
  -OEChem-11182114133D

 26 26  0     1  0  0  0  0  0999 V2000
   -1.2884   -4.2545    0.3154 H   0  0  0  0  0  0  0  0  0  0  0  0
   -1.6954   -3.3216   -0.0837 C   0  0  0  0  0  0  0  0  0  0  0  0
   -2.4340   -2.9361    0.6242 H   0  0  0  0  0  0  0  0  0  0  0  0
   -2.1888   -3.5293   -1.0361 H   0  0  0  0  0  0  0  0  0  0  0  0
   -0.5703   -2.3076   -0.2845 C   0  0  0  0  0  0  0  0  0  0  0  0
    0.4849   -2.7649   -0.7125 O   0  0  0  0  0  0  0  0  0  0  0  0
   -0.6765   -1.0270    0.2924 N   0  0  0  0  0  0  0  0  0  0  0  0
   -1.6340   -0.5048   -0.7227 C   0  0  0  0  0  0  0  0  0  0  0  0
   -2.4889   -0.0509   -0.2098 H   0  0  0  0  0  0  0  0  0  0  0  0
   -2.0521   -1.1869   -1.4795 H   0  0  0  0  0  0  0  0  0  0  0  0
   -0.8393    0.5381   -1.4152 C   0  0  0  0  0  0  0  0  0  0  0  0
   -1.1375    1.5254   -1.0462 H   0  0  0  0  0  0  0  0  0  0  0  0
   -1.0335    0.5215   -2.4922 H   0  0  0  0  0  0  0  0  0  0  0  0
    0.6502    0.2983   -1.1355 C   0  0  0  0  0  0  0  0  0  0  0  0
    1.2515    1.2000   -1.3012 H   0  0  0  0  0  0  0  0  0  0  0  0
    1.0311   -0.4495   -1.8388 H   0  0  0  0  0  0  0  0  0  0  0  0
    0.6641   -0.3169    0.3018 C   0  0  1  0  0  0  0  0  0  0  0  0
    1.5408   -0.9148    0.5712 H   0  0  0  0  0  0  0  0  0  0  0  0
    0.6484    1.0951    0.9717 C   0  0  0  0  0  0  0  0  0  0  0  0
   -0.3569    1.5484    1.5095 O   0  0  0  0  0  0  0  0  0  0  0  0
    1.8114    1.8491    1.0479 N   0  0  0  0  0  0  0  0  0  0  0  0
    2.6608    1.4370    0.6733 H   0  0  0  0  0  0  0  0  0  0  0  0
    1.8949    3.1353    1.7297 C   0  0  0  0  0  0  0  0  0  0  0  0
    1.6870    3.0164    2.7982 H   0  0  0  0  0  0  0  0  0  0  0  0
    2.8975    3.5583    1.6163 H   0  0  0  0  0  0  0  0  0  0  0  0
    1.1731    3.8418    1.3064 H   0  0  0  0  0  0  0  0  0  0  0  0
  1  2  1  0  0  0  0
  2  3  1  0  0  0  0
  2  4  1  0  0  0  0
  2  5  1  0  0  0  0
  5  6  2  0  0  0  0
  5  7  1  0  0  0  0
  7  8  1  0  0  0  0
  7 17  1  0  0  0  0
  8  9  1  0  0  0  0
  8 10  1  0  0  0  0
  8 11  1  0  0  0  0
 11 12  1  0  0  0  0
 11 13  1  0  0  0  0
 11 14  1  0  0  0  0
 14 15  1  0  0  0  0
 14 16  1  0  0  0  0
 14 17  1  0  0  0  0
 17 18  1  0  0  0  0
 17 19  1  0  0  0  0
 19 20  2  0  0  0  0
 19 21  1  0  0  0  0
 21 22  1  0  0  0  0
 21 23  1  0  0  0  0
 23 24  1  0  0  0  0
 23 25  1  0  0  0  0
 23 26  1  0  0  0  0
M  END
$$$$

  -OEChem-11182114133D

 26 26  0     1  0  0  0  0  0999 V2000
   -1.2574   -4.2476    0.3179 H   0  0  0  0  0  0  0  0  0  0  0  0
   -1.6762   -3.3193   -0.0802 C   0  0  0  0  0  0  0  0  0  0  0  0
   -2.4067   -2.9351    0.6366 H   0  0  0  0  0  0  0  0  0  0  0  0
   -2.1819   -3.5352   -1.0244 H   0  0  0  0  0  0  0  0  0  0  0  0
   -0.5599   -2.2996   -0.3017 C   0  0  0  0  0  0  0  0  0  0  0  0
    0.4873   -2.7550   -0.7510 O   0  0  0  0  0  0  0  0  0  0  0  0
   -0.6561   -1.0243    0.2902 N   0  0  0  0  0  0  0  0  0  0  0  0
   -1.6414   -0.4983   -0.6922 C   0  0  0  0  0  0  0  0  0  0  0  0
   -2.4749   -0.0350   -0.1528 H   0  0  0  0  0  0  0  0  0  0  0  0
   -2.0901   -1.1766   -1.4348 H   0  0  0  0  0  0  0  0  0  0  0  0
   -0.8542    0.5337   -1.4037 C   0  0  0  0  0  0  0  0  0  0  0  0
   -1.1358    1.5228   -1.0262 H   0  0  0  0  0  0  0  0  0  0  0  0
   -1.0732    0.5176   -2.4759 H   0  0  0  0  0  0  0  0  0  0  0  0
    0.6407    0.2914   -1.1583 C   0  0  0  0  0  0  0  0  0  0  0  0
    1.2414    1.1821   -1.3636 H   0  0  0  0  0  0  0  0  0  0  0  0
    0.9974   -0.4653   -1.8647 H   0  0  0  0  0  0  0  0  0  0  0  0
    0.6896   -0.3189    0.2847 C   0  0  1  0  0  0  0  0  0  0  0  0
    1.5717   -0.9159    0.5377 H   0  0  0  0  0  0  0  0  0  0  0  0
    0.6639    1.0881    0.9769 C   0  0  0  0  0  0  0  0  0  0  0  0
   -0.2756    1.4100    1.6963 O   0  0  0  0  0  0  0  0  0  0  0  0
    1.6838    2.0216    0.8293 N   0  0  0  0  0  0  0  0  0  0  0  0
    2.4986    1.7405    0.2921 H   0  0  0  0  0  0  0  0  0  0  0  0
    1.6957    3.3197    1.4940 C   0  0  0  0  0  0  0  0  0  0  0  0
    1.6942    3.1930    2.5817 H   0  0  0  0  0  0  0  0  0  0  0  0
    2.5916    3.8810    1.2121 H   0  0  0  0  0  0  0  0  0  0  0  0
    0.8168    3.9060    1.2056 H   0  0  0  0  0  0  0  0  0  0  0  0
  1  2  1  0  0  0  0
  2  3  1  0  0  0  0
  2  4  1  0  0  0  0
  2  5  1  0  0  0  0
  5  6  2  0  0  0  0
  5  7  1  0  0  0  0
  7  8  1  0  0  0  0
  7 17  1  0  0  0  0
  8  9  1  0  0  0  0
  8 10  1  0  0  0  0
  8 11  1  0  0  0  0
 11 12  1  0  0  0  0
 11 13  1  0  0  0  0
 11 14  1  0  0  0  0
 14 15  1  0  0  0  0
 14 16  1  0  0  0  0
 14 17  1  0  0  0  0
 17 18  1  0  0  0  0
 17 19  1  0  0  0  0
 19 20  2  0  0  0  0
 19 21  1  0  0  0  0
 21 22  1  0  0  0  0
 21 23  1  0  0  0  0
 23 24  1  0  0  0  0
 23 25  1  0  0  0  0
 23 26  1  0  0  0  0
M  END
$$$$

  -OEChem-11182114133D

 26 26  0     1  0  0  0  0  0999 V2000
   -1.2407   -4.2314    0.3491 H   0  0  0  0  0  0  0  0  0  0  0  0
   -1.6712   -3.3044   -0.0392 C   0  0  0  0  0  0  0  0  0  0  0  0
   -2.3733   -2.9135    0.7021 H   0  0  0  0  0  0  0  0  0  0  0  0
   -2.2123   -3.5247   -0.9625 H   0  0  0  0  0  0  0  0  0  0  0  0
   -0.5607   -2.2896   -0.3085 C   0  0  0  0  0  0  0  0  0  0  0  0
    0.4694   -2.7540   -0.7868 O   0  0  0  0  0  0  0  0  0  0  0  0
   -0.6319   -1.0127    0.2846 N   0  0  0  0  0  0  0  0  0  0  0  0
   -1.6342   -0.4923   -0.6839 C   0  0  0  0  0  0  0  0  0  0  0  0
   -2.4466   -0.0068   -0.1322 H   0  0  0  0  0  0  0  0  0  0  0  0
   -2.1149   -1.1745   -1.4029 H   0  0  0  0  0  0  0  0  0  0  0  0
   -0.8491    0.5154   -1.4317 C   0  0  0  0  0  0  0  0  0  0  0  0
   -1.1131    1.5149   -1.0692 H   0  0  0  0  0  0  0  0  0  0  0  0
   -1.0911    0.4800   -2.4987 H   0  0  0  0  0  0  0  0  0  0  0  0
    0.6497    0.2668   -1.2143 C   0  0  0  0  0  0  0  0  0  0  0  0
    1.2646    1.1346   -1.4616 H   0  0  0  0  0  0  0  0  0  0  0  0
    0.9796   -0.5112   -1.9101 H   0  0  0  0  0  0  0  0  0  0  0  0
    0.7186   -0.3144    0.2398 C   0  0  1  0  0  0  0  0  0  0  0  0
    1.6038   -0.9078    0.4910 H   0  0  0  0  0  0  0  0  0  0  0  0
    0.6710    1.0917    0.9477 C   0  0  0  0  0  0  0  0  0  0  0  0
   -0.1146    1.2588    1.8736 O   0  0  0  0  0  0  0  0  0  0  0  0
    1.4556    2.1947    0.6229 N   0  0  0  0  0  0  0  0  0  0  0  0
    2.1756    2.0608   -0.0802 H   0  0  0  0  0  0  0  0  0  0  0  0
    1.4143    3.4619    1.3453 C   0  0  0  0  0  0  0  0  0  0  0  0
    1.7014    3.3156    2.3918 H   0  0  0  0  0  0  0  0  0  0  0  0
    2.1069    4.1780    0.8932 H   0  0  0  0  0  0  0  0  0  0  0  0
    0.4068    3.8896    1.3127 H   0  0  0  0  0  0  0  0  0  0  0  0
  1  2  1  0  0  0  0
  2  3  1  0  0  0  0
  2  4  1  0  0  0  0
  2  5  1  0  0  0  0
  5  6  2  0  0  0  0
  5  7  1  0  0  0  0
  7  8  1  0  0  0  0
  7 17  1  0  0  0  0
  8  9  1  0  0  0  0
  8 10  1  0  0  0  0
  8 11  1  0  0  0  0
 11 12  1  0  0  0  0
 11 13  1  0  0  0  0
 11 14  1  0  0  0  0
 14 15  1  0  0  0  0
 14 16  1  0  0  0  0
 14 17  1  0  0  0  0
 17 18  1  0  0  0  0
 17 19  1  0  0  0  0
 19 20  2  0  0  0  0
 19 21  1  0  0  0  0
 21 22  1  0  0  0  0
 21 23  1  0  0  0  0
 23 24  1  0  0  0  0
 23 25  1  0  0  0  0
 23 26  1  0  0  0  0
M  END
$$$$

  -OEChem-11182114133D

 26 26  0     1  0  0  0  0  0999 V2000
   -1.2349   -4.2156    0.3872 H   0  0  0  0  0  0  0  0  0  0  0  0
   -1.6711   -3.2913   -0.0011 C   0  0  0  0  0  0  0  0  0  0  0  0
   -2.3562   -2.8910    0.7510 H   0  0  0  0  0  0  0  0  0  0  0  0
   -2.2327   -3.5195   -0.9102 H   0  0  0  0  0  0  0  0  0  0  0  0
   -0.5639   -2.2825   -0.3047 C   0  0  0  0  0  0  0  0  0  0  0  0
    0.4520   -2.7551   -0.8050 O   0  0  0  0  0  0  0  0  0  0  0  0
   -0.6159   -1.0025    0.2846 N   0  0  0  0  0  0  0  0  0  0  0  0
   -1.6231   -0.4907   -0.6866 C   0  0  0  0  0  0  0  0  0  0  0  0
   -2.4236    0.0139   -0.1346 H   0  0  0  0  0  0  0  0  0  0  0  0
   -2.1235   -1.1784   -1.3877 H   0  0  0  0  0  0  0  0  0  0  0  0
   -0.8370    0.4970   -1.4633 C   0  0  0  0  0  0  0  0  0  0  0  0
   -1.0939    1.5058   -1.1227 H   0  0  0  0  0  0  0  0  0  0  0  0
   -1.0892    0.4382   -2.5270 H   0  0  0  0  0  0  0  0  0  0  0  0
    0.6641    0.2435   -1.2578 C   0  0  0  0  0  0  0  0  0  0  0  0
    1.2990    1.0906   -1.5232 H   0  0  0  0  0  0  0  0  0  0  0  0
    0.9779   -0.5521   -1.9409 H   0  0  0  0  0  0  0  0  0  0  0  0
    0.7352   -0.3087    0.2036 C   0  0  1  0  0  0  0  0  0  0  0  0
    1.6223   -0.8964    0.4620 H   0  0  0  0  0  0  0  0  0  0  0  0
    0.6629    1.0953    0.9218 C   0  0  0  0  0  0  0  0  0  0  0  0
    0.1097    1.1367    2.0144 O   0  0  0  0  0  0  0  0  0  0  0  0
    1.1627    2.3173    0.4754 N   0  0  0  0  0  0  0  0  0  0  0  0
    1.7057    2.3140   -0.3814 H   0  0  0  0  0  0  0  0  0  0  0  0
    1.0869    3.5572    1.2420 C   0  0  0  0  0  0  0  0  0  0  0  0
    1.6318    3.4575    2.1867 H   0  0  0  0  0  0  0  0  0  0  0  0
    1.5285    4.3810    0.6731 H   0  0  0  0  0  0  0  0  0  0  0  0
    0.0442    3.8105    1.4610 H   0  0  0  0  0  0  0  0  0  0  0  0
  1  2  1  0  0  0  0
  2  3  1  0  0  0  0
  2  4  1  0  0  0  0
  2  5  1  0  0  0  0
  5  6  2  0  0  0  0
  5  7  1  0  0  0  0
  7  8  1  0  0  0  0
  7 17  1  0  0  0  0
  8  9  1  0  0  0  0
  8 10  1  0  0  0  0
  8 11  1  0  0  0  0
 11 12  1  0  0  0  0
 11 13  1  0  0  0  0
 11 14  1  0  0  0  0
 14 15  1  0  0  0  0
 14 16  1  0  0  0  0
 14 17  1  0  0  0  0
 17 18  1  0  0  0  0
 17 19  1  0  0  0  0
 19 20  2  0  0  0  0
 19 21  1  0  0  0  0
 21 22  1  0  0  0  0
 21 23  1  0  0  0  0
 23 24  1  0  0  0  0
 23 25  1  0  0  0  0
 23 26  1  0  0  0  0
M  END
$$$$

  -OEChem-11182114133D

 26 26  0     1  0  0  0  0  0999 V2000
   -1.2131   -4.2121    0.4167 H   0  0  0  0  0  0  0  0  0  0  0  0
   -1.6620   -3.2957    0.0240 C   0  0  0  0  0  0  0  0  0  0  0  0
   -2.3413   -2.8932    0.7802 H   0  0  0  0  0  0  0  0  0  0  0  0
   -2.2327   -3.5384   -0.8755 H   0  0  0  0  0  0  0  0  0  0  0  0
   -0.5669   -2.2810   -0.3033 C   0  0  0  0  0  0  0  0  0  0  0  0
    0.4422   -2.7487   -0.8210 O   0  0  0  0  0  0  0  0  0  0  0  0
   -0.6190   -0.9997    0.2838 N   0  0  0  0  0  0  0  0  0  0  0  0
   -1.6220   -0.5034   -0.7039 C   0  0  0  0  0  0  0  0  0  0  0  0
   -2.4266    0.0058   -0.1621 H   0  0  0  0  0  0  0  0  0  0  0  0
   -2.1209   -1.1987   -1.3995 H   0  0  0  0  0  0  0  0  0  0  0  0
   -0.8367    0.4798   -1.4904 C   0  0  0  0  0  0  0  0  0  0  0  0
   -1.1098    1.4911   -1.1725 H   0  0  0  0  0  0  0  0  0  0  0  0
   -1.0802    0.4000   -2.5548 H   0  0  0  0  0  0  0  0  0  0  0  0
    0.6672    0.2351   -1.2741 C   0  0  0  0  0  0  0  0  0  0  0  0
    1.3115    1.0797   -1.5288 H   0  0  0  0  0  0  0  0  0  0  0  0
    0.9901   -0.5637   -1.9492 H   0  0  0  0  0  0  0  0  0  0  0  0
    0.7270   -0.2986    0.1906 C   0  0  1  0  0  0  0  0  0  0  0  0
    1.6151   -0.8802    0.4586 H   0  0  0  0  0  0  0  0  0  0  0  0
    0.6409    1.1038    0.9122 C   0  0  0  0  0  0  0  0  0  0  0  0
    0.3715    1.0754    2.1066 O   0  0  0  0  0  0  0  0  0  0  0  0
    0.8480    2.3832    0.3965 N   0  0  0  0  0  0  0  0  0  0  0  0
    1.0970    2.4598   -0.5833 H   0  0  0  0  0  0  0  0  0  0  0  0
    0.7644    3.6066    1.1884 C   0  0  0  0  0  0  0  0  0  0  0  0
    1.5054    3.5929    1.9947 H   0  0  0  0  0  0  0  0  0  0  0  0
    0.9573    4.4794    0.5574 H   0  0  0  0  0  0  0  0  0  0  0  0
   -0.2333    3.7123    1.6274 H   0  0  0  0  0  0  0  0  0  0  0  0
  1  2  1  0  0  0  0
  2  3  1  0  0  0  0
  2  4  1  0  0  0  0
  2  5  1  0  0  0  0
  5  6  2  0  0  0  0
  5  7  1  0  0  0  0
  7  8  1  0  0  0  0
  7 17  1  0  0  0  0
  8  9  1  0  0  0  0
  8 10  1  0  0  0  0
  8 11  1  0  0  0  0
 11 12  1  0  0  0  0
 11 13  1  0  0  0  0
 11 14  1  0  0  0  0
 14 15  1  0  0  0  0
 14 16  1  0  0  0  0
 14 17  1  0  0  0  0
 17 18  1  0  0  0  0
 17 19  1  0  0  0  0
 19 20  2  0  0  0  0
 19 21  1  0  0  0  0
 21 22  1  0  0  0  0
 21 23  1  0  0  0  0
 23 24  1  0  0  0  0
 23 25  1  0  0  0  0
 23 26  1  0  0  0  0
M  END
$$$$

  -OEChem-11182114133D

 26 26  0     1  0  0  0  0  0999 V2000
   -1.1741   -4.2307    0.4106 H   0  0  0  0  0  0  0  0  0  0  0  0
   -1.6407   -3.3241    0.0157 C   0  0  0  0  0  0  0  0  0  0  0  0
   -2.3312   -2.9360    0.7691 H   0  0  0  0  0  0  0  0  0  0  0  0
   -2.2023   -3.5790   -0.8861 H   0  0  0  0  0  0  0  0  0  0  0  0
   -0.5657   -2.2871   -0.3075 C   0  0  0  0  0  0  0  0  0  0  0  0
    0.4543   -2.7367   -0.8194 O   0  0  0  0  0  0  0  0  0  0  0  0
   -0.6476   -1.0076    0.2824 N   0  0  0  0  0  0  0  0  0  0  0  0
   -1.6441   -0.5347   -0.7247 C   0  0  0  0  0  0  0  0  0  0  0  0
   -2.4639   -0.0353   -0.1968 H   0  0  0  0  0  0  0  0  0  0  0  0
   -2.1247   -1.2402   -1.4234 H   0  0  0  0  0  0  0  0  0  0  0  0
   -0.8652    0.4579   -1.5050 C   0  0  0  0  0  0  0  0  0  0  0  0
   -1.1763    1.4648   -1.2142 H   0  0  0  0  0  0  0  0  0  0  0  0
   -1.0838    0.3555   -2.5730 H   0  0  0  0  0  0  0  0  0  0  0  0
    0.6412    0.2399   -1.2599 C   0  0  0  0  0  0  0  0  0  0  0  0
    1.2727    1.1028   -1.4916 H   0  0  0  0  0  0  0  0  0  0  0  0
    0.9957   -0.5493   -1.9302 H   0  0  0  0  0  0  0  0  0  0  0  0
    0.6890   -0.2853    0.2083 C   0  0  1  0  0  0  0  0  0  0  0  0
    1.5791   -0.8617    0.4825 H   0  0  0  0  0  0  0  0  0  0  0  0
    0.6099    1.1191    0.9236 C   0  0  0  0  0  0  0  0  0  0  0  0
    0.6155    1.0817    2.1471 O   0  0  0  0  0  0  0  0  0  0  0  0
    0.5458    2.4038    0.3840 N   0  0  0  0  0  0  0  0  0  0  0  0
    0.5346    2.4848   -0.6268 H   0  0  0  0  0  0  0  0  0  0  0  0
    0.4745    3.6240    1.1819 C   0  0  0  0  0  0  0  0  0  0  0  0
    1.3614    3.7194    1.8173 H   0  0  0  0  0  0  0  0  0  0  0  0
    0.4223    4.5005    0.5289 H   0  0  0  0  0  0  0  0  0  0  0  0
   -0.4163    3.6146    1.8188 H   0  0  0  0  0  0  0  0  0  0  0  0
  1  2  1  0  0  0  0
  2  3  1  0  0  0  0
  2  4  1  0  0  0  0
  2  5  1  0  0  0  0
  5  6  2  0  0  0  0
  5  7  1  0  0  0  0
  7  8  1  0  0  0  0
  7 17  1  0  0  0  0
  8  9  1  0  0  0  0
  8 10  1  0  0  0  0
  8 11  1  0  0  0  0
 11 12  1  0  0  0  0
 11 13  1  0  0  0  0
 11 14  1  0  0  0  0
 14 15  1  0  0  0  0
 14 16  1  0  0  0  0
 14 17  1  0  0  0  0
 17 18  1  0  0  0  0
 17 19  1  0  0  0  0
 19 20  2  0  0  0  0
 19 21  1  0  0  0  0
 21 22  1  0  0  0  0
 21 23  1  0  0  0  0
 23 24  1  0  0  0  0
 23 25  1  0  0  0  0
 23 26  1  0  0  0  0
M  END
$$$$

  -OEChem-11182114133D

 26 26  0     1  0  0  0  0  0999 V2000
   -1.1221   -4.2684    0.3871 H   0  0  0  0  0  0  0  0  0  0  0  0
   -1.6084   -3.3752   -0.0149 C   0  0  0  0  0  0  0  0  0  0  0  0
   -2.3253   -3.0105    0.7254 H   0  0  0  0  0  0  0  0  0  0  0  0
   -2.1444   -3.6451   -0.9279 H   0  0  0  0  0  0  0  0  0  0  0  0
   -0.5591   -2.3051   -0.3149 C   0  0  0  0  0  0  0  0  0  0  0  0
    0.4814   -2.7227   -0.8121 O   0  0  0  0  0  0  0  0  0  0  0  0
   -0.6912   -1.0314    0.2802 N   0  0  0  0  0  0  0  0  0  0  0  0
   -1.6773   -0.5866   -0.7506 C   0  0  0  0  0  0  0  0  0  0  0  0
   -2.5231   -0.1124   -0.2407 H   0  0  0  0  0  0  0  0  0  0  0  0
   -2.1226   -1.3036   -1.4610 H   0  0  0  0  0  0  0  0  0  0  0  0
   -0.9110    0.4298   -1.5102 C   0  0  0  0  0  0  0  0  0  0  0  0
   -1.2742    1.4248   -1.2456 H   0  0  0  0  0  0  0  0  0  0  0  0
   -1.0907    0.3096   -2.5836 H   0  0  0  0  0  0  0  0  0  0  0  0
    0.5954    0.2528   -1.2219 C   0  0  0  0  0  0  0  0  0  0  0  0
    1.1980    1.1451   -1.4233 H   0  0  0  0  0  0  0  0  0  0  0  0
    0.9976   -0.5165   -1.8884 H   0  0  0  0  0  0  0  0  0  0  0  0
    0.6292   -0.2747    0.2474 C   0  0  1  0  0  0  0  0  0  0  0  0
    1.5233   -0.8434    0.5261 H   0  0  0  0  0  0  0  0  0  0  0  0
    0.5600    1.1330    0.9538 C   0  0  0  0  0  0  0  0  0  0  0  0
    0.8253    1.1227    2.1485 O   0  0  0  0  0  0  0  0  0  0  0  0
    0.2415    2.3895    0.4411 N   0  0  0  0  0  0  0  0  0  0  0  0
    0.0456    2.4491   -0.5520 H   0  0  0  0  0  0  0  0  0  0  0  0
    0.2219    3.6162    1.2317 C   0  0  0  0  0  0  0  0  0  0  0  0
    1.2092    3.8105    1.6639 H   0  0  0  0  0  0  0  0  0  0  0  0
   -0.0524    4.4676    0.6017 H   0  0  0  0  0  0  0  0  0  0  0  0
   -0.5092    3.5374    2.0432 H   0  0  0  0  0  0  0  0  0  0  0  0
  1  2  1  0  0  0  0
  2  3  1  0  0  0  0
  2  4  1  0  0  0  0
  2  5  1  0  0  0  0
  5  6  2  0  0  0  0
  5  7  1  0  0  0  0
  7  8  1  0  0  0  0
  7 17  1  0  0  0  0
  8  9  1  0  0  0  0
  8 10  1  0  0  0  0
  8 11  1  0  0  0  0
 11 12  1  0  0  0  0
 11 13  1  0  0  0  0
 11 14  1  0  0  0  0
 14 15  1  0  0  0  0
 14 16  1  0  0  0  0
 14 17  1  0  0  0  0
 17 18  1  0  0  0  0
 17 19  1  0  0  0  0
 19 20  2  0  0  0  0
 19 21  1  0  0  0  0
 21 22  1  0  0  0  0
 21 23  1  0  0  0  0
 23 24  1  0  0  0  0
 23 25  1  0  0  0  0
 23 26  1  0  0  0  0
M  END
$$$$

  -OEChem-11182114133D

 26 26  0     1  0  0  0  0  0999 V2000
   -1.0852   -4.3125    0.3471 H   0  0  0  0  0  0  0  0  0  0  0  0
   -1.5799   -3.4317   -0.0712 C   0  0  0  0  0  0  0  0  0  0  0  0
   -2.3365   -3.0911    0.6404 H   0  0  0  0  0  0  0  0  0  0  0  0
   -2.0703   -3.7123   -1.0066 H   0  0  0  0  0  0  0  0  0  0  0  0
   -0.5502   -2.3309   -0.3247 C   0  0  0  0  0  0  0  0  0  0  0  0
    0.5148   -2.7166   -0.7944 O   0  0  0  0  0  0  0  0  0  0  0  0
   -0.7349   -1.0673    0.2794 N   0  0  0  0  0  0  0  0  0  0  0  0
   -1.7065   -0.6412   -0.7730 C   0  0  0  0  0  0  0  0  0  0  0  0
   -2.5788   -0.1976   -0.2808 H   0  0  0  0  0  0  0  0  0  0  0  0
   -2.1121   -1.3631   -1.5023 H   0  0  0  0  0  0  0  0  0  0  0  0
   -0.9519    0.4042   -1.5018 C   0  0  0  0  0  0  0  0  0  0  0  0
   -1.3617    1.3843   -1.2571 H   0  0  0  0  0  0  0  0  0  0  0  0
   -1.0908    0.2782   -2.5806 H   0  0  0  0  0  0  0  0  0  0  0  0
    0.5500    0.2643   -1.1686 C   0  0  0  0  0  0  0  0  0  0  0  0
    1.1200    1.1858   -1.3359 H   0  0  0  0  0  0  0  0  0  0  0  0
    0.9988   -0.4791   -1.8350 H   0  0  0  0  0  0  0  0  0  0  0  0
    0.5681   -0.2782    0.2974 C   0  0  1  0  0  0  0  0  0  0  0  0
    1.4650   -0.8422    0.5777 H   0  0  0  0  0  0  0  0  0  0  0  0
    0.5121    1.1294    1.0002 C   0  0  0  0  0  0  0  0  0  0  0  0
    1.0235    1.1696    2.1112 O   0  0  0  0  0  0  0  0  0  0  0  0
   -0.0371    2.3340    0.5685 N   0  0  0  0  0  0  0  0  0  0  0  0
   -0.4009    2.3660   -0.3757 H   0  0  0  0  0  0  0  0  0  0  0  0
   -0.0003    3.5725    1.3398 C   0  0  0  0  0  0  0  0  0  0  0  0
    1.0345    3.8731    1.5357 H   0  0  0  0  0  0  0  0  0  0  0  0
   -0.4950    4.3764    0.7866 H   0  0  0  0  0  0  0  0  0  0  0  0
   -0.5177    3.4439    2.2964 H   0  0  0  0  0  0  0  0  0  0  0  0
  1  2  1  0  0  0  0
  2  3  1  0  0  0  0
  2  4  1  0  0  0  0
  2  5  1  0  0  0  0
  5  6  2  0  0  0  0
  5  7  1  0  0  0  0
  7  8  1  0  0  0  0
  7 17  1  0  0  0  0
  8  9  1  0  0  0  0
  8 10  1  0  0  0  0
  8 11  1  0  0  0  0
 11 12  1  0  0  0  0
 11 13  1  0  0  0  0
 11 14  1  0  0  0  0
 14 15  1  0  0  0  0
 14 16  1  0  0  0  0
 14 17  1  0  0  0  0
 17 18  1  0  0  0  0
 17 19  1  0  0  0  0
 19 20  2  0  0  0  0
 19 21  1  0  0  0  0
 21 22  1  0  0  0  0
 21 23  1  0  0  0  0
 23 24  1  0  0  0  0
 23 25  1  0  0  0  0
 23 26  1  0  0  0  0
M  END
$$$$

  -OEChem-11182114133D

 26 26  0     1  0  0  0  0  0999 V2000
   -1.0930   -4.3319    0.3174 H   0  0  0  0  0  0  0  0  0  0  0  0
   -1.5861   -3.4509   -0.1026 C   0  0  0  0  0  0  0  0  0  0  0  0
   -2.3518   -3.1156    0.6018 H   0  0  0  0  0  0  0  0  0  0  0  0
   -2.0650   -3.7289   -1.0445 H   0  0  0  0  0  0  0  0  0  0  0  0
   -0.5570   -2.3464   -0.3404 C   0  0  0  0  0  0  0  0  0  0  0  0
    0.5095   -2.7239   -0.8121 O   0  0  0  0  0  0  0  0  0  0  0  0
   -0.7468   -1.0911    0.2790 N   0  0  0  0  0  0  0  0  0  0  0  0
   -1.6933   -0.6537   -0.7988 C   0  0  0  0  0  0  0  0  0  0  0  0
   -2.5767   -0.2149   -0.3227 H   0  0  0  0  0  0  0  0  0  0  0  0
   -2.0853   -1.3685   -1.5431 H   0  0  0  0  0  0  0  0  0  0  0  0
   -0.9283    0.4040   -1.5060 C   0  0  0  0  0  0  0  0  0  0  0  0
   -1.3380    1.3906   -1.2948 H   0  0  0  0  0  0  0  0  0  0  0  0
   -1.0362    0.2693   -2.5873 H   0  0  0  0  0  0  0  0  0  0  0  0
    0.5614    0.2613   -1.1419 C   0  0  0  0  0  0  0  0  0  0  0  0
    1.1179    1.1979   -1.2710 H   0  0  0  0  0  0  0  0  0  0  0  0
    1.0344   -0.4653   -1.8102 H   0  0  0  0  0  0  0  0  0  0  0  0
    0.5526   -0.2978    0.3153 C   0  0  1  0  0  0  0  0  0  0  0  0
    1.4447   -0.8684    0.5984 H   0  0  0  0  0  0  0  0  0  0  0  0
    0.5020    1.0978    1.0327 C   0  0  0  0  0  0  0  0  0  0  0  0
    1.3083    1.2489    1.9409 O   0  0  0  0  0  0  0  0  0  0  0  0
   -0.2762    2.2116    0.7410 N   0  0  0  0  0  0  0  0  0  0  0  0
   -1.0551    2.0689    0.1118 H   0  0  0  0  0  0  0  0  0  0  0  0
   -0.2294    3.4542    1.5051 C   0  0  0  0  0  0  0  0  0  0  0  0
    0.7801    3.8786    1.4869 H   0  0  0  0  0  0  0  0  0  0  0  0
   -0.9173    4.1880    1.0746 H   0  0  0  0  0  0  0  0  0  0  0  0
   -0.5183    3.2759    2.5462 H   0  0  0  0  0  0  0  0  0  0  0  0
  1  2  1  0  0  0  0
  2  3  1  0  0  0  0
  2  4  1  0  0  0  0
  2  5  1  0  0  0  0
  5  6  2  0  0  0  0
  5  7  1  0  0  0  0
  7  8  1  0  0  0  0
  7 17  1  0  0  0  0
  8  9  1  0  0  0  0
  8 10  1  0  0  0  0
  8 11  1  0  0  0  0
 11 12  1  0  0  0  0
 11 13  1  0  0  0  0
 11 14  1  0  0  0  0
 14 15  1  0  0  0  0
 14 16  1  0  0  0  0
 14 17  1  0  0  0  0
 17 18  1  0  0  0  0
 17 19  1  0  0  0  0
 19 20  2  0  0  0  0
 19 21  1  0  0  0  0
 21 22  1  0  0  0  0
 21 23  1  0  0  0  0
 23 24  1  0  0  0  0
 23 25  1  0  0  0  0
 23 26  1  0  0  0  0
M  END
$$$$

  -OEChem-11182114133D

 26 26  0     1  0  0  0  0  0999 V2000
   -1.1218   -4.3490    0.2796 H   0  0  0  0  0  0  0  0  0  0  0  0
   -1.6012   -3.4603   -0.1399 C   0  0  0  0  0  0  0  0  0  0  0  0
   -2.3730   -3.1231    0.5569 H   0  0  0  0  0  0  0  0  0  0  0  0
   -2.0704   -3.7259   -1.0904 H   0  0  0  0  0  0  0  0  0  0  0  0
   -0.5587   -2.3643   -0.3560 C   0  0  0  0  0  0  0  0  0  0  0  0
    0.5015   -2.7408   -0.8421 O   0  0  0  0  0  0  0  0  0  0  0  0
   -0.7328   -1.1183    0.2848 N   0  0  0  0  0  0  0  0  0  0  0  0
   -1.6800   -0.6484   -0.7813 C   0  0  0  0  0  0  0  0  0  0  0  0
   -2.5634   -0.2218   -0.2944 H   0  0  0  0  0  0  0  0  0  0  0  0
   -2.0719   -1.3441   -1.5434 H   0  0  0  0  0  0  0  0  0  0  0  0
   -0.9162    0.4273   -1.4680 C   0  0  0  0  0  0  0  0  0  0  0  0
   -1.3075    1.4144   -1.2192 H   0  0  0  0  0  0  0  0  0  0  0  0
   -1.0382    0.3272   -2.5517 H   0  0  0  0  0  0  0  0  0  0  0  0
    0.5731    0.2647   -1.1208 C   0  0  0  0  0  0  0  0  0  0  0  0
    1.1310    1.2040   -1.2261 H   0  0  0  0  0  0  0  0  0  0  0  0
    1.0372   -0.4471   -1.8111 H   0  0  0  0  0  0  0  0  0  0  0  0
    0.5699   -0.3332    0.3187 C   0  0  1  0  0  0  0  0  0  0  0  0
    1.4627   -0.9104    0.5855 H   0  0  0  0  0  0  0  0  0  0  0  0
    0.5234    1.0463    1.0581 C   0  0  0  0  0  0  0  0  0  0  0  0
    1.4897    1.3250    1.7555 O   0  0  0  0  0  0  0  0  0  0  0  0
   -0.4555    2.0241    0.9527 N   0  0  0  0  0  0  0  0  0  0  0  0
   -1.3193    1.7462    0.5004 H   0  0  0  0  0  0  0  0  0  0  0  0
   -0.4338    3.2750    1.7029 C   0  0  0  0  0  0  0  0  0  0  0  0
    0.4687    3.8485    1.4664 H   0  0  0  0  0  0  0  0  0  0  0  0
   -1.3052    3.8847    1.4460 H   0  0  0  0  0  0  0  0  0  0  0  0
   -0.4538    3.0772    2.7797 H   0  0  0  0  0  0  0  0  0  0  0  0
  1  2  1  0  0  0  0
  2  3  1  0  0  0  0
  2  4  1  0  0  0  0
  2  5  1  0  0  0  0
  5  6  2  0  0  0  0
  5  7  1  0  0  0  0
  7  8  1  0  0  0  0
  7 17  1  0  0  0  0
  8  9  1  0  0  0  0
  8 10  1  0  0  0  0
  8 11  1  0  0  0  0
 11 12  1  0  0  0  0
 11 13  1  0  0  0  0
 11 14  1  0  0  0  0
 14 15  1  0  0  0  0
 14 16  1  0  0  0  0
 14 17  1  0  0  0  0
 17 18  1  0  0  0  0
 17 19  1  0  0  0  0
 19 20  2  0  0  0  0
 19 21  1  0  0  0  0
 21 22  1  0  0  0  0
 21 23  1  0  0  0  0
 23 24  1  0  0  0  0
 23 25  1  0  0  0  0
 23 26  1  0  0  0  0
M  END
$$$$

  -OEChem-11182114133D

 26 26  0     1  0  0  0  0  0999 V2000
   -1.4759   -3.9963    0.7848 H   0  0  0  0  0  0  0  0  0  0  0  0
   -1.8543   -3.1130    0.2632 C   0  0  0  0  0  0  0  0  0  0  0  0
   -2.5477   -2.5901    0.9269 H   0  0  0  0  0  0  0  0  0  0  0  0
   -2.3916   -3.4332   -0.6328 H   0  0  0  0  0  0  0  0  0  0  0  0
   -0.6890   -2.2035   -0.1227 C   0  0  0  0  0  0  0  0  0  0  0  0
    0.2697   -2.7707   -0.6336 O   0  0  0  0  0  0  0  0  0  0  0  0
   -0.6385   -0.8922    0.3954 N   0  0  0  0  0  0  0  0  0  0  0  0
   -1.6093   -0.3769   -0.6264 C   0  0  0  0  0  0  0  0  0  0  0  0
   -2.1296   -1.0735   -1.3057 H   0  0  0  0  0  0  0  0  0  0  0  0
   -2.4037    0.1785   -0.1191 H   0  0  0  0  0  0  0  0  0  0  0  0
   -0.7836    0.5420   -1.4544 C   0  0  0  0  0  0  0  0  0  0  0  0
   -0.9894    1.5832   -1.1975 H   0  0  0  0  0  0  0  0  0  0  0  0
   -1.0351    0.4272   -2.5137 H   0  0  0  0  0  0  0  0  0  0  0  0
    0.6927    0.2002   -1.2330 C   0  0  0  0  0  0  0  0  0  0  0  0
    1.3560    1.0381   -1.4845 H   0  0  0  0  0  0  0  0  0  0  0  0
    0.9794   -0.6221   -1.8963 H   0  0  0  0  0  0  0  0  0  0  0  0
    0.7508   -0.2960    0.2444 C   0  0  1  0  0  0  0  0  0  0  0  0
    1.5815   -0.9707    0.4797 H   0  0  0  0  0  0  0  0  0  0  0  0
    0.9977    1.1415    0.8210 C   0  0  0  0  0  0  0  0  0  0  0  0
    2.1524    1.5064    0.9855 O   0  0  0  0  0  0  0  0  0  0  0  0
    0.1365    2.2106    0.9773 N   0  0  0  0  0  0  0  0  0  0  0  0
    0.6525    3.0501    1.2300 H   0  0  0  0  0  0  0  0  0  0  0  0
   -1.1855    2.0755    1.5758 C   0  0  0  0  0  0  0  0  0  0  0  0
   -1.3034    2.8146    2.3744 H   0  0  0  0  0  0  0  0  0  0  0  0
   -1.9672    2.2509    0.8315 H   0  0  0  0  0  0  0  0  0  0  0  0
   -1.3269    1.0845    2.0180 H   0  0  0  0  0  0  0  0  0  0  0  0
  1  2  1  0  0  0  0
  2  3  1  0  0  0  0
  2  4  1  0  0  0  0
  2  5  1  0  0  0  0
  5  6  2  0  0  0  0
  5  7  1  0  0  0  0
  7  8  1  0  0  0  0
  7 17  1  0  0  0  0
  8  9  1  0  0  0  0
  8 10  1  0  0  0  0
  8 11  1  0  0  0  0
 11 12  1  0  0  0  0
 11 13  1  0  0  0  0
 11 14  1  0  0  0  0
 14 15  1  0  0  0  0
 14 16  1  0  0  0  0
 14 17  1  0  0  0  0
 17 18  1  0  0  0  0
 17 19  1  0  0  0  0
 19 20  2  0  0  0  0
 19 21  1  0  0  0  0
 21 22  1  0  0  0  0
 21 23  1  0  0  0  0
 23 24  1  0  0  0  0
 23 25  1  0  0  0  0
 23 26  1  0  0  0  0
M  END
$$$$

  -OEChem-11182114133D

 26 26  0     1  0  0  0  0  0999 V2000
   -1.1644   -4.3766    0.1865 H   0  0  0  0  0  0  0  0  0  0  0  0
   -1.6251   -3.4521   -0.1723 C   0  0  0  0  0  0  0  0  0  0  0  0
   -2.3553   -3.1196    0.5698 H   0  0  0  0  0  0  0  0  0  0  0  0
   -2.1410   -3.6559   -1.1137 H   0  0  0  0  0  0  0  0  0  0  0  0
   -0.5509   -2.3865   -0.3819 C   0  0  0  0  0  0  0  0  0  0  0  0
    0.4874   -2.7787   -0.9007 O   0  0  0  0  0  0  0  0  0  0  0  0
   -0.6715   -1.1472    0.2807 N   0  0  0  0  0  0  0  0  0  0  0  0
   -1.6485   -0.6098   -0.7225 C   0  0  0  0  0  0  0  0  0  0  0  0
   -2.5149   -0.2020   -0.1912 H   0  0  0  0  0  0  0  0  0  0  0  0
   -2.0600   -1.2690   -1.5052 H   0  0  0  0  0  0  0  0  0  0  0  0
   -0.8952    0.4898   -1.3866 C   0  0  0  0  0  0  0  0  0  0  0  0
   -1.2258    1.4633   -1.0144 H   0  0  0  0  0  0  0  0  0  0  0  0
   -1.0885    0.4857   -2.4642 H   0  0  0  0  0  0  0  0  0  0  0  0
    0.6017    0.2779   -1.1279 C   0  0  0  0  0  0  0  0  0  0  0  0
    1.1798    1.2060   -1.2284 H   0  0  0  0  0  0  0  0  0  0  0  0
    1.0064   -0.4177   -1.8703 H   0  0  0  0  0  0  0  0  0  0  0  0
    0.6468   -0.3937    0.2766 C   0  0  1  0  0  0  0  0  0  0  0  0
    1.5458   -0.9797    0.4978 H   0  0  0  0  0  0  0  0  0  0  0  0
    0.6112    0.9656    1.0396 C   0  0  0  0  0  0  0  0  0  0  0  0
    1.6647    1.5179    1.3326 O   0  0  0  0  0  0  0  0  0  0  0  0
   -0.5719    1.5862    1.4087 N   0  0  0  0  0  0  0  0  0  0  0  0
   -1.4179    1.0379    1.2863 H   0  0  0  0  0  0  0  0  0  0  0  0
   -0.6293    2.8095    2.1990 C   0  0  0  0  0  0  0  0  0  0  0  0
   -0.0898    3.6179    1.6941 H   0  0  0  0  0  0  0  0  0  0  0  0
   -1.6688    3.1228    2.3352 H   0  0  0  0  0  0  0  0  0  0  0  0
   -0.1819    2.6492    3.1856 H   0  0  0  0  0  0  0  0  0  0  0  0
  1  2  1  0  0  0  0
  2  3  1  0  0  0  0
  2  4  1  0  0  0  0
  2  5  1  0  0  0  0
  5  6  2  0  0  0  0
  5  7  1  0  0  0  0
  7  8  1  0  0  0  0
  7 17  1  0  0  0  0
  8  9  1  0  0  0  0
  8 10  1  0  0  0  0
  8 11  1  0  0  0  0
 11 12  1  0  0  0  0
 11 13  1  0  0  0  0
 11 14  1  0  0  0  0
 14 15  1  0  0  0  0
 14 16  1  0  0  0  0
 14 17  1  0  0  0  0
 17 18  1  0  0  0  0
 17 19  1  0  0  0  0
 19 20  2  0  0  0  0
 19 21  1  0  0  0  0
 21 22  1  0  0  0  0
 21 23  1  0  0  0  0
 23 24  1  0  0  0  0
 23 25  1  0  0  0  0
 23 26  1  0  0  0  0
M  END
$$$$

  -OEChem-11182114133D

 26 26  0     1  0  0  0  0  0999 V2000
   -1.2086   -4.3699    0.1761 H   0  0  0  0  0  0  0  0  0  0  0  0
   -1.6450   -3.4337   -0.1828 C   0  0  0  0  0  0  0  0  0  0  0  0
   -2.3748   -3.0885    0.5540 H   0  0  0  0  0  0  0  0  0  0  0  0
   -2.1558   -3.6221   -1.1303 H   0  0  0  0  0  0  0  0  0  0  0  0
   -0.5456   -2.3912   -0.3774 C   0  0  0  0  0  0  0  0  0  0  0  0
    0.4947   -2.8076   -0.8724 O   0  0  0  0  0  0  0  0  0  0  0  0
   -0.6508   -1.1439    0.2725 N   0  0  0  0  0  0  0  0  0  0  0  0
   -1.6307   -0.5900   -0.7135 C   0  0  0  0  0  0  0  0  0  0  0  0
   -2.4898   -0.1767   -0.1745 H   0  0  0  0  0  0  0  0  0  0  0  0
   -2.0486   -1.2431   -1.4969 H   0  0  0  0  0  0  0  0  0  0  0  0
   -0.8683    0.5016   -1.3755 C   0  0  0  0  0  0  0  0  0  0  0  0
   -1.1730    1.4706   -0.9670 H   0  0  0  0  0  0  0  0  0  0  0  0
   -1.0805    0.5241   -2.4493 H   0  0  0  0  0  0  0  0  0  0  0  0
    0.6289    0.2695   -1.1373 C   0  0  0  0  0  0  0  0  0  0  0  0
    1.2198    1.1872   -1.2543 H   0  0  0  0  0  0  0  0  0  0  0  0
    1.0109   -0.4340   -1.8843 H   0  0  0  0  0  0  0  0  0  0  0  0
    0.6789   -0.4104    0.2646 C   0  0  1  0  0  0  0  0  0  0  0  0
    1.5749   -0.9997    0.4882 H   0  0  0  0  0  0  0  0  0  0  0  0
    0.6398    0.9546    1.0160 C   0  0  0  0  0  0  0  0  0  0  0  0
    1.6628    1.6108    1.1781 O   0  0  0  0  0  0  0  0  0  0  0  0
   -0.5267    1.4010    1.6154 N   0  0  0  0  0  0  0  0  0  0  0  0
   -1.3064    0.7493    1.6063 H   0  0  0  0  0  0  0  0  0  0  0  0
   -0.5943    2.5784    2.4717 C   0  0  0  0  0  0  0  0  0  0  0  0
   -0.2540    3.4669    1.9294 H   0  0  0  0  0  0  0  0  0  0  0  0
   -1.6243    2.7488    2.7994 H   0  0  0  0  0  0  0  0  0  0  0  0
    0.0349    2.4440    3.3578 H   0  0  0  0  0  0  0  0  0  0  0  0
  1  2  1  0  0  0  0
  2  3  1  0  0  0  0
  2  4  1  0  0  0  0
  2  5  1  0  0  0  0
  5  6  2  0  0  0  0
  5  7  1  0  0  0  0
  7  8  1  0  0  0  0
  7 17  1  0  0  0  0
  8  9  1  0  0  0  0
  8 10  1  0  0  0  0
  8 11  1  0  0  0  0
 11 12  1  0  0  0  0
 11 13  1  0  0  0  0
 11 14  1  0  0  0  0
 14 15  1  0  0  0  0
 14 16  1  0  0  0  0
 14 17  1  0  0  0  0
 17 18  1  0  0  0  0
 17 19  1  0  0  0  0
 19 20  2  0  0  0  0
 19 21  1  0  0  0  0
 21 22  1  0  0  0  0
 21 23  1  0  0  0  0
 23 24  1  0  0  0  0
 23 25  1  0  0  0  0
 23 26  1  0  0  0  0
M  END
$$$$

  -OEChem-11182114133D

 26 26  0     1  0  0  0  0  0999 V2000
   -1.2189   -4.3543    0.1874 H   0  0  0  0  0  0  0  0  0  0  0  0
   -1.6485   -3.4149   -0.1711 C   0  0  0  0  0  0  0  0  0  0  0  0
   -2.3683   -3.0594    0.5705 H   0  0  0  0  0  0  0  0  0  0  0  0
   -2.1696   -3.6012   -1.1132 H   0  0  0  0  0  0  0  0  0  0  0  0
   -0.5397   -2.3846   -0.3789 C   0  0  0  0  0  0  0  0  0  0  0  0
    0.4965   -2.8170   -0.8689 O   0  0  0  0  0  0  0  0  0  0  0  0
   -0.6277   -1.1316    0.2622 N   0  0  0  0  0  0  0  0  0  0  0  0
   -1.6221   -0.5732   -0.7023 C   0  0  0  0  0  0  0  0  0  0  0  0
   -2.4657   -0.1489   -0.1475 H   0  0  0  0  0  0  0  0  0  0  0  0
   -2.0600   -1.2260   -1.4746 H   0  0  0  0  0  0  0  0  0  0  0  0
   -0.8598    0.5060   -1.3804 C   0  0  0  0  0  0  0  0  0  0  0  0
   -1.1450    1.4762   -0.9598 H   0  0  0  0  0  0  0  0  0  0  0  0
   -1.0939    0.5338   -2.4494 H   0  0  0  0  0  0  0  0  0  0  0  0
    0.6401    0.2644   -1.1695 C   0  0  0  0  0  0  0  0  0  0  0  0
    1.2369    1.1735   -1.3128 H   0  0  0  0  0  0  0  0  0  0  0  0
    0.9997   -0.4498   -1.9174 H   0  0  0  0  0  0  0  0  0  0  0  0
    0.7088   -0.4094    0.2360 C   0  0  1  0  0  0  0  0  0  0  0  0
    1.6061   -0.9975    0.4566 H   0  0  0  0  0  0  0  0  0  0  0  0
    0.6593    0.9590    0.9835 C   0  0  0  0  0  0  0  0  0  0  0  0
    1.6236    1.7171    1.0200 O   0  0  0  0  0  0  0  0  0  0  0  0
   -0.4073    1.2299    1.8235 N   0  0  0  0  0  0  0  0  0  0  0  0
   -1.1108    0.4998    1.8971 H   0  0  0  0  0  0  0  0  0  0  0  0
   -0.4528    2.3594    2.7435 C   0  0  0  0  0  0  0  0  0  0  0  0
   -0.3625    3.3034    2.1959 H   0  0  0  0  0  0  0  0  0  0  0  0
   -1.4025    2.3658    3.2868 H   0  0  0  0  0  0  0  0  0  0  0  0
    0.3629    2.2940    3.4712 H   0  0  0  0  0  0  0  0  0  0  0  0
  1  2  1  0  0  0  0
  2  3  1  0  0  0  0
  2  4  1  0  0  0  0
  2  5  1  0  0  0  0
  5  6  2  0  0  0  0
  5  7  1  0  0  0  0
  7  8  1  0  0  0  0
  7 17  1  0  0  0  0
  8  9  1  0  0  0  0
  8 10  1  0  0  0  0
  8 11  1  0  0  0  0
 11 12  1  0  0  0  0
 11 13  1  0  0  0  0
 11 14  1  0  0  0  0
 14 15  1  0  0  0  0
 14 16  1  0  0  0  0
 14 17  1  0  0  0  0
 17 18  1  0  0  0  0
 17 19  1  0  0  0  0
 19 20  2  0  0  0  0
 19 21  1  0  0  0  0
 21 22  1  0  0  0  0
 21 23  1  0  0  0  0
 23 24  1  0  0  0  0
 23 25  1  0  0  0  0
 23 26  1  0  0  0  0
M  END
$$$$

  -OEChem-11182114133D

 26 26  0     1  0  0  0  0  0999 V2000
   -1.2271   -4.3278    0.2123 H   0  0  0  0  0  0  0  0  0  0  0  0
   -1.6526   -3.3921   -0.1604 C   0  0  0  0  0  0  0  0  0  0  0  0
   -2.3716   -3.0231    0.5755 H   0  0  0  0  0  0  0  0  0  0  0  0
   -2.1737   -3.5906   -1.1001 H   0  0  0  0  0  0  0  0  0  0  0  0
   -0.5391   -2.3695   -0.3830 C   0  0  0  0  0  0  0  0  0  0  0  0
    0.4932   -2.8172   -0.8673 O   0  0  0  0  0  0  0  0  0  0  0  0
   -0.6103   -1.1145    0.2573 N   0  0  0  0  0  0  0  0  0  0  0  0
   -1.6177   -0.5555   -0.6913 C   0  0  0  0  0  0  0  0  0  0  0  0
   -2.4425   -0.1125   -0.1224 H   0  0  0  0  0  0  0  0  0  0  0  0
   -2.0821   -1.2094   -1.4468 H   0  0  0  0  0  0  0  0  0  0  0  0
   -0.8535    0.5050   -1.3933 C   0  0  0  0  0  0  0  0  0  0  0  0
   -1.1218    1.4829   -0.9790 H   0  0  0  0  0  0  0  0  0  0  0  0
   -1.1046    0.5235   -2.4587 H   0  0  0  0  0  0  0  0  0  0  0  0
    0.6483    0.2548   -1.2044 C   0  0  0  0  0  0  0  0  0  0  0  0
    1.2516    1.1532   -1.3773 H   0  0  0  0  0  0  0  0  0  0  0  0
    0.9881   -0.4737   -1.9478 H   0  0  0  0  0  0  0  0  0  0  0  0
    0.7319   -0.4027    0.2101 C   0  0  1  0  0  0  0  0  0  0  0  0
    1.6289   -0.9911    0.4304 H   0  0  0  0  0  0  0  0  0  0  0  0
    0.6705    0.9644    0.9652 C   0  0  0  0  0  0  0  0  0  0  0  0
    1.5337    1.8327    0.8701 O   0  0  0  0  0  0  0  0  0  0  0  0
   -0.2123    1.0737    2.0254 N   0  0  0  0  0  0  0  0  0  0  0  0
   -0.8264    0.2781    2.1794 H   0  0  0  0  0  0  0  0  0  0  0  0
   -0.2227    2.1794    2.9751 C   0  0  0  0  0  0  0  0  0  0  0  0
   -0.3718    3.1308    2.4538 H   0  0  0  0  0  0  0  0  0  0  0  0
   -1.0355    2.0501    3.6961 H   0  0  0  0  0  0  0  0  0  0  0  0
    0.7241    2.2218    3.5236 H   0  0  0  0  0  0  0  0  0  0  0  0
  1  2  1  0  0  0  0
  2  3  1  0  0  0  0
  2  4  1  0  0  0  0
  2  5  1  0  0  0  0
  5  6  2  0  0  0  0
  5  7  1  0  0  0  0
  7  8  1  0  0  0  0
  7 17  1  0  0  0  0
  8  9  1  0  0  0  0
  8 10  1  0  0  0  0
  8 11  1  0  0  0  0
 11 12  1  0  0  0  0
 11 13  1  0  0  0  0
 11 14  1  0  0  0  0
 14 15  1  0  0  0  0
 14 16  1  0  0  0  0
 14 17  1  0  0  0  0
 17 18  1  0  0  0  0
 17 19  1  0  0  0  0
 19 20  2  0  0  0  0
 19 21  1  0  0  0  0
 21 22  1  0  0  0  0
 21 23  1  0  0  0  0
 23 24  1  0  0  0  0
 23 25  1  0  0  0  0
 23 26  1  0  0  0  0
M  END
$$$$

  -OEChem-11182114133D

 26 26  0     1  0  0  0  0  0999 V2000
   -1.2496   -4.2957    0.2300 H   0  0  0  0  0  0  0  0  0  0  0  0
   -1.6687   -3.3592   -0.1483 C   0  0  0  0  0  0  0  0  0  0  0  0
   -2.3806   -2.9776    0.5882 H   0  0  0  0  0  0  0  0  0  0  0  0
   -2.1967   -3.5613   -1.0835 H   0  0  0  0  0  0  0  0  0  0  0  0
   -0.5471   -2.3481   -0.3862 C   0  0  0  0  0  0  0  0  0  0  0  0
    0.4779   -2.8146   -0.8687 O   0  0  0  0  0  0  0  0  0  0  0  0
   -0.5928   -1.0937    0.2593 N   0  0  0  0  0  0  0  0  0  0  0  0
   -1.6083   -0.5311   -0.6792 C   0  0  0  0  0  0  0  0  0  0  0  0
   -2.4127   -0.0648   -0.0998 H   0  0  0  0  0  0  0  0  0  0  0  0
   -2.1030   -1.1829   -1.4174 H   0  0  0  0  0  0  0  0  0  0  0  0
   -0.8372    0.5055   -1.4081 C   0  0  0  0  0  0  0  0  0  0  0  0
   -1.0858    1.4938   -1.0058 H   0  0  0  0  0  0  0  0  0  0  0  0
   -1.1035    0.5110   -2.4700 H   0  0  0  0  0  0  0  0  0  0  0  0
    0.6650    0.2411   -1.2386 C   0  0  0  0  0  0  0  0  0  0  0  0
    1.2830    1.1222   -1.4402 H   0  0  0  0  0  0  0  0  0  0  0  0
    0.9820   -0.5055   -1.9738 H   0  0  0  0  0  0  0  0  0  0  0  0
    0.7562   -0.3957    0.1853 C   0  0  1  0  0  0  0  0  0  0  0  0
    1.6500   -0.9885    0.4060 H   0  0  0  0  0  0  0  0  0  0  0  0
    0.6843    0.9661    0.9595 C   0  0  0  0  0  0  0  0  0  0  0  0
    1.3617    1.9640    0.7231 O   0  0  0  0  0  0  0  0  0  0  0  0
    0.0617    0.9360    2.1951 N   0  0  0  0  0  0  0  0  0  0  0  0
   -0.4321    0.0786    2.4284 H   0  0  0  0  0  0  0  0  0  0  0  0
    0.0627    2.0402    3.1474 C   0  0  0  0  0  0  0  0  0  0  0  0
   -0.3854    2.9331    2.6992 H   0  0  0  0  0  0  0  0  0  0  0  0
   -0.5159    1.7718    4.0364 H   0  0  0  0  0  0  0  0  0  0  0  0
    1.0854    2.2767    3.4594 H   0  0  0  0  0  0  0  0  0  0  0  0
  1  2  1  0  0  0  0
  2  3  1  0  0  0  0
  2  4  1  0  0  0  0
  2  5  1  0  0  0  0
  5  6  2  0  0  0  0
  5  7  1  0  0  0  0
  7  8  1  0  0  0  0
  7 17  1  0  0  0  0
  8  9  1  0  0  0  0
  8 10  1  0  0  0  0
  8 11  1  0  0  0  0
 11 12  1  0  0  0  0
 11 13  1  0  0  0  0
 11 14  1  0  0  0  0
 14 15  1  0  0  0  0
 14 16  1  0  0  0  0
 14 17  1  0  0  0  0
 17 18  1  0  0  0  0
 17 19  1  0  0  0  0
 19 20  2  0  0  0  0
 19 21  1  0  0  0  0
 21 22  1  0  0  0  0
 21 23  1  0  0  0  0
 23 24  1  0  0  0  0
 23 25  1  0  0  0  0
 23 26  1  0  0  0  0
M  END
$$$$

  -OEChem-11182114133D

 26 26  0     1  0  0  0  0  0999 V2000
   -1.2863   -4.2642    0.2474 H   0  0  0  0  0  0  0  0  0  0  0  0
   -1.6942   -3.3242   -0.1344 C   0  0  0  0  0  0  0  0  0  0  0  0
   -2.3990   -2.9299    0.6023 H   0  0  0  0  0  0  0  0  0  0  0  0
   -2.2275   -3.5241   -1.0671 H   0  0  0  0  0  0  0  0  0  0  0  0
   -0.5602   -2.3280   -0.3815 C   0  0  0  0  0  0  0  0  0  0  0  0
    0.4569   -2.8159   -0.8605 O   0  0  0  0  0  0  0  0  0  0  0  0
   -0.5773   -1.0748    0.2691 N   0  0  0  0  0  0  0  0  0  0  0  0
   -1.5962   -0.5074   -0.6657 C   0  0  0  0  0  0  0  0  0  0  0  0
   -2.3803   -0.0154   -0.0800 H   0  0  0  0  0  0  0  0  0  0  0  0
   -2.1201   -1.1553   -1.3874 H   0  0  0  0  0  0  0  0  0  0  0  0
   -0.8162    0.5034   -1.4209 C   0  0  0  0  0  0  0  0  0  0  0  0
   -1.0483    1.5023   -1.0356 H   0  0  0  0  0  0  0  0  0  0  0  0
   -1.0950    0.4935   -2.4793 H   0  0  0  0  0  0  0  0  0  0  0  0
    0.6860    0.2219   -1.2669 C   0  0  0  0  0  0  0  0  0  0  0  0
    1.3234    1.0850   -1.4848 H   0  0  0  0  0  0  0  0  0  0  0  0
    0.9817   -0.5405   -1.9945 H   0  0  0  0  0  0  0  0  0  0  0  0
    0.7775   -0.3923    0.1653 C   0  0  1  0  0  0  0  0  0  0  0  0
    1.6669   -0.9920    0.3857 H   0  0  0  0  0  0  0  0  0  0  0  0
    0.7078    0.9652    0.9584 C   0  0  0  0  0  0  0  0  0  0  0  0
    1.0730    2.0806    0.5898 O   0  0  0  0  0  0  0  0  0  0  0  0
    0.4069    0.8490    2.3045 N   0  0  0  0  0  0  0  0  0  0  0  0
    0.1043   -0.0679    2.6218 H   0  0  0  0  0  0  0  0  0  0  0  0
    0.3830    1.9661    3.2420 C   0  0  0  0  0  0  0  0  0  0  0  0
   -0.3513    2.7148    2.9267 H   0  0  0  0  0  0  0  0  0  0  0  0
    0.1115    1.6143    4.2419 H   0  0  0  0  0  0  0  0  0  0  0  0
    1.3686    2.4403    3.2993 H   0  0  0  0  0  0  0  0  0  0  0  0
  1  2  1  0  0  0  0
  2  3  1  0  0  0  0
  2  4  1  0  0  0  0
  2  5  1  0  0  0  0
  5  6  2  0  0  0  0
  5  7  1  0  0  0  0
  7  8  1  0  0  0  0
  7 17  1  0  0  0  0
  8  9  1  0  0  0  0
  8 10  1  0  0  0  0
  8 11  1  0  0  0  0
 11 12  1  0  0  0  0
 11 13  1  0  0  0  0
 11 14  1  0  0  0  0
 14 15  1  0  0  0  0
 14 16  1  0  0  0  0
 14 17  1  0  0  0  0
 17 18  1  0  0  0  0
 17 19  1  0  0  0  0
 19 20  2  0  0  0  0
 19 21  1  0  0  0  0
 21 22  1  0  0  0  0
 21 23  1  0  0  0  0
 23 24  1  0  0  0  0
 23 25  1  0  0  0  0
 23 26  1  0  0  0  0
M  END
$$$$

  -OEChem-11182114133D

 26 26  0     1  0  0  0  0  0999 V2000
   -1.3012   -4.2415    0.2739 H   0  0  0  0  0  0  0  0  0  0  0  0
   -1.7106   -3.3089   -0.1241 C   0  0  0  0  0  0  0  0  0  0  0  0
   -2.4185   -2.9049    0.6043 H   0  0  0  0  0  0  0  0  0  0  0  0
   -2.2409   -3.5248   -1.0549 H   0  0  0  0  0  0  0  0  0  0  0  0
   -0.5781   -2.3140   -0.3833 C   0  0  0  0  0  0  0  0  0  0  0  0
    0.4387   -2.8079   -0.8575 O   0  0  0  0  0  0  0  0  0  0  0  0
   -0.5923   -1.0611    0.2680 N   0  0  0  0  0  0  0  0  0  0  0  0
   -1.6028   -0.5000   -0.6815 C   0  0  0  0  0  0  0  0  0  0  0  0
   -2.3855    0.0046   -0.1045 H   0  0  0  0  0  0  0  0  0  0  0  0
   -2.1311   -1.1505   -1.3982 H   0  0  0  0  0  0  0  0  0  0  0  0
   -0.8132    0.4980   -1.4426 C   0  0  0  0  0  0  0  0  0  0  0  0
   -1.0564    1.5033   -1.0837 H   0  0  0  0  0  0  0  0  0  0  0  0
   -1.0778    0.4672   -2.5043 H   0  0  0  0  0  0  0  0  0  0  0  0
    0.6889    0.2129   -1.2692 C   0  0  0  0  0  0  0  0  0  0  0  0
    1.3330    1.0747   -1.4761 H   0  0  0  0  0  0  0  0  0  0  0  0
    0.9929   -0.5539   -1.9887 H   0  0  0  0  0  0  0  0  0  0  0  0
    0.7656   -0.3844    0.1701 C   0  0  1  0  0  0  0  0  0  0  0  0
    1.6481   -0.9938    0.3911 H   0  0  0  0  0  0  0  0  0  0  0  0
    0.7230    0.9787    0.9607 C   0  0  0  0  0  0  0  0  0  0  0  0
    0.7877    2.1329    0.5369 O   0  0  0  0  0  0  0  0  0  0  0  0
    0.7525    0.8480    2.3385 N   0  0  0  0  0  0  0  0  0  0  0  0
    0.6599   -0.0944    2.7069 H   0  0  0  0  0  0  0  0  0  0  0  0
    0.7556    1.9700    3.2706 C   0  0  0  0  0  0  0  0  0  0  0  0
   -0.1469    2.5768    3.1431 H   0  0  0  0  0  0  0  0  0  0  0  0
    0.7840    1.6041    4.3013 H   0  0  0  0  0  0  0  0  0  0  0  0
    1.6336    2.6032    3.1058 H   0  0  0  0  0  0  0  0  0  0  0  0
  1  2  1  0  0  0  0
  2  3  1  0  0  0  0
  2  4  1  0  0  0  0
  2  5  1  0  0  0  0
  5  6  2  0  0  0  0
  5  7  1  0  0  0  0
  7  8  1  0  0  0  0
  7 17  1  0  0  0  0
  8  9  1  0  0  0  0
  8 10  1  0  0  0  0
  8 11  1  0  0  0  0
 11 12  1  0  0  0  0
 11 13  1  0  0  0  0
 11 14  1  0  0  0  0
 14 15  1  0  0  0  0
 14 16  1  0  0  0  0
 14 17  1  0  0  0  0
 17 18  1  0  0  0  0
 17 19  1  0  0  0  0
 19 20  2  0  0  0  0
 19 21  1  0  0  0  0
 21 22  1  0  0  0  0
 21 23  1  0  0  0  0
 23 24  1  0  0  0  0
 23 25  1  0  0  0  0
 23 26  1  0  0  0  0
M  END
$$$$

  -OEChem-11182114133D

 26 26  0     1  0  0  0  0  0999 V2000
   -1.3210   -4.2364    0.2787 H   0  0  0  0  0  0  0  0  0  0  0  0
   -1.7264   -3.3099   -0.1370 C   0  0  0  0  0  0  0  0  0  0  0  0
   -2.4544   -2.9046    0.5707 H   0  0  0  0  0  0  0  0  0  0  0  0
   -2.2328   -3.5371   -1.0784 H   0  0  0  0  0  0  0  0  0  0  0  0
   -0.5944   -2.3094   -0.3777 C   0  0  0  0  0  0  0  0  0  0  0  0
    0.4336   -2.8018   -0.8295 O   0  0  0  0  0  0  0  0  0  0  0  0
   -0.6274   -1.0543    0.2697 N   0  0  0  0  0  0  0  0  0  0  0  0
   -1.6223   -0.5075   -0.7052 C   0  0  0  0  0  0  0  0  0  0  0  0
   -2.4170   -0.0010   -0.1469 H   0  0  0  0  0  0  0  0  0  0  0  0
   -2.1366   -1.1648   -1.4259 H   0  0  0  0  0  0  0  0  0  0  0  0
   -0.8246    0.4875   -1.4589 C   0  0  0  0  0  0  0  0  0  0  0  0
   -1.0963    1.4954   -1.1330 H   0  0  0  0  0  0  0  0  0  0  0  0
   -1.0591    0.4323   -2.5266 H   0  0  0  0  0  0  0  0  0  0  0  0
    0.6760    0.2107   -1.2447 C   0  0  0  0  0  0  0  0  0  0  0  0
    1.3130    1.0834   -1.4313 H   0  0  0  0  0  0  0  0  0  0  0  0
    1.0067   -0.5538   -1.9547 H   0  0  0  0  0  0  0  0  0  0  0  0
    0.7318   -0.3739    0.2018 C   0  0  1  0  0  0  0  0  0  0  0  0
    1.6065   -0.9937    0.4249 H   0  0  0  0  0  0  0  0  0  0  0  0
    0.7385    1.0024    0.9712 C   0  0  0  0  0  0  0  0  0  0  0  0
    0.5200    2.1413    0.5579 O   0  0  0  0  0  0  0  0  0  0  0  0
    1.0888    0.9145    2.3079 N   0  0  0  0  0  0  0  0  0  0  0  0
    1.2167   -0.0193    2.6869 H   0  0  0  0  0  0  0  0  0  0  0  0
    1.1460    2.0537    3.2178 C   0  0  0  0  0  0  0  0  0  0  0  0
    0.1640    2.5319    3.2955 H   0  0  0  0  0  0  0  0  0  0  0  0
    1.4503    1.7247    4.2160 H   0  0  0  0  0  0  0  0  0  0  0  0
    1.8716    2.7929    2.8623 H   0  0  0  0  0  0  0  0  0  0  0  0
  1  2  1  0  0  0  0
  2  3  1  0  0  0  0
  2  4  1  0  0  0  0
  2  5  1  0  0  0  0
  5  6  2  0  0  0  0
  5  7  1  0  0  0  0
  7  8  1  0  0  0  0
  7 17  1  0  0  0  0
  8  9  1  0  0  0  0
  8 10  1  0  0  0  0
  8 11  1  0  0  0  0
 11 12  1  0  0  0  0
 11 13  1  0  0  0  0
 11 14  1  0  0  0  0
 14 15  1  0  0  0  0
 14 16  1  0  0  0  0
 14 17  1  0  0  0  0
 17 18  1  0  0  0  0
 17 19  1  0  0  0  0
 19 20  2  0  0  0  0
 19 21  1  0  0  0  0
 21 22  1  0  0  0  0
 21 23  1  0  0  0  0
 23 24  1  0  0  0  0
 23 25  1  0  0  0  0
 23 26  1  0  0  0  0
M  END
$$$$

  -OEChem-11182114133D

 26 26  0     1  0  0  0  0  0999 V2000
   -1.3386   -4.2275    0.3041 H   0  0  0  0  0  0  0  0  0  0  0  0
   -1.7415   -3.3059   -0.1248 C   0  0  0  0  0  0  0  0  0  0  0  0
   -2.4790   -2.8963    0.5705 H   0  0  0  0  0  0  0  0  0  0  0  0
   -2.2354   -3.5424   -1.0705 H   0  0  0  0  0  0  0  0  0  0  0  0
   -0.6101   -2.3037   -0.3599 C   0  0  0  0  0  0  0  0  0  0  0  0
    0.4256   -2.7945   -0.7969 O   0  0  0  0  0  0  0  0  0  0  0  0
   -0.6617   -1.0414    0.2714 N   0  0  0  0  0  0  0  0  0  0  0  0
   -1.6342   -0.5096   -0.7355 C   0  0  0  0  0  0  0  0  0  0  0  0
   -2.4449   -0.0026   -0.2010 H   0  0  0  0  0  0  0  0  0  0  0  0
   -2.1274   -1.1775   -1.4613 H   0  0  0  0  0  0  0  0  0  0  0  0
   -0.8263    0.4845   -1.4792 C   0  0  0  0  0  0  0  0  0  0  0  0
   -1.1221    1.4959   -1.1899 H   0  0  0  0  0  0  0  0  0  0  0  0
   -1.0266    0.4044   -2.5522 H   0  0  0  0  0  0  0  0  0  0  0  0
    0.6682    0.2133   -1.2175 C   0  0  0  0  0  0  0  0  0  0  0  0
    1.2948    1.0984   -1.3827 H   0  0  0  0  0  0  0  0  0  0  0  0
    1.0272   -0.5488   -1.9164 H   0  0  0  0  0  0  0  0  0  0  0  0
    0.6984   -0.3598    0.2348 C   0  0  1  0  0  0  0  0  0  0  0  0
    1.5623   -0.9921    0.4650 H   0  0  0  0  0  0  0  0  0  0  0  0
    0.7601    1.0321    0.9677 C   0  0  0  0  0  0  0  0  0  0  0  0
    0.2457    2.1028    0.6505 O   0  0  0  0  0  0  0  0  0  0  0  0
    1.4050    1.0226    2.1934 N   0  0  0  0  0  0  0  0  0  0  0  0
    1.7497    0.1265    2.5253 H   0  0  0  0  0  0  0  0  0  0  0  0
    1.4837    2.1750    3.0853 C   0  0  0  0  0  0  0  0  0  0  0  0
    0.4824    2.4803    3.4065 H   0  0  0  0  0  0  0  0  0  0  0  0
    2.0710    1.9254    3.9740 H   0  0  0  0  0  0  0  0  0  0  0  0
    1.9653    3.0191    2.5807 H   0  0  0  0  0  0  0  0  0  0  0  0
  1  2  1  0  0  0  0
  2  3  1  0  0  0  0
  2  4  1  0  0  0  0
  2  5  1  0  0  0  0
  5  6  2  0  0  0  0
  5  7  1  0  0  0  0
  7  8  1  0  0  0  0
  7 17  1  0  0  0  0
  8  9  1  0  0  0  0
  8 10  1  0  0  0  0
  8 11  1  0  0  0  0
 11 12  1  0  0  0  0
 11 13  1  0  0  0  0
 11 14  1  0  0  0  0
 14 15  1  0  0  0  0
 14 16  1  0  0  0  0
 14 17  1  0  0  0  0
 17 18  1  0  0  0  0
 17 19  1  0  0  0  0
 19 20  2  0  0  0  0
 19 21  1  0  0  0  0
 21 22  1  0  0  0  0
 21 23  1  0  0  0  0
 23 24  1  0  0  0  0
 23 25  1  0  0  0  0
 23 26  1  0  0  0  0
M  END
$$$$

  -OEChem-11182114133D

 26 26  0     1  0  0  0  0  0999 V2000
   -1.3618   -4.2189    0.3358 H   0  0  0  0  0  0  0  0  0  0  0  0
   -1.7565   -3.2931   -0.0915 C   0  0  0  0  0  0  0  0  0  0  0  0
   -2.4902   -2.8778    0.6043 H   0  0  0  0  0  0  0  0  0  0  0  0
   -2.2529   -3.5235   -1.0373 H   0  0  0  0  0  0  0  0  0  0  0  0
   -0.6172   -2.2997   -0.3235 C   0  0  0  0  0  0  0  0  0  0  0  0
    0.4228   -2.7944   -0.7464 O   0  0  0  0  0  0  0  0  0  0  0  0
   -0.6776   -1.0242    0.2773 N   0  0  0  0  0  0  0  0  0  0  0  0
   -1.6295   -0.5049   -0.7568 C   0  0  0  0  0  0  0  0  0  0  0  0
   -2.4549    0.0024   -0.2454 H   0  0  0  0  0  0  0  0  0  0  0  0
   -2.1008   -1.1845   -1.4859 H   0  0  0  0  0  0  0  0  0  0  0  0
   -0.8135    0.4885   -1.4963 C   0  0  0  0  0  0  0  0  0  0  0  0
   -1.1135    1.5036   -1.2256 H   0  0  0  0  0  0  0  0  0  0  0  0
   -0.9945    0.3958   -2.5717 H   0  0  0  0  0  0  0  0  0  0  0  0
    0.6734    0.2195   -1.2047 C   0  0  0  0  0  0  0  0  0  0  0  0
    1.2946    1.1103   -1.3625 H   0  0  0  0  0  0  0  0  0  0  0  0
    1.0476   -0.5460   -1.8920 H   0  0  0  0  0  0  0  0  0  0  0  0
    0.6814   -0.3431    0.2509 C   0  0  1  0  0  0  0  0  0  0  0  0
    1.5382   -0.9782    0.4985 H   0  0  0  0  0  0  0  0  0  0  0  0
    0.7645    1.0635    0.9410 C   0  0  0  0  0  0  0  0  0  0  0  0
   -0.0194    2.0001    0.8143 O   0  0  0  0  0  0  0  0  0  0  0  0
    1.6597    1.1712    1.9929 N   0  0  0  0  0  0  0  0  0  0  0  0
    2.2169    0.3506    2.2119 H   0  0  0  0  0  0  0  0  0  0  0  0
    1.7325    2.3223    2.8867 C   0  0  0  0  0  0  0  0  0  0  0  0
    0.8031    2.4232    3.4569 H   0  0  0  0  0  0  0  0  0  0  0  0
    2.5607    2.2014    3.5914 H   0  0  0  0  0  0  0  0  0  0  0  0
    1.8982    3.2424    2.3163 H   0  0  0  0  0  0  0  0  0  0  0  0
  1  2  1  0  0  0  0
  2  3  1  0  0  0  0
  2  4  1  0  0  0  0
  2  5  1  0  0  0  0
  5  6  2  0  0  0  0
  5  7  1  0  0  0  0
  7  8  1  0  0  0  0
  7 17  1  0  0  0  0
  8  9  1  0  0  0  0
  8 10  1  0  0  0  0
  8 11  1  0  0  0  0
 11 12  1  0  0  0  0
 11 13  1  0  0  0  0
 11 14  1  0  0  0  0
 14 15  1  0  0  0  0
 14 16  1  0  0  0  0
 14 17  1  0  0  0  0
 17 18  1  0  0  0  0
 17 19  1  0  0  0  0
 19 20  2  0  0  0  0
 19 21  1  0  0  0  0
 21 22  1  0  0  0  0
 21 23  1  0  0  0  0
 23 24  1  0  0  0  0
 23 25  1  0  0  0  0
 23 26  1  0  0  0  0
M  END
$$$$

  -OEChem-11182114133D

 26 26  0     1  0  0  0  0  0999 V2000
   -1.3603   -4.2131    0.3736 H   0  0  0  0  0  0  0  0  0  0  0  0
   -1.7529   -3.2914   -0.0643 C   0  0  0  0  0  0  0  0  0  0  0  0
   -2.4911   -2.8695    0.6228 H   0  0  0  0  0  0  0  0  0  0  0  0
   -2.2433   -3.5300   -1.0112 H   0  0  0  0  0  0  0  0  0  0  0  0
   -0.6126   -2.3005   -0.2973 C   0  0  0  0  0  0  0  0  0  0  0  0
    0.4296   -2.7913   -0.7200 O   0  0  0  0  0  0  0  0  0  0  0  0
   -0.6819   -1.0168    0.2813 N   0  0  0  0  0  0  0  0  0  0  0  0
   -1.6235   -0.5017   -0.7635 C   0  0  0  0  0  0  0  0  0  0  0  0
   -2.4630   -0.0056   -0.2642 H   0  0  0  0  0  0  0  0  0  0  0  0
   -2.0722   -1.1888   -1.4993 H   0  0  0  0  0  0  0  0  0  0  0  0
   -0.8076    0.5031   -1.4929 C   0  0  0  0  0  0  0  0  0  0  0  0
   -1.1041    1.5154   -1.2052 H   0  0  0  0  0  0  0  0  0  0  0  0
   -0.9855    0.4243   -2.5699 H   0  0  0  0  0  0  0  0  0  0  0  0
    0.6760    0.2386   -1.1936 C   0  0  0  0  0  0  0  0  0  0  0  0
    1.2965    1.1310   -1.3482 H   0  0  0  0  0  0  0  0  0  0  0  0
    1.0545   -0.5265   -1.8791 H   0  0  0  0  0  0  0  0  0  0  0  0
    0.6716   -0.3304    0.2574 C   0  0  1  0  0  0  0  0  0  0  0  0
    1.5302   -0.9566    0.5206 H   0  0  0  0  0  0  0  0  0  0  0  0
    0.7324    1.0841    0.9238 C   0  0  0  0  0  0  0  0  0  0  0  0
   -0.2056    1.8732    0.9975 O   0  0  0  0  0  0  0  0  0  0  0  0
    1.8101    1.3384    1.7562 N   0  0  0  0  0  0  0  0  0  0  0  0
    2.5215    0.6169    1.8278 H   0  0  0  0  0  0  0  0  0  0  0  0
    1.9033    2.5013    2.6325 C   0  0  0  0  0  0  0  0  0  0  0  0
    1.1105    2.4760    3.3876 H   0  0  0  0  0  0  0  0  0  0  0  0
    2.8700    2.5116    3.1448 H   0  0  0  0  0  0  0  0  0  0  0  0
    1.8107    3.4266    2.0541 H   0  0  0  0  0  0  0  0  0  0  0  0
  1  2  1  0  0  0  0
  2  3  1  0  0  0  0
  2  4  1  0  0  0  0
  2  5  1  0  0  0  0
  5  6  2  0  0  0  0
  5  7  1  0  0  0  0
  7  8  1  0  0  0  0
  7 17  1  0  0  0  0
  8  9  1  0  0  0  0
  8 10  1  0  0  0  0
  8 11  1  0  0  0  0
 11 12  1  0  0  0  0
 11 13  1  0  0  0  0
 11 14  1  0  0  0  0
 14 15  1  0  0  0  0
 14 16  1  0  0  0  0
 14 17  1  0  0  0  0
 17 18  1  0  0  0  0
 17 19  1  0  0  0  0
 19 20  2  0  0  0  0
 19 21  1  0  0  0  0
 21 22  1  0  0  0  0
 21 23  1  0  0  0  0
 23 24  1  0  0  0  0
 23 25  1  0  0  0  0
 23 26  1  0  0  0  0
M  END
$$$$

  -OEChem-11182114133D

 26 26  0     1  0  0  0  0  0999 V2000
   -1.3454   -4.2283    0.3631 H   0  0  0  0  0  0  0  0  0  0  0  0
   -1.7402   -3.3009   -0.0606 C   0  0  0  0  0  0  0  0  0  0  0  0
   -2.4778   -2.8901    0.6339 H   0  0  0  0  0  0  0  0  0  0  0  0
   -2.2315   -3.5259   -1.0103 H   0  0  0  0  0  0  0  0  0  0  0  0
   -0.6021   -2.3050   -0.2801 C   0  0  0  0  0  0  0  0  0  0  0  0
    0.4470   -2.7855   -0.6975 O   0  0  0  0  0  0  0  0  0  0  0  0
   -0.6877   -1.0177    0.2861 N   0  0  0  0  0  0  0  0  0  0  0  0
   -1.6231   -0.5038   -0.7619 C   0  0  0  0  0  0  0  0  0  0  0  0
   -2.4765   -0.0243   -0.2701 H   0  0  0  0  0  0  0  0  0  0  0  0
   -2.0483   -1.1935   -1.5087 H   0  0  0  0  0  0  0  0  0  0  0  0
   -0.8098    0.5163   -1.4738 C   0  0  0  0  0  0  0  0  0  0  0  0
   -1.1092    1.5205   -1.1589 H   0  0  0  0  0  0  0  0  0  0  0  0
   -0.9856    0.4592   -2.5525 H   0  0  0  0  0  0  0  0  0  0  0  0
    0.6735    0.2609   -1.1694 C   0  0  0  0  0  0  0  0  0  0  0  0
    1.2906    1.1568   -1.3184 H   0  0  0  0  0  0  0  0  0  0  0  0
    1.0595   -0.4988   -1.8571 H   0  0  0  0  0  0  0  0  0  0  0  0
    0.6595   -0.3219    0.2754 C   0  0  1  0  0  0  0  0  0  0  0  0
    1.5221   -0.9365    0.5528 H   0  0  0  0  0  0  0  0  0  0  0  0
    0.6904    1.0962    0.9294 C   0  0  0  0  0  0  0  0  0  0  0  0
   -0.3115    1.7664    1.1636 O   0  0  0  0  0  0  0  0  0  0  0  0
    1.8746    1.5101    1.5170 N   0  0  0  0  0  0  0  0  0  0  0  0
    2.6739    0.8877    1.4432 H   0  0  0  0  0  0  0  0  0  0  0  0
    1.9958    2.7117    2.3348 C   0  0  0  0  0  0  0  0  0  0  0  0
    1.3882    2.6211    3.2413 H   0  0  0  0  0  0  0  0  0  0  0  0
    3.0385    2.8636    2.6298 H   0  0  0  0  0  0  0  0  0  0  0  0
    1.6650    3.5929    1.7748 H   0  0  0  0  0  0  0  0  0  0  0  0
  1  2  1  0  0  0  0
  2  3  1  0  0  0  0
  2  4  1  0  0  0  0
  2  5  1  0  0  0  0
  5  6  2  0  0  0  0
  5  7  1  0  0  0  0
  7  8  1  0  0  0  0
  7 17  1  0  0  0  0
  8  9  1  0  0  0  0
  8 10  1  0  0  0  0
  8 11  1  0  0  0  0
 11 12  1  0  0  0  0
 11 13  1  0  0  0  0
 11 14  1  0  0  0  0
 14 15  1  0  0  0  0
 14 16  1  0  0  0  0
 14 17  1  0  0  0  0
 17 18  1  0  0  0  0
 17 19  1  0  0  0  0
 19 20  2  0  0  0  0
 19 21  1  0  0  0  0
 21 22  1  0  0  0  0
 21 23  1  0  0  0  0
 23 24  1  0  0  0  0
 23 25  1  0  0  0  0
 23 26  1  0  0  0  0
M  END
$$$$

  -OEChem-11182114133D

 26 26  0     1  0  0  0  0  0999 V2000
   -1.3214   -4.2450    0.3397 H   0  0  0  0  0  0  0  0  0  0  0  0
   -1.7193   -3.3146   -0.0745 C   0  0  0  0  0  0  0  0  0  0  0  0
   -2.4627   -2.9169    0.6214 H   0  0  0  0  0  0  0  0  0  0  0  0
   -2.2049   -3.5309   -1.0292 H   0  0  0  0  0  0  0  0  0  0  0  0
   -0.5862   -2.3093   -0.2761 C   0  0  0  0  0  0  0  0  0  0  0  0
    0.4685   -2.7766   -0.6943 O   0  0  0  0  0  0  0  0  0  0  0  0
   -0.6863   -1.0240    0.2915 N   0  0  0  0  0  0  0  0  0  0  0  0
   -1.6272   -0.5058   -0.7453 C   0  0  0  0  0  0  0  0  0  0  0  0
   -2.4861   -0.0424   -0.2477 H   0  0  0  0  0  0  0  0  0  0  0  0
   -2.0408   -1.1920   -1.5010 H   0  0  0  0  0  0  0  0  0  0  0  0
   -0.8219    0.5303   -1.4412 C   0  0  0  0  0  0  0  0  0  0  0  0
   -1.1235    1.5245   -1.0956 H   0  0  0  0  0  0  0  0  0  0  0  0
   -1.0026    0.4979   -2.5203 H   0  0  0  0  0  0  0  0  0  0  0  0
    0.6639    0.2840   -1.1434 C   0  0  0  0  0  0  0  0  0  0  0  0
    1.2738    1.1847   -1.2919 H   0  0  0  0  0  0  0  0  0  0  0  0
    1.0518   -0.4670   -1.8395 H   0  0  0  0  0  0  0  0  0  0  0  0
    0.6556   -0.3187    0.2948 C   0  0  1  0  0  0  0  0  0  0  0  0
    1.5250   -0.9230    0.5737 H   0  0  0  0  0  0  0  0  0  0  0  0
    0.6590    1.0974    0.9517 C   0  0  0  0  0  0  0  0  0  0  0  0
   -0.3623    1.6612    1.3339 O   0  0  0  0  0  0  0  0  0  0  0  0
    1.8736    1.6786    1.2811 N   0  0  0  0  0  0  0  0  0  0  0  0
    2.7169    1.1580    1.0584 H   0  0  0  0  0  0  0  0  0  0  0  0
    1.9948    2.9304    2.0194 C   0  0  0  0  0  0  0  0  0  0  0  0
    1.5739    2.8249    3.0248 H   0  0  0  0  0  0  0  0  0  0  0  0
    3.0476    3.2139    2.1121 H   0  0  0  0  0  0  0  0  0  0  0  0
    1.4661    3.7356    1.4985 H   0  0  0  0  0  0  0  0  0  0  0  0
  1  2  1  0  0  0  0
  2  3  1  0  0  0  0
  2  4  1  0  0  0  0
  2  5  1  0  0  0  0
  5  6  2  0  0  0  0
  5  7  1  0  0  0  0
  7  8  1  0  0  0  0
  7 17  1  0  0  0  0
  8  9  1  0  0  0  0
  8 10  1  0  0  0  0
  8 11  1  0  0  0  0
 11 12  1  0  0  0  0
 11 13  1  0  0  0  0
 11 14  1  0  0  0  0
 14 15  1  0  0  0  0
 14 16  1  0  0  0  0
 14 17  1  0  0  0  0
 17 18  1  0  0  0  0
 17 19  1  0  0  0  0
 19 20  2  0  0  0  0
 19 21  1  0  0  0  0
 21 22  1  0  0  0  0
 21 23  1  0  0  0  0
 23 24  1  0  0  0  0
 23 25  1  0  0  0  0
 23 26  1  0  0  0  0
M  END
$$$$

  -OEChem-11182114133D

 26 26  0     1  0  0  0  0  0999 V2000
   -1.3656   -4.2309    0.4895 H   0  0  0  0  0  0  0  0  0  0  0  0
   -1.7229   -3.2932    0.0551 C   0  0  0  0  0  0  0  0  0  0  0  0
   -2.4422   -2.8439    0.7450 H   0  0  0  0  0  0  0  0  0  0  0  0
   -2.2237   -3.5094   -0.8915 H   0  0  0  0  0  0  0  0  0  0  0  0
   -0.5483   -2.3463   -0.1735 C   0  0  0  0  0  0  0  0  0  0  0  0
    0.5102   -2.8586   -0.5204 O   0  0  0  0  0  0  0  0  0  0  0  0
   -0.6475   -0.9992    0.2071 N   0  0  0  0  0  0  0  0  0  0  0  0
   -1.5900   -0.5167   -0.8318 C   0  0  0  0  0  0  0  0  0  0  0  0
   -2.4968   -0.1213   -0.3614 H   0  0  0  0  0  0  0  0  0  0  0  0
   -1.9059   -1.2426   -1.5947 H   0  0  0  0  0  0  0  0  0  0  0  0
   -0.8355    0.5724   -1.5125 C   0  0  0  0  0  0  0  0  0  0  0  0
   -1.1487    1.5393   -1.1040 H   0  0  0  0  0  0  0  0  0  0  0  0
   -1.0390    0.5835   -2.5878 H   0  0  0  0  0  0  0  0  0  0  0  0
    0.6511    0.3501   -1.2363 C   0  0  0  0  0  0  0  0  0  0  0  0
    1.2368    1.2672   -1.3644 H   0  0  0  0  0  0  0  0  0  0  0  0
    1.0449   -0.3825   -1.9489 H   0  0  0  0  0  0  0  0  0  0  0  0
    0.6752   -0.2793    0.1794 C   0  0  1  0  0  0  0  0  0  0  0  0
    1.5619   -0.8771    0.4141 H   0  0  0  0  0  0  0  0  0  0  0  0
    0.6546    1.0629    0.9727 C   0  0  0  0  0  0  0  0  0  0  0  0
   -0.3485    1.4589    1.5572 O   0  0  0  0  0  0  0  0  0  0  0  0
    1.7957    1.8483    1.0484 N   0  0  0  0  0  0  0  0  0  0  0  0
    2.6412    1.4883    0.6157 H   0  0  0  0  0  0  0  0  0  0  0  0
    1.8695    3.0889    1.8116 C   0  0  0  0  0  0  0  0  0  0  0  0
    1.6788    2.8973    2.8728 H   0  0  0  0  0  0  0  0  0  0  0  0
    2.8640    3.5347    1.7134 H   0  0  0  0  0  0  0  0  0  0  0  0
    1.1307    3.8094    1.4452 H   0  0  0  0  0  0  0  0  0  0  0  0
  1  2  1  0  0  0  0
  2  3  1  0  0  0  0
  2  4  1  0  0  0  0
  2  5  1  0  0  0  0
  5  6  2  0  0  0  0
  5  7  1  0  0  0  0
  7  8  1  0  0  0  0
  7 17  1  0  0  0  0
  8  9  1  0  0  0  0
  8 10  1  0  0  0  0
  8 11  1  0  0  0  0
 11 12  1  0  0  0  0
 11 13  1  0  0  0  0
 11 14  1  0  0  0  0
 14 15  1  0  0  0  0
 14 16  1  0  0  0  0
 14 17  1  0  0  0  0
 17 18  1  0  0  0  0
 17 19  1  0  0  0  0
 19 20  2  0  0  0  0
 19 21  1  0  0  0  0
 21 22  1  0  0  0  0
 21 23  1  0  0  0  0
 23 24  1  0  0  0  0
 23 25  1  0  0  0  0
 23 26  1  0  0  0  0
M  END
$$$$

  -OEChem-11182114133D

 26 26  0     1  0  0  0  0  0999 V2000
   -1.3341   -4.2208    0.4998 H   0  0  0  0  0  0  0  0  0  0  0  0
   -1.7070   -3.2848    0.0755 C   0  0  0  0  0  0  0  0  0  0  0  0
   -2.4079   -2.8380    0.7856 H   0  0  0  0  0  0  0  0  0  0  0  0
   -2.2333   -3.5029   -0.8566 H   0  0  0  0  0  0  0  0  0  0  0  0
   -0.5426   -2.3343   -0.1867 C   0  0  0  0  0  0  0  0  0  0  0  0
    0.5058   -2.8425   -0.5691 O   0  0  0  0  0  0  0  0  0  0  0  0
   -0.6365   -0.9883    0.2001 N   0  0  0  0  0  0  0  0  0  0  0  0
   -1.5960   -0.5091   -0.8228 C   0  0  0  0  0  0  0  0  0  0  0  0
   -2.4876   -0.0976   -0.3372 H   0  0  0  0  0  0  0  0  0  0  0  0
   -1.9383   -1.2380   -1.5716 H   0  0  0  0  0  0  0  0  0  0  0  0
   -0.8402    0.5618   -1.5253 C   0  0  0  0  0  0  0  0  0  0  0  0
   -1.1390    1.5360   -1.1229 H   0  0  0  0  0  0  0  0  0  0  0  0
   -1.0587    0.5616   -2.5978 H   0  0  0  0  0  0  0  0  0  0  0  0
    0.6488    0.3356   -1.2672 C   0  0  0  0  0  0  0  0  0  0  0  0
    1.2388    1.2410   -1.4347 H   0  0  0  0  0  0  0  0  0  0  0  0
    1.0235   -0.4144   -1.9721 H   0  0  0  0  0  0  0  0  0  0  0  0
    0.6921   -0.2761    0.1589 C   0  0  1  0  0  0  0  0  0  0  0  0
    1.5800   -0.8740    0.3894 H   0  0  0  0  0  0  0  0  0  0  0  0
    0.6621    1.0628    0.9659 C   0  0  0  0  0  0  0  0  0  0  0  0
   -0.2487    1.3057    1.7499 O   0  0  0  0  0  0  0  0  0  0  0  0
    1.6497    2.0303    0.8324 N   0  0  0  0  0  0  0  0  0  0  0  0
    2.4418    1.8093    0.2368 H   0  0  0  0  0  0  0  0  0  0  0  0
    1.6732    3.2706    1.5996 C   0  0  0  0  0  0  0  0  0  0  0  0
    1.7849    3.0572    2.6678 H   0  0  0  0  0  0  0  0  0  0  0  0
    2.5122    3.8963    1.2806 H   0  0  0  0  0  0  0  0  0  0  0  0
    0.7466    3.8342    1.4475 H   0  0  0  0  0  0  0  0  0  0  0  0
  1  2  1  0  0  0  0
  2  3  1  0  0  0  0
  2  4  1  0  0  0  0
  2  5  1  0  0  0  0
  5  6  2  0  0  0  0
  5  7  1  0  0  0  0
  7  8  1  0  0  0  0
  7 17  1  0  0  0  0
  8  9  1  0  0  0  0
  8 10  1  0  0  0  0
  8 11  1  0  0  0  0
 11 12  1  0  0  0  0
 11 13  1  0  0  0  0
 11 14  1  0  0  0  0
 14 15  1  0  0  0  0
 14 16  1  0  0  0  0
 14 17  1  0  0  0  0
 17 18  1  0  0  0  0
 17 19  1  0  0  0  0
 19 20  2  0  0  0  0
 19 21  1  0  0  0  0
 21 22  1  0  0  0  0
 21 23  1  0  0  0  0
 23 24  1  0  0  0  0
 23 25  1  0  0  0  0
 23 26  1  0  0  0  0
M  END
$$$$

  -OEChem-11182114133D

 26 26  0     1  0  0  0  0  0999 V2000
   -1.3124   -4.1987    0.5420 H   0  0  0  0  0  0  0  0  0  0  0  0
   -1.6976   -3.2702    0.1121 C   0  0  0  0  0  0  0  0  0  0  0  0
   -2.3833   -2.8143    0.8312 H   0  0  0  0  0  0  0  0  0  0  0  0
   -2.2448   -3.5039   -0.8042 H   0  0  0  0  0  0  0  0  0  0  0  0
   -0.5421   -2.3210   -0.1910 C   0  0  0  0  0  0  0  0  0  0  0  0
    0.4914   -2.8307   -0.6103 O   0  0  0  0  0  0  0  0  0  0  0  0
   -0.6245   -0.9738    0.1959 N   0  0  0  0  0  0  0  0  0  0  0  0
   -1.5952   -0.5040   -0.8209 C   0  0  0  0  0  0  0  0  0  0  0  0
   -2.4719   -0.0703   -0.3279 H   0  0  0  0  0  0  0  0  0  0  0  0
   -1.9635   -1.2405   -1.5500 H   0  0  0  0  0  0  0  0  0  0  0  0
   -0.8366    0.5423   -1.5557 C   0  0  0  0  0  0  0  0  0  0  0  0
   -1.1211    1.5283   -1.1726 H   0  0  0  0  0  0  0  0  0  0  0  0
   -1.0683    0.5198   -2.6253 H   0  0  0  0  0  0  0  0  0  0  0  0
    0.6542    0.3100   -1.3127 C   0  0  0  0  0  0  0  0  0  0  0  0
    1.2594    1.1950   -1.5203 H   0  0  0  0  0  0  0  0  0  0  0  0
    1.0065   -0.4645   -2.0026 H   0  0  0  0  0  0  0  0  0  0  0  0
    0.7090   -0.2712    0.1265 C   0  0  1  0  0  0  0  0  0  0  0  0
    1.5968   -0.8686    0.3593 H   0  0  0  0  0  0  0  0  0  0  0  0
    0.6669    1.0658    0.9452 C   0  0  0  0  0  0  0  0  0  0  0  0
   -0.0670    1.1531    1.9230 O   0  0  0  0  0  0  0  0  0  0  0  0
    1.4231    2.1938    0.6482 N   0  0  0  0  0  0  0  0  0  0  0  0
    2.0948    2.1186   -0.1090 H   0  0  0  0  0  0  0  0  0  0  0  0
    1.4008    3.4168    1.4434 C   0  0  0  0  0  0  0  0  0  0  0  0
    1.7670    3.2213    2.4567 H   0  0  0  0  0  0  0  0  0  0  0  0
    2.0392    4.1775    0.9843 H   0  0  0  0  0  0  0  0  0  0  0  0
    0.3825    3.8149    1.5068 H   0  0  0  0  0  0  0  0  0  0  0  0
  1  2  1  0  0  0  0
  2  3  1  0  0  0  0
  2  4  1  0  0  0  0
  2  5  1  0  0  0  0
  5  6  2  0  0  0  0
  5  7  1  0  0  0  0
  7  8  1  0  0  0  0
  7 17  1  0  0  0  0
  8  9  1  0  0  0  0
  8 10  1  0  0  0  0
  8 11  1  0  0  0  0
 11 12  1  0  0  0  0
 11 13  1  0  0  0  0
 11 14  1  0  0  0  0
 14 15  1  0  0  0  0
 14 16  1  0  0  0  0
 14 17  1  0  0  0  0
 17 18  1  0  0  0  0
 17 19  1  0  0  0  0
 19 20  2  0  0  0  0
 19 21  1  0  0  0  0
 21 22  1  0  0  0  0
 21 23  1  0  0  0  0
 23 24  1  0  0  0  0
 23 25  1  0  0  0  0
 23 26  1  0  0  0  0
M  END
$$$$

  -OEChem-11182114133D

 26 26  0     1  0  0  0  0  0999 V2000
   -1.2896   -4.1700    0.6055 H   0  0  0  0  0  0  0  0  0  0  0  0
   -1.6903   -3.2569    0.1572 C   0  0  0  0  0  0  0  0  0  0  0  0
   -2.3655   -2.7858    0.8764 H   0  0  0  0  0  0  0  0  0  0  0  0
   -2.2531   -3.5197   -0.7415 H   0  0  0  0  0  0  0  0  0  0  0  0
   -0.5481   -2.3091   -0.1946 C   0  0  0  0  0  0  0  0  0  0  0  0
    0.4671   -2.8187   -0.6565 O   0  0  0  0  0  0  0  0  0  0  0  0
   -0.6199   -0.9604    0.1896 N   0  0  0  0  0  0  0  0  0  0  0  0
   -1.5904   -0.5015   -0.8355 C   0  0  0  0  0  0  0  0  0  0  0  0
   -2.4607   -0.0496   -0.3472 H   0  0  0  0  0  0  0  0  0  0  0  0
   -1.9735   -1.2470   -1.5484 H   0  0  0  0  0  0  0  0  0  0  0  0
   -0.8254    0.5248   -1.5947 C   0  0  0  0  0  0  0  0  0  0  0  0
   -1.1031    1.5206   -1.2332 H   0  0  0  0  0  0  0  0  0  0  0  0
   -1.0607    0.4804   -2.6629 H   0  0  0  0  0  0  0  0  0  0  0  0
    0.6657    0.2870   -1.3538 C   0  0  0  0  0  0  0  0  0  0  0  0
    1.2893    1.1544   -1.5785 H   0  0  0  0  0  0  0  0  0  0  0  0
    1.0071   -0.5055   -2.0285 H   0  0  0  0  0  0  0  0  0  0  0  0
    0.7156   -0.2655    0.0945 C   0  0  1  0  0  0  0  0  0  0  0  0
    1.6014   -0.8622    0.3357 H   0  0  0  0  0  0  0  0  0  0  0  0
    0.6576    1.0680    0.9218 C   0  0  0  0  0  0  0  0  0  0  0  0
    0.1702    1.0308    2.0455 O   0  0  0  0  0  0  0  0  0  0  0  0
    1.1338    2.3108    0.5162 N   0  0  0  0  0  0  0  0  0  0  0  0
    1.6126    2.3607   -0.3765 H   0  0  0  0  0  0  0  0  0  0  0  0
    1.0797    3.5107    1.3454 C   0  0  0  0  0  0  0  0  0  0  0  0
    1.6756    3.3760    2.2542 H   0  0  0  0  0  0  0  0  0  0  0  0
    1.4764    4.3694    0.7954 H   0  0  0  0  0  0  0  0  0  0  0  0
    0.0462    3.7333    1.6311 H   0  0  0  0  0  0  0  0  0  0  0  0
  1  2  1  0  0  0  0
  2  3  1  0  0  0  0
  2  4  1  0  0  0  0
  2  5  1  0  0  0  0
  5  6  2  0  0  0  0
  5  7  1  0  0  0  0
  7  8  1  0  0  0  0
  7 17  1  0  0  0  0
  8  9  1  0  0  0  0
  8 10  1  0  0  0  0
  8 11  1  0  0  0  0
 11 12  1  0  0  0  0
 11 13  1  0  0  0  0
 11 14  1  0  0  0  0
 14 15  1  0  0  0  0
 14 16  1  0  0  0  0
 14 17  1  0  0  0  0
 17 18  1  0  0  0  0
 17 19  1  0  0  0  0
 19 20  2  0  0  0  0
 19 21  1  0  0  0  0
 21 22  1  0  0  0  0
 21 23  1  0  0  0  0
 23 24  1  0  0  0  0
 23 25  1  0  0  0  0
 23 26  1  0  0  0  0
M  END
$$$$

  -OEChem-11182114133D

 26 26  0     1  0  0  0  0  0999 V2000
   -1.2723   -4.1656    0.6249 H   0  0  0  0  0  0  0  0  0  0  0  0
   -1.6827   -3.2567    0.1768 C   0  0  0  0  0  0  0  0  0  0  0  0
   -2.3522   -2.7853    0.9011 H   0  0  0  0  0  0  0  0  0  0  0  0
   -2.2539   -3.5266   -0.7146 H   0  0  0  0  0  0  0  0  0  0  0  0
   -0.5495   -2.3052   -0.1918 C   0  0  0  0  0  0  0  0  0  0  0  0
    0.4603   -2.8104   -0.6701 O   0  0  0  0  0  0  0  0  0  0  0  0
   -0.6258   -0.9556    0.1895 N   0  0  0  0  0  0  0  0  0  0  0  0
   -1.5878   -0.5107   -0.8525 C   0  0  0  0  0  0  0  0  0  0  0  0
   -2.4633   -0.0549   -0.3772 H   0  0  0  0  0  0  0  0  0  0  0  0
   -1.9650   -1.2642   -1.5606 H   0  0  0  0  0  0  0  0  0  0  0  0
   -0.8203    0.5097   -1.6200 C   0  0  0  0  0  0  0  0  0  0  0  0
   -1.1099    1.5090   -1.2796 H   0  0  0  0  0  0  0  0  0  0  0  0
   -1.0455    0.4463   -2.6895 H   0  0  0  0  0  0  0  0  0  0  0  0
    0.6712    0.2767   -1.3653 C   0  0  0  0  0  0  0  0  0  0  0  0
    1.3050    1.1401   -1.5825 H   0  0  0  0  0  0  0  0  0  0  0  0
    1.0188   -0.5214   -2.0301 H   0  0  0  0  0  0  0  0  0  0  0  0
    0.7067   -0.2584    0.0872 C   0  0  1  0  0  0  0  0  0  0  0  0
    1.5918   -0.8519    0.3404 H   0  0  0  0  0  0  0  0  0  0  0  0
    0.6370    1.0733    0.9151 C   0  0  0  0  0  0  0  0  0  0  0  0
    0.4236    0.9741    2.1170 O   0  0  0  0  0  0  0  0  0  0  0  0
    0.8201    2.3699    0.4434 N   0  0  0  0  0  0  0  0  0  0  0  0
    1.0058    2.4879   -0.5464 H   0  0  0  0  0  0  0  0  0  0  0  0
    0.7531    3.5586    1.2870 C   0  0  0  0  0  0  0  0  0  0  0  0
    1.5275    3.5235    2.0605 H   0  0  0  0  0  0  0  0  0  0  0  0
    0.9070    4.4589    0.6845 H   0  0  0  0  0  0  0  0  0  0  0  0
   -0.2266    3.6307    1.7713 H   0  0  0  0  0  0  0  0  0  0  0  0
  1  2  1  0  0  0  0
  2  3  1  0  0  0  0
  2  4  1  0  0  0  0
  2  5  1  0  0  0  0
  5  6  2  0  0  0  0
  5  7  1  0  0  0  0
  7  8  1  0  0  0  0
  7 17  1  0  0  0  0
  8  9  1  0  0  0  0
  8 10  1  0  0  0  0
  8 11  1  0  0  0  0
 11 12  1  0  0  0  0
 11 13  1  0  0  0  0
 11 14  1  0  0  0  0
 14 15  1  0  0  0  0
 14 16  1  0  0  0  0
 14 17  1  0  0  0  0
 17 18  1  0  0  0  0
 17 19  1  0  0  0  0
 19 20  2  0  0  0  0
 19 21  1  0  0  0  0
 21 22  1  0  0  0  0
 21 23  1  0  0  0  0
 23 24  1  0  0  0  0
 23 25  1  0  0  0  0
 23 26  1  0  0  0  0
M  END
$$$$

  -OEChem-11182114133D

 26 26  0     1  0  0  0  0  0999 V2000
   -1.2406   -4.1825    0.6246 H   0  0  0  0  0  0  0  0  0  0  0  0
   -1.6676   -3.2817    0.1757 C   0  0  0  0  0  0  0  0  0  0  0  0
   -2.3457   -2.8224    0.8996 H   0  0  0  0  0  0  0  0  0  0  0  0
   -2.2338   -3.5629   -0.7153 H   0  0  0  0  0  0  0  0  0  0  0  0
   -0.5521   -2.3100   -0.1946 C   0  0  0  0  0  0  0  0  0  0  0  0
    0.4620   -2.7962   -0.6829 O   0  0  0  0  0  0  0  0  0  0  0  0
   -0.6526   -0.9617    0.1879 N   0  0  0  0  0  0  0  0  0  0  0  0
   -1.6010   -0.5379   -0.8773 C   0  0  0  0  0  0  0  0  0  0  0  0
   -2.4909   -0.0914   -0.4206 H   0  0  0  0  0  0  0  0  0  0  0  0
   -1.9574   -1.3001   -1.5875 H   0  0  0  0  0  0  0  0  0  0  0  0
   -0.8365    0.4898   -1.6380 C   0  0  0  0  0  0  0  0  0  0  0  0
   -1.1596    1.4858   -1.3230 H   0  0  0  0  0  0  0  0  0  0  0  0
   -1.0354    0.4069   -2.7115 H   0  0  0  0  0  0  0  0  0  0  0  0
    0.6547    0.2789   -1.3506 C   0  0  0  0  0  0  0  0  0  0  0  0
    1.2770    1.1581   -1.5439 H   0  0  0  0  0  0  0  0  0  0  0  0
    1.0333   -0.5112   -2.0081 H   0  0  0  0  0  0  0  0  0  0  0  0
    0.6726   -0.2473    0.1049 C   0  0  1  0  0  0  0  0  0  0  0  0
    1.5581   -0.8365    0.3674 H   0  0  0  0  0  0  0  0  0  0  0  0
    0.6054    1.0870    0.9259 C   0  0  0  0  0  0  0  0  0  0  0  0
    0.6584    0.9842    2.1445 O   0  0  0  0  0  0  0  0  0  0  0  0
    0.5067    2.3850    0.4337 N   0  0  0  0  0  0  0  0  0  0  0  0
    0.4554    2.4999   -0.5727 H   0  0  0  0  0  0  0  0  0  0  0  0
    0.4489    3.5728    1.2789 C   0  0  0  0  0  0  0  0  0  0  0  0
    1.3581    3.6570    1.8834 H   0  0  0  0  0  0  0  0  0  0  0  0
    0.3595    4.4722    0.6623 H   0  0  0  0  0  0  0  0  0  0  0  0
   -0.4166    3.5253    1.9483 H   0  0  0  0  0  0  0  0  0  0  0  0
  1  2  1  0  0  0  0
  2  3  1  0  0  0  0
  2  4  1  0  0  0  0
  2  5  1  0  0  0  0
  5  6  2  0  0  0  0
  5  7  1  0  0  0  0
  7  8  1  0  0  0  0
  7 17  1  0  0  0  0
  8  9  1  0  0  0  0
  8 10  1  0  0  0  0
  8 11  1  0  0  0  0
 11 12  1  0  0  0  0
 11 13  1  0  0  0  0
 11 14  1  0  0  0  0
 14 15  1  0  0  0  0
 14 16  1  0  0  0  0
 14 17  1  0  0  0  0
 17 18  1  0  0  0  0
 17 19  1  0  0  0  0
 19 20  2  0  0  0  0
 19 21  1  0  0  0  0
 21 22  1  0  0  0  0
 21 23  1  0  0  0  0
 23 24  1  0  0  0  0
 23 25  1  0  0  0  0
 23 26  1  0  0  0  0
M  END
$$$$

  -OEChem-11182114133D

 26 26  0     1  0  0  0  0  0999 V2000
   -1.2045   -4.2091    0.6129 H   0  0  0  0  0  0  0  0  0  0  0  0
   -1.6474   -3.3247    0.1469 C   0  0  0  0  0  0  0  0  0  0  0  0
   -2.3554   -2.8801    0.8511 H   0  0  0  0  0  0  0  0  0  0  0  0
   -2.1843   -3.6292   -0.7545 H   0  0  0  0  0  0  0  0  0  0  0  0
   -0.5518   -2.3244   -0.2059 C   0  0  0  0  0  0  0  0  0  0  0  0
    0.4778   -2.7846   -0.6863 O   0  0  0  0  0  0  0  0  0  0  0  0
   -0.6904   -0.9809    0.1840 N   0  0  0  0  0  0  0  0  0  0  0  0
   -1.6242   -0.5770   -0.9032 C   0  0  0  0  0  0  0  0  0  0  0  0
   -2.5336   -0.1511   -0.4656 H   0  0  0  0  0  0  0  0  0  0  0  0
   -1.9500   -1.3448   -1.6222 H   0  0  0  0  0  0  0  0  0  0  0  0
   -0.8675    0.4688   -1.6452 C   0  0  0  0  0  0  0  0  0  0  0  0
   -1.2335    1.4563   -1.3562 H   0  0  0  0  0  0  0  0  0  0  0  0
   -1.0306    0.3704   -2.7234 H   0  0  0  0  0  0  0  0  0  0  0  0
    0.6214    0.2883   -1.3172 C   0  0  0  0  0  0  0  0  0  0  0  0
    1.2184    1.1919   -1.4803 H   0  0  0  0  0  0  0  0  0  0  0  0
    1.0411   -0.4837   -1.9712 H   0  0  0  0  0  0  0  0  0  0  0  0
    0.6235   -0.2405    0.1381 C   0  0  1  0  0  0  0  0  0  0  0  0
    1.5107   -0.8253    0.4055 H   0  0  0  0  0  0  0  0  0  0  0  0
    0.5662    1.0961    0.9524 C   0  0  0  0  0  0  0  0  0  0  0  0
    0.8727    1.0253    2.1351 O   0  0  0  0  0  0  0  0  0  0  0  0
    0.2030    2.3586    0.4962 N   0  0  0  0  0  0  0  0  0  0  0  0
   -0.0313    2.4489   -0.4859 H   0  0  0  0  0  0  0  0  0  0  0  0
    0.1775    3.5511    1.3361 C   0  0  0  0  0  0  0  0  0  0  0  0
    1.1753    3.7593    1.7365 H   0  0  0  0  0  0  0  0  0  0  0  0
   -0.1487    4.4176    0.7531 H   0  0  0  0  0  0  0  0  0  0  0  0
   -0.5169    3.4159    2.1721 H   0  0  0  0  0  0  0  0  0  0  0  0
  1  2  1  0  0  0  0
  2  3  1  0  0  0  0
  2  4  1  0  0  0  0
  2  5  1  0  0  0  0
  5  6  2  0  0  0  0
  5  7  1  0  0  0  0
  7  8  1  0  0  0  0
  7 17  1  0  0  0  0
  8  9  1  0  0  0  0
  8 10  1  0  0  0  0
  8 11  1  0  0  0  0
 11 12  1  0  0  0  0
 11 13  1  0  0  0  0
 11 14  1  0  0  0  0
 14 15  1  0  0  0  0
 14 16  1  0  0  0  0
 14 17  1  0  0  0  0
 17 18  1  0  0  0  0
 17 19  1  0  0  0  0
 19 20  2  0  0  0  0
 19 21  1  0  0  0  0
 21 22  1  0  0  0  0
 21 23  1  0  0  0  0
 23 24  1  0  0  0  0
 23 25  1  0  0  0  0
 23 26  1  0  0  0  0
M  END
$$$$

  -OEChem-11182114133D

 26 26  0     1  0  0  0  0  0999 V2000
   -1.1934   -4.2501    0.5696 H   0  0  0  0  0  0  0  0  0  0  0  0
   -1.6383   -3.3676    0.1020 C   0  0  0  0  0  0  0  0  0  0  0  0
   -2.3707   -2.9416    0.7926 H   0  0  0  0  0  0  0  0  0  0  0  0
   -2.1477   -3.6708   -0.8157 H   0  0  0  0  0  0  0  0  0  0  0  0
   -0.5504   -2.3463   -0.2132 C   0  0  0  0  0  0  0  0  0  0  0  0
    0.4982   -2.7861   -0.6705 O   0  0  0  0  0  0  0  0  0  0  0  0
   -0.7220   -1.0082    0.1842 N   0  0  0  0  0  0  0  0  0  0  0  0
   -1.6375   -0.6178   -0.9253 C   0  0  0  0  0  0  0  0  0  0  0  0
   -2.5655   -0.2136   -0.5069 H   0  0  0  0  0  0  0  0  0  0  0  0
   -1.9310   -1.3873   -1.6566 H   0  0  0  0  0  0  0  0  0  0  0  0
   -0.8875    0.4481   -1.6447 C   0  0  0  0  0  0  0  0  0  0  0  0
   -1.2904    1.4266   -1.3822 H   0  0  0  0  0  0  0  0  0  0  0  0
   -1.0135    0.3389   -2.7269 H   0  0  0  0  0  0  0  0  0  0  0  0
    0.5951    0.2939   -1.2757 C   0  0  0  0  0  0  0  0  0  0  0  0
    1.1663    1.2198   -1.4076 H   0  0  0  0  0  0  0  0  0  0  0  0
    1.0539   -0.4585   -1.9263 H   0  0  0  0  0  0  0  0  0  0  0  0
    0.5799   -0.2435    0.1764 C   0  0  1  0  0  0  0  0  0  0  0  0
    1.4686   -0.8251    0.4473 H   0  0  0  0  0  0  0  0  0  0  0  0
    0.5318    1.0936    0.9868 C   0  0  0  0  0  0  0  0  0  0  0  0
    1.0935    1.0893    2.0740 O   0  0  0  0  0  0  0  0  0  0  0  0
   -0.0754    2.2891    0.6234 N   0  0  0  0  0  0  0  0  0  0  0  0
   -0.5176    2.3306   -0.2859 H   0  0  0  0  0  0  0  0  0  0  0  0
   -0.0676    3.4897    1.4523 C   0  0  0  0  0  0  0  0  0  0  0  0
    0.9592    3.8252    1.6323 H   0  0  0  0  0  0  0  0  0  0  0  0
   -0.6123    4.2967    0.9533 H   0  0  0  0  0  0  0  0  0  0  0  0
   -0.5487    3.2932    2.4162 H   0  0  0  0  0  0  0  0  0  0  0  0
  1  2  1  0  0  0  0
  2  3  1  0  0  0  0
  2  4  1  0  0  0  0
  2  5  1  0  0  0  0
  5  6  2  0  0  0  0
  5  7  1  0  0  0  0
  7  8  1  0  0  0  0
  7 17  1  0  0  0  0
  8  9  1  0  0  0  0
  8 10  1  0  0  0  0
  8 11  1  0  0  0  0
 11 12  1  0  0  0  0
 11 13  1  0  0  0  0
 11 14  1  0  0  0  0
 14 15  1  0  0  0  0
 14 16  1  0  0  0  0
 14 17  1  0  0  0  0
 17 18  1  0  0  0  0
 17 19  1  0  0  0  0
 19 20  2  0  0  0  0
 19 21  1  0  0  0  0
 21 22  1  0  0  0  0
 21 23  1  0  0  0  0
 23 24  1  0  0  0  0
 23 25  1  0  0  0  0
 23 26  1  0  0  0  0
M  END
$$$$

  -OEChem-11182114133D

 26 26  0     1  0  0  0  0  0999 V2000
   -1.2156   -4.2656    0.5404 H   0  0  0  0  0  0  0  0  0  0  0  0
   -1.6509   -3.3785    0.0723 C   0  0  0  0  0  0  0  0  0  0  0  0
   -2.3904   -2.9534    0.7558 H   0  0  0  0  0  0  0  0  0  0  0  0
   -2.1497   -3.6743   -0.8537 H   0  0  0  0  0  0  0  0  0  0  0  0
   -0.5543   -2.3604   -0.2230 C   0  0  0  0  0  0  0  0  0  0  0  0
    0.4974   -2.8016   -0.6704 O   0  0  0  0  0  0  0  0  0  0  0  0
   -0.7218   -1.0257    0.1868 N   0  0  0  0  0  0  0  0  0  0  0  0
   -1.6202   -0.6211   -0.9368 C   0  0  0  0  0  0  0  0  0  0  0  0
   -2.5563   -0.2247   -0.5293 H   0  0  0  0  0  0  0  0  0  0  0  0
   -1.9006   -1.3827   -1.6818 H   0  0  0  0  0  0  0  0  0  0  0  0
   -0.8655    0.4581   -1.6393 C   0  0  0  0  0  0  0  0  0  0  0  0
   -1.2599    1.4422   -1.3840 H   0  0  0  0  0  0  0  0  0  0  0  0
   -0.9788    0.3547   -2.7234 H   0  0  0  0  0  0  0  0  0  0  0  0
    0.6091    0.2975   -1.2578 C   0  0  0  0  0  0  0  0  0  0  0  0
    1.1728    1.2323   -1.3609 H   0  0  0  0  0  0  0  0  0  0  0  0
    1.0801   -0.4411   -1.9155 H   0  0  0  0  0  0  0  0  0  0  0  0
    0.5780   -0.2588    0.1839 C   0  0  1  0  0  0  0  0  0  0  0  0
    1.4647   -0.8444    0.4530 H   0  0  0  0  0  0  0  0  0  0  0  0
    0.5309    1.0677    1.0056 C   0  0  0  0  0  0  0  0  0  0  0  0
    1.3672    1.2009    1.8890 O   0  0  0  0  0  0  0  0  0  0  0  0
   -0.3129    2.1468    0.7872 N   0  0  0  0  0  0  0  0  0  0  0  0
   -1.1002    1.9860    0.1708 H   0  0  0  0  0  0  0  0  0  0  0  0
   -0.3150    3.3474    1.6157 C   0  0  0  0  0  0  0  0  0  0  0  0
    0.6666    3.8324    1.5904 H   0  0  0  0  0  0  0  0  0  0  0  0
   -1.0596    4.0591    1.2468 H   0  0  0  0  0  0  0  0  0  0  0  0
   -0.5581    3.0970    2.6537 H   0  0  0  0  0  0  0  0  0  0  0  0
  1  2  1  0  0  0  0
  2  3  1  0  0  0  0
  2  4  1  0  0  0  0
  2  5  1  0  0  0  0
  5  6  2  0  0  0  0
  5  7  1  0  0  0  0
  7  8  1  0  0  0  0
  7 17  1  0  0  0  0
  8  9  1  0  0  0  0
  8 10  1  0  0  0  0
  8 11  1  0  0  0  0
 11 12  1  0  0  0  0
 11 13  1  0  0  0  0
 11 14  1  0  0  0  0
 14 15  1  0  0  0  0
 14 16  1  0  0  0  0
 14 17  1  0  0  0  0
 17 18  1  0  0  0  0
 17 19  1  0  0  0  0
 19 20  2  0  0  0  0
 19 21  1  0  0  0  0
 21 22  1  0  0  0  0
 21 23  1  0  0  0  0
 23 24  1  0  0  0  0
 23 25  1  0  0  0  0
 23 26  1  0  0  0  0
M  END
$$$$

  -OEChem-11182114133D

 26 26  0     1  0  0  0  0  0999 V2000
   -1.2437   -4.2991    0.4751 H   0  0  0  0  0  0  0  0  0  0  0  0
   -1.6661   -3.3911    0.0363 C   0  0  0  0  0  0  0  0  0  0  0  0
   -2.3977   -2.9764    0.7343 H   0  0  0  0  0  0  0  0  0  0  0  0
   -2.1711   -3.6503   -0.8973 H   0  0  0  0  0  0  0  0  0  0  0  0
   -0.5547   -2.3811   -0.2302 C   0  0  0  0  0  0  0  0  0  0  0  0
    0.4974   -2.8266   -0.6715 O   0  0  0  0  0  0  0  0  0  0  0  0
   -0.7116   -1.0498    0.1936 N   0  0  0  0  0  0  0  0  0  0  0  0
   -1.6108   -0.6170   -0.9190 C   0  0  0  0  0  0  0  0  0  0  0  0
   -2.5494   -0.2340   -0.5041 H   0  0  0  0  0  0  0  0  0  0  0  0
   -1.8857   -1.3625   -1.6817 H   0  0  0  0  0  0  0  0  0  0  0  0
   -0.8582    0.4801   -1.5994 C   0  0  0  0  0  0  0  0  0  0  0  0
   -1.2383    1.4597   -1.3031 H   0  0  0  0  0  0  0  0  0  0  0  0
   -0.9845    0.4124   -2.6849 H   0  0  0  0  0  0  0  0  0  0  0  0
    0.6169    0.3045   -1.2337 C   0  0  0  0  0  0  0  0  0  0  0  0
    1.1822    1.2407   -1.3160 H   0  0  0  0  0  0  0  0  0  0  0  0
    1.0814   -0.4194   -1.9119 H   0  0  0  0  0  0  0  0  0  0  0  0
    0.5899   -0.2877    0.1922 C   0  0  1  0  0  0  0  0  0  0  0  0
    1.4778   -0.8766    0.4497 H   0  0  0  0  0  0  0  0  0  0  0  0
    0.5446    1.0272    1.0263 C   0  0  0  0  0  0  0  0  0  0  0  0
    1.5250    1.3078    1.7029 O   0  0  0  0  0  0  0  0  0  0  0  0
   -0.4865    1.9529    0.9933 N   0  0  0  0  0  0  0  0  0  0  0  0
   -1.3424    1.6543    0.5380 H   0  0  0  0  0  0  0  0  0  0  0  0
   -0.5090    3.1640    1.8053 C   0  0  0  0  0  0  0  0  0  0  0  0
    0.3531    3.7979    1.5722 H   0  0  0  0  0  0  0  0  0  0  0  0
   -1.4201    3.7358    1.6055 H   0  0  0  0  0  0  0  0  0  0  0  0
   -0.4837    2.9120    2.8706 H   0  0  0  0  0  0  0  0  0  0  0  0
  1  2  1  0  0  0  0
  2  3  1  0  0  0  0
  2  4  1  0  0  0  0
  2  5  1  0  0  0  0
  5  6  2  0  0  0  0
  5  7  1  0  0  0  0
  7  8  1  0  0  0  0
  7 17  1  0  0  0  0
  8  9  1  0  0  0  0
  8 10  1  0  0  0  0
  8 11  1  0  0  0  0
 11 12  1  0  0  0  0
 11 13  1  0  0  0  0
 11 14  1  0  0  0  0
 14 15  1  0  0  0  0
 14 16  1  0  0  0  0
 14 17  1  0  0  0  0
 17 18  1  0  0  0  0
 17 19  1  0  0  0  0
 19 20  2  0  0  0  0
 19 21  1  0  0  0  0
 21 22  1  0  0  0  0
 21 23  1  0  0  0  0
 23 24  1  0  0  0  0
 23 25  1  0  0  0  0
 23 26  1  0  0  0  0
M  END
$$$$

  -OEChem-11182114133D

 26 26  0     1  0  0  0  0  0999 V2000
   -1.5659   -3.9304    0.9595 H   0  0  0  0  0  0  0  0  0  0  0  0
   -1.8862   -3.0334    0.4225 C   0  0  0  0  0  0  0  0  0  0  0  0
   -2.5353   -2.4497    1.0800 H   0  0  0  0  0  0  0  0  0  0  0  0
   -2.4521   -3.3333   -0.4629 H   0  0  0  0  0  0  0  0  0  0  0  0
   -0.6665   -2.2135    0.0126 C   0  0  0  0  0  0  0  0  0  0  0  0
    0.2959   -2.8423   -0.4087 O   0  0  0  0  0  0  0  0  0  0  0  0
   -0.6154   -0.8414    0.3129 N   0  0  0  0  0  0  0  0  0  0  0  0
   -1.5650   -0.3758   -0.7404 C   0  0  0  0  0  0  0  0  0  0  0  0
   -1.9760   -1.1344   -1.4240 H   0  0  0  0  0  0  0  0  0  0  0  0
   -2.4231    0.1255   -0.2826 H   0  0  0  0  0  0  0  0  0  0  0  0
   -0.7675    0.5818   -1.5639 C   0  0  0  0  0  0  0  0  0  0  0  0
   -0.9752    1.6109   -1.2592 H   0  0  0  0  0  0  0  0  0  0  0  0
   -1.0262    0.4977   -2.6244 H   0  0  0  0  0  0  0  0  0  0  0  0
    0.7032    0.2488   -1.3388 C   0  0  0  0  0  0  0  0  0  0  0  0
    1.3625    1.0958   -1.5649 H   0  0  0  0  0  0  0  0  0  0  0  0
    0.9962   -0.5733   -2.0004 H   0  0  0  0  0  0  0  0  0  0  0  0
    0.7580   -0.2492    0.1232 C   0  0  1  0  0  0  0  0  0  0  0  0
    1.5917   -0.9277    0.3356 H   0  0  0  0  0  0  0  0  0  0  0  0
    1.0089    1.1358    0.8030 C   0  0  0  0  0  0  0  0  0  0  0  0
    2.1617    1.5163    0.9412 O   0  0  0  0  0  0  0  0  0  0  0  0
    0.1240    2.1610    1.0780 N   0  0  0  0  0  0  0  0  0  0  0  0
    0.6163    2.9894    1.4038 H   0  0  0  0  0  0  0  0  0  0  0  0
   -1.2170    1.9586    1.6100 C   0  0  0  0  0  0  0  0  0  0  0  0
   -1.4230    2.7087    2.3799 H   0  0  0  0  0  0  0  0  0  0  0  0
   -1.9675    2.0670    0.8226 H   0  0  0  0  0  0  0  0  0  0  0  0
   -1.3181    0.9724    2.0735 H   0  0  0  0  0  0  0  0  0  0  0  0
  1  2  1  0  0  0  0
  2  3  1  0  0  0  0
  2  4  1  0  0  0  0
  2  5  1  0  0  0  0
  5  6  2  0  0  0  0
  5  7  1  0  0  0  0
  7  8  1  0  0  0  0
  7 17  1  0  0  0  0
  8  9  1  0  0  0  0
  8 10  1  0  0  0  0
  8 11  1  0  0  0  0
 11 12  1  0  0  0  0
 11 13  1  0  0  0  0
 11 14  1  0  0  0  0
 14 15  1  0  0  0  0
 14 16  1  0  0  0  0
 14 17  1  0  0  0  0
 17 18  1  0  0  0  0
 17 19  1  0  0  0  0
 19 20  2  0  0  0  0
 19 21  1  0  0  0  0
 21 22  1  0  0  0  0
 21 23  1  0  0  0  0
 23 24  1  0  0  0  0
 23 25  1  0  0  0  0
 23 26  1  0  0  0  0
M  END
$$$$

  -OEChem-11182114133D

 26 26  0     1  0  0  0  0  0999 V2000
   -1.2881   -4.3366    0.3703 H   0  0  0  0  0  0  0  0  0  0  0  0
   -1.6822   -3.3914   -0.0133 C   0  0  0  0  0  0  0  0  0  0  0  0
   -2.3859   -2.9872    0.7187 H   0  0  0  0  0  0  0  0  0  0  0  0
   -2.2117   -3.5834   -0.9495 H   0  0  0  0  0  0  0  0  0  0  0  0
   -0.5374   -2.4104   -0.2471 C   0  0  0  0  0  0  0  0  0  0  0  0
    0.5148   -2.8836   -0.6564 O   0  0  0  0  0  0  0  0  0  0  0  0
   -0.6573   -1.0798    0.1896 N   0  0  0  0  0  0  0  0  0  0  0  0
   -1.5949   -0.5896   -0.8605 C   0  0  0  0  0  0  0  0  0  0  0  0
   -2.5193   -0.2267   -0.3986 H   0  0  0  0  0  0  0  0  0  0  0  0
   -1.8874   -1.3026   -1.6457 H   0  0  0  0  0  0  0  0  0  0  0  0
   -0.8610    0.5355   -1.5159 C   0  0  0  0  0  0  0  0  0  0  0  0
   -1.1967    1.4938   -1.1081 H   0  0  0  0  0  0  0  0  0  0  0  0
   -1.0524    0.5546   -2.5935 H   0  0  0  0  0  0  0  0  0  0  0  0
    0.6263    0.3293   -1.2354 C   0  0  0  0  0  0  0  0  0  0  0  0
    1.2007    1.2607   -1.3125 H   0  0  0  0  0  0  0  0  0  0  0  0
    1.0442   -0.3717   -1.9659 H   0  0  0  0  0  0  0  0  0  0  0  0
    0.6515   -0.3324    0.1591 C   0  0  1  0  0  0  0  0  0  0  0  0
    1.5505   -0.9203    0.3750 H   0  0  0  0  0  0  0  0  0  0  0  0
    0.6113    0.9689    1.0075 C   0  0  0  0  0  0  0  0  0  0  0  0
    1.6537    1.5512    1.2800 O   0  0  0  0  0  0  0  0  0  0  0  0
   -0.5836    1.5158    1.4453 N   0  0  0  0  0  0  0  0  0  0  0  0
   -1.4100    0.9399    1.3136 H   0  0  0  0  0  0  0  0  0  0  0  0
   -0.6672    2.6951    2.2974 C   0  0  0  0  0  0  0  0  0  0  0  0
   -0.1793    3.5501    1.8176 H   0  0  0  0  0  0  0  0  0  0  0  0
   -1.7139    2.9552    2.4812 H   0  0  0  0  0  0  0  0  0  0  0  0
   -0.1814    2.5070    3.2605 H   0  0  0  0  0  0  0  0  0  0  0  0
  1  2  1  0  0  0  0
  2  3  1  0  0  0  0
  2  4  1  0  0  0  0
  2  5  1  0  0  0  0
  5  6  2  0  0  0  0
  5  7  1  0  0  0  0
  7  8  1  0  0  0  0
  7 17  1  0  0  0  0
  8  9  1  0  0  0  0
  8 10  1  0  0  0  0
  8 11  1  0  0  0  0
 11 12  1  0  0  0  0
 11 13  1  0  0  0  0
 11 14  1  0  0  0  0
 14 15  1  0  0  0  0
 14 16  1  0  0  0  0
 14 17  1  0  0  0  0
 17 18  1  0  0  0  0
 17 19  1  0  0  0  0
 19 20  2  0  0  0  0
 19 21  1  0  0  0  0
 21 22  1  0  0  0  0
 21 23  1  0  0  0  0
 23 24  1  0  0  0  0
 23 25  1  0  0  0  0
 23 26  1  0  0  0  0
M  END
$$$$

  -OEChem-11182114133D

 26 26  0     1  0  0  0  0  0999 V2000
   -1.3396   -4.3302    0.3460 H   0  0  0  0  0  0  0  0  0  0  0  0
   -1.7003   -3.3760   -0.0481 C   0  0  0  0  0  0  0  0  0  0  0  0
   -2.4227   -2.9606    0.6590 H   0  0  0  0  0  0  0  0  0  0  0  0
   -2.1985   -3.5554   -1.0038 H   0  0  0  0  0  0  0  0  0  0  0  0
   -0.5286   -2.4161   -0.2366 C   0  0  0  0  0  0  0  0  0  0  0  0
    0.5337   -2.9156   -0.5831 O   0  0  0  0  0  0  0  0  0  0  0  0
   -0.6366   -1.0806    0.1888 N   0  0  0  0  0  0  0  0  0  0  0  0
   -1.5824   -0.5786   -0.8440 C   0  0  0  0  0  0  0  0  0  0  0  0
   -2.4987   -0.2108   -0.3703 H   0  0  0  0  0  0  0  0  0  0  0  0
   -1.8851   -1.2860   -1.6299 H   0  0  0  0  0  0  0  0  0  0  0  0
   -0.8444    0.5407   -1.4997 C   0  0  0  0  0  0  0  0  0  0  0  0
   -1.1631    1.4957   -1.0688 H   0  0  0  0  0  0  0  0  0  0  0  0
   -1.0519    0.5764   -2.5739 H   0  0  0  0  0  0  0  0  0  0  0  0
    0.6447    0.3232   -1.2381 C   0  0  0  0  0  0  0  0  0  0  0  0
    1.2263    1.2484   -1.3304 H   0  0  0  0  0  0  0  0  0  0  0  0
    1.0453   -0.3825   -1.9735 H   0  0  0  0  0  0  0  0  0  0  0  0
    0.6797   -0.3443    0.1557 C   0  0  1  0  0  0  0  0  0  0  0  0
    1.5793   -0.9314    0.3712 H   0  0  0  0  0  0  0  0  0  0  0  0
    0.6318    0.9625    0.9968 C   0  0  0  0  0  0  0  0  0  0  0  0
    1.6300    1.6605    1.1332 O   0  0  0  0  0  0  0  0  0  0  0  0
   -0.5251    1.3275    1.6640 N   0  0  0  0  0  0  0  0  0  0  0  0
   -1.2876    0.6562    1.6319 H   0  0  0  0  0  0  0  0  0  0  0  0
   -0.6149    2.4692    2.5652 C   0  0  0  0  0  0  0  0  0  0  0  0
   -0.3475    3.3930    2.0415 H   0  0  0  0  0  0  0  0  0  0  0  0
   -1.6361    2.5720    2.9442 H   0  0  0  0  0  0  0  0  0  0  0  0
    0.0607    2.3389    3.4170 H   0  0  0  0  0  0  0  0  0  0  0  0
  1  2  1  0  0  0  0
  2  3  1  0  0  0  0
  2  4  1  0  0  0  0
  2  5  1  0  0  0  0
  5  6  2  0  0  0  0
  5  7  1  0  0  0  0
  7  8  1  0  0  0  0
  7 17  1  0  0  0  0
  8  9  1  0  0  0  0
  8 10  1  0  0  0  0
  8 11  1  0  0  0  0
 11 12  1  0  0  0  0
 11 13  1  0  0  0  0
 11 14  1  0  0  0  0
 14 15  1  0  0  0  0
 14 16  1  0  0  0  0
 14 17  1  0  0  0  0
 17 18  1  0  0  0  0
 17 19  1  0  0  0  0
 19 20  2  0  0  0  0
 19 21  1  0  0  0  0
 21 22  1  0  0  0  0
 21 23  1  0  0  0  0
 23 24  1  0  0  0  0
 23 25  1  0  0  0  0
 23 26  1  0  0  0  0
M  END
$$$$

  -OEChem-11182114133D

 26 26  0     1  0  0  0  0  0999 V2000
   -1.3404   -4.3060    0.3785 H   0  0  0  0  0  0  0  0  0  0  0  0
   -1.6982   -3.3611   -0.0397 C   0  0  0  0  0  0  0  0  0  0  0  0
   -2.4251   -2.9301    0.6532 H   0  0  0  0  0  0  0  0  0  0  0  0
   -2.1902   -3.5618   -0.9944 H   0  0  0  0  0  0  0  0  0  0  0  0
   -0.5241   -2.4068   -0.2426 C   0  0  0  0  0  0  0  0  0  0  0  0
    0.5344   -2.9152   -0.5873 O   0  0  0  0  0  0  0  0  0  0  0  0
   -0.6207   -1.0700    0.1816 N   0  0  0  0  0  0  0  0  0  0  0  0
   -1.5811   -0.5643   -0.8334 C   0  0  0  0  0  0  0  0  0  0  0  0
   -2.4842   -0.1850   -0.3437 H   0  0  0  0  0  0  0  0  0  0  0  0
   -1.9053   -1.2716   -1.6104 H   0  0  0  0  0  0  0  0  0  0  0  0
   -0.8430    0.5442   -1.5034 C   0  0  0  0  0  0  0  0  0  0  0  0
   -1.1467    1.5021   -1.0674 H   0  0  0  0  0  0  0  0  0  0  0  0
   -1.0674    0.5800   -2.5742 H   0  0  0  0  0  0  0  0  0  0  0  0
    0.6489    0.3203   -1.2645 C   0  0  0  0  0  0  0  0  0  0  0  0
    1.2341    1.2398   -1.3799 H   0  0  0  0  0  0  0  0  0  0  0  0
    1.0322   -0.3934   -2.0014 H   0  0  0  0  0  0  0  0  0  0  0  0
    0.7005   -0.3415    0.1335 C   0  0  1  0  0  0  0  0  0  0  0  0
    1.6006   -0.9289    0.3450 H   0  0  0  0  0  0  0  0  0  0  0  0
    0.6460    0.9640    0.9798 C   0  0  0  0  0  0  0  0  0  0  0  0
    1.5656    1.7756    0.9838 O   0  0  0  0  0  0  0  0  0  0  0  0
   -0.3885    1.1487    1.8803 N   0  0  0  0  0  0  0  0  0  0  0  0
   -1.0733    0.3993    1.9338 H   0  0  0  0  0  0  0  0  0  0  0  0
   -0.4582    2.2529    2.8288 C   0  0  0  0  0  0  0  0  0  0  0  0
   -0.4191    3.2128    2.3033 H   0  0  0  0  0  0  0  0  0  0  0  0
   -1.3946    2.2070    3.3929 H   0  0  0  0  0  0  0  0  0  0  0  0
    0.3762    2.2033    3.5362 H   0  0  0  0  0  0  0  0  0  0  0  0
  1  2  1  0  0  0  0
  2  3  1  0  0  0  0
  2  4  1  0  0  0  0
  2  5  1  0  0  0  0
  5  6  2  0  0  0  0
  5  7  1  0  0  0  0
  7  8  1  0  0  0  0
  7 17  1  0  0  0  0
  8  9  1  0  0  0  0
  8 10  1  0  0  0  0
  8 11  1  0  0  0  0
 11 12  1  0  0  0  0
 11 13  1  0  0  0  0
 11 14  1  0  0  0  0
 14 15  1  0  0  0  0
 14 16  1  0  0  0  0
 14 17  1  0  0  0  0
 17 18  1  0  0  0  0
 17 19  1  0  0  0  0
 19 20  2  0  0  0  0
 19 21  1  0  0  0  0
 21 22  1  0  0  0  0
 21 23  1  0  0  0  0
 23 24  1  0  0  0  0
 23 25  1  0  0  0  0
 23 26  1  0  0  0  0
M  END
$$$$

  -OEChem-11182114133D

 26 26  0     1  0  0  0  0  0999 V2000
   -1.3478   -4.2780    0.3991 H   0  0  0  0  0  0  0  0  0  0  0  0
   -1.7016   -3.3362   -0.0294 C   0  0  0  0  0  0  0  0  0  0  0  0
   -2.4266   -2.8944    0.6587 H   0  0  0  0  0  0  0  0  0  0  0  0
   -2.1948   -3.5456   -0.9817 H   0  0  0  0  0  0  0  0  0  0  0  0
   -0.5238   -2.3883   -0.2432 C   0  0  0  0  0  0  0  0  0  0  0  0
    0.5335   -2.9074   -0.5756 O   0  0  0  0  0  0  0  0  0  0  0  0
   -0.6104   -1.0500    0.1798 N   0  0  0  0  0  0  0  0  0  0  0  0
   -1.5786   -0.5490   -0.8302 C   0  0  0  0  0  0  0  0  0  0  0  0
   -2.4706   -0.1531   -0.3331 H   0  0  0  0  0  0  0  0  0  0  0  0
   -1.9224   -1.2607   -1.5947 H   0  0  0  0  0  0  0  0  0  0  0  0
   -0.8365    0.5414   -1.5222 C   0  0  0  0  0  0  0  0  0  0  0  0
   -1.1289    1.5079   -1.0978 H   0  0  0  0  0  0  0  0  0  0  0  0
   -1.0698    0.5630   -2.5916 H   0  0  0  0  0  0  0  0  0  0  0  0
    0.6561    0.3126   -1.2938 C   0  0  0  0  0  0  0  0  0  0  0  0
    1.2491    1.2222   -1.4371 H   0  0  0  0  0  0  0  0  0  0  0  0
    1.0251   -0.4185   -2.0207 H   0  0  0  0  0  0  0  0  0  0  0  0
    0.7148   -0.3291    0.1150 C   0  0  1  0  0  0  0  0  0  0  0  0
    1.6141   -0.9161    0.3296 H   0  0  0  0  0  0  0  0  0  0  0  0
    0.6480    0.9742    0.9694 C   0  0  0  0  0  0  0  0  0  0  0  0
    1.4407    1.9030    0.8465 O   0  0  0  0  0  0  0  0  0  0  0  0
   -0.1898    0.9959    2.0707 N   0  0  0  0  0  0  0  0  0  0  0  0
   -0.7728    0.1744    2.2071 H   0  0  0  0  0  0  0  0  0  0  0  0
   -0.2183    2.0666    3.0594 C   0  0  0  0  0  0  0  0  0  0  0  0
   -0.4558    3.0229    2.5821 H   0  0  0  0  0  0  0  0  0  0  0  0
   -0.9802    1.8604    3.8172 H   0  0  0  0  0  0  0  0  0  0  0  0
    0.7524    2.1524    3.5589 H   0  0  0  0  0  0  0  0  0  0  0  0
  1  2  1  0  0  0  0
  2  3  1  0  0  0  0
  2  4  1  0  0  0  0
  2  5  1  0  0  0  0
  5  6  2  0  0  0  0
  5  7  1  0  0  0  0
  7  8  1  0  0  0  0
  7 17  1  0  0  0  0
  8  9  1  0  0  0  0
  8 10  1  0  0  0  0
  8 11  1  0  0  0  0
 11 12  1  0  0  0  0
 11 13  1  0  0  0  0
 11 14  1  0  0  0  0
 14 15  1  0  0  0  0
 14 16  1  0  0  0  0
 14 17  1  0  0  0  0
 17 18  1  0  0  0  0
 17 19  1  0  0  0  0
 19 20  2  0  0  0  0
 19 21  1  0  0  0  0
 21 22  1  0  0  0  0
 21 23  1  0  0  0  0
 23 24  1  0  0  0  0
 23 25  1  0  0  0  0
 23 26  1  0  0  0  0
M  END
$$$$

  -OEChem-11182114133D

 26 26  0     1  0  0  0  0  0999 V2000
   -1.3637   -4.2468    0.4200 H   0  0  0  0  0  0  0  0  0  0  0  0
   -1.7150   -3.3046   -0.0099 C   0  0  0  0  0  0  0  0  0  0  0  0
   -2.4284   -2.8530    0.6841 H   0  0  0  0  0  0  0  0  0  0  0  0
   -2.2211   -3.5158   -0.9550 H   0  0  0  0  0  0  0  0  0  0  0  0
   -0.5321   -2.3672   -0.2436 C   0  0  0  0  0  0  0  0  0  0  0  0
    0.5165   -2.8992   -0.5845 O   0  0  0  0  0  0  0  0  0  0  0  0
   -0.5969   -1.0293    0.1860 N   0  0  0  0  0  0  0  0  0  0  0  0
   -1.5716   -0.5236   -0.8168 C   0  0  0  0  0  0  0  0  0  0  0  0
   -2.4475   -0.1043   -0.3103 H   0  0  0  0  0  0  0  0  0  0  0  0
   -1.9431   -1.2350   -1.5688 H   0  0  0  0  0  0  0  0  0  0  0  0
   -0.8198    0.5443   -1.5322 C   0  0  0  0  0  0  0  0  0  0  0  0
   -1.0922    1.5212   -1.1180 H   0  0  0  0  0  0  0  0  0  0  0  0
   -1.0661    0.5554   -2.5988 H   0  0  0  0  0  0  0  0  0  0  0  0
    0.6729    0.2984   -1.3200 C   0  0  0  0  0  0  0  0  0  0  0  0
    1.2834    1.1914   -1.4885 H   0  0  0  0  0  0  0  0  0  0  0  0
    1.0186   -0.4507   -2.0400 H   0  0  0  0  0  0  0  0  0  0  0  0
    0.7357   -0.3253    0.0970 C   0  0  1  0  0  0  0  0  0  0  0  0
    1.6305   -0.9194    0.3106 H   0  0  0  0  0  0  0  0  0  0  0  0
    0.6666    0.9702    0.9698 C   0  0  0  0  0  0  0  0  0  0  0  0
    1.2393    2.0261    0.7152 O   0  0  0  0  0  0  0  0  0  0  0  0
    0.0974    0.8582    2.2262 N   0  0  0  0  0  0  0  0  0  0  0  0
   -0.3498   -0.0288    2.4413 H   0  0  0  0  0  0  0  0  0  0  0  0
    0.0661    1.9308    3.2133 C   0  0  0  0  0  0  0  0  0  0  0  0
   -0.4819    2.7947    2.8233 H   0  0  0  0  0  0  0  0  0  0  0  0
   -0.4304    1.5891    4.1264 H   0  0  0  0  0  0  0  0  0  0  0  0
    1.0832    2.2445    3.4708 H   0  0  0  0  0  0  0  0  0  0  0  0
  1  2  1  0  0  0  0
  2  3  1  0  0  0  0
  2  4  1  0  0  0  0
  2  5  1  0  0  0  0
  5  6  2  0  0  0  0
  5  7  1  0  0  0  0
  7  8  1  0  0  0  0
  7 17  1  0  0  0  0
  8  9  1  0  0  0  0
  8 10  1  0  0  0  0
  8 11  1  0  0  0  0
 11 12  1  0  0  0  0
 11 13  1  0  0  0  0
 11 14  1  0  0  0  0
 14 15  1  0  0  0  0
 14 16  1  0  0  0  0
 14 17  1  0  0  0  0
 17 18  1  0  0  0  0
 17 19  1  0  0  0  0
 19 20  2  0  0  0  0
 19 21  1  0  0  0  0
 21 22  1  0  0  0  0
 21 23  1  0  0  0  0
 23 24  1  0  0  0  0
 23 25  1  0  0  0  0
 23 26  1  0  0  0  0
M  END
$$$$

  -OEChem-11182114133D

 26 26  0     1  0  0  0  0  0999 V2000
   -1.3816   -4.2172    0.4442 H   0  0  0  0  0  0  0  0  0  0  0  0
   -1.7305   -3.2769    0.0087 C   0  0  0  0  0  0  0  0  0  0  0  0
   -2.4371   -2.8157    0.7035 H   0  0  0  0  0  0  0  0  0  0  0  0
   -2.2436   -3.4932   -0.9315 H   0  0  0  0  0  0  0  0  0  0  0  0
   -0.5437   -2.3482   -0.2405 C   0  0  0  0  0  0  0  0  0  0  0  0
    0.4974   -2.8912   -0.5882 O   0  0  0  0  0  0  0  0  0  0  0  0
   -0.5899   -1.0107    0.1936 N   0  0  0  0  0  0  0  0  0  0  0  0
   -1.5665   -0.5025   -0.8082 C   0  0  0  0  0  0  0  0  0  0  0  0
   -2.4295   -0.0617   -0.2975 H   0  0  0  0  0  0  0  0  0  0  0  0
   -1.9606   -1.2139   -1.5488 H   0  0  0  0  0  0  0  0  0  0  0  0
   -0.8053    0.5456   -1.5425 C   0  0  0  0  0  0  0  0  0  0  0  0
   -1.0648    1.5316   -1.1419 H   0  0  0  0  0  0  0  0  0  0  0  0
   -1.0588    0.5448   -2.6073 H   0  0  0  0  0  0  0  0  0  0  0  0
    0.6873    0.2851   -1.3386 C   0  0  0  0  0  0  0  0  0  0  0  0
    1.3129    1.1659   -1.5161 H   0  0  0  0  0  0  0  0  0  0  0  0
    1.0186   -0.4762   -2.0526 H   0  0  0  0  0  0  0  0  0  0  0  0
    0.7482   -0.3216    0.0850 C   0  0  1  0  0  0  0  0  0  0  0  0
    1.6380   -0.9240    0.2963 H   0  0  0  0  0  0  0  0  0  0  0  0
    0.6897    0.9700    0.9690 C   0  0  0  0  0  0  0  0  0  0  0  0
    0.9588    2.1154    0.6145 O   0  0  0  0  0  0  0  0  0  0  0  0
    0.4378    0.7825    2.3168 N   0  0  0  0  0  0  0  0  0  0  0  0
    0.1864   -0.1592    2.6041 H   0  0  0  0  0  0  0  0  0  0  0  0
    0.3921    1.8592    3.2990 C   0  0  0  0  0  0  0  0  0  0  0  0
   -0.4019    2.5711    3.0506 H   0  0  0  0  0  0  0  0  0  0  0  0
    0.1940    1.4527    4.2954 H   0  0  0  0  0  0  0  0  0  0  0  0
    1.3481    2.3927    3.3283 H   0  0  0  0  0  0  0  0  0  0  0  0
  1  2  1  0  0  0  0
  2  3  1  0  0  0  0
  2  4  1  0  0  0  0
  2  5  1  0  0  0  0
  5  6  2  0  0  0  0
  5  7  1  0  0  0  0
  7  8  1  0  0  0  0
  7 17  1  0  0  0  0
  8  9  1  0  0  0  0
  8 10  1  0  0  0  0
  8 11  1  0  0  0  0
 11 12  1  0  0  0  0
 11 13  1  0  0  0  0
 11 14  1  0  0  0  0
 14 15  1  0  0  0  0
 14 16  1  0  0  0  0
 14 17  1  0  0  0  0
 17 18  1  0  0  0  0
 17 19  1  0  0  0  0
 19 20  2  0  0  0  0
 19 21  1  0  0  0  0
 21 22  1  0  0  0  0
 21 23  1  0  0  0  0
 23 24  1  0  0  0  0
 23 25  1  0  0  0  0
 23 26  1  0  0  0  0
M  END
$$$$

  -OEChem-11182114133D

 26 26  0     1  0  0  0  0  0999 V2000
   -1.3897   -4.2049    0.4563 H   0  0  0  0  0  0  0  0  0  0  0  0
   -1.7400   -3.2696    0.0113 C   0  0  0  0  0  0  0  0  0  0  0  0
   -2.4506   -2.8046    0.6994 H   0  0  0  0  0  0  0  0  0  0  0  0
   -2.2489   -3.4957   -0.9287 H   0  0  0  0  0  0  0  0  0  0  0  0
   -0.5555   -2.3387   -0.2416 C   0  0  0  0  0  0  0  0  0  0  0  0
    0.4859   -2.8805   -0.5915 O   0  0  0  0  0  0  0  0  0  0  0  0
   -0.6033   -1.0020    0.1946 N   0  0  0  0  0  0  0  0  0  0  0  0
   -1.5735   -0.5013   -0.8188 C   0  0  0  0  0  0  0  0  0  0  0  0
   -2.4385   -0.0560   -0.3157 H   0  0  0  0  0  0  0  0  0  0  0  0
   -1.9660   -1.2158   -1.5575 H   0  0  0  0  0  0  0  0  0  0  0  0
   -0.8082    0.5414   -1.5556 C   0  0  0  0  0  0  0  0  0  0  0  0
   -1.0804    1.5307   -1.1736 H   0  0  0  0  0  0  0  0  0  0  0  0
   -1.0492    0.5262   -2.6230 H   0  0  0  0  0  0  0  0  0  0  0  0
    0.6843    0.2824   -1.3350 C   0  0  0  0  0  0  0  0  0  0  0  0
    1.3100    1.1660   -1.5013 H   0  0  0  0  0  0  0  0  0  0  0  0
    1.0259   -0.4796   -2.0432 H   0  0  0  0  0  0  0  0  0  0  0  0
    0.7354   -0.3136    0.0927 C   0  0  1  0  0  0  0  0  0  0  0  0
    1.6217   -0.9215    0.3022 H   0  0  0  0  0  0  0  0  0  0  0  0
    0.6982    0.9823    0.9738 C   0  0  0  0  0  0  0  0  0  0  0  0
    0.6820    2.1490    0.5859 O   0  0  0  0  0  0  0  0  0  0  0  0
    0.7740    0.7890    2.3421 N   0  0  0  0  0  0  0  0  0  0  0  0
    0.7341   -0.1718    2.6704 H   0  0  0  0  0  0  0  0  0  0  0  0
    0.7660    1.8701    3.3212 C   0  0  0  0  0  0  0  0  0  0  0  0
   -0.1674    2.4389    3.2566 H   0  0  0  0  0  0  0  0  0  0  0  0
    0.8550    1.4639    4.3333 H   0  0  0  0  0  0  0  0  0  0  0  0
    1.6067    2.5503    3.1482 H   0  0  0  0  0  0  0  0  0  0  0  0
  1  2  1  0  0  0  0
  2  3  1  0  0  0  0
  2  4  1  0  0  0  0
  2  5  1  0  0  0  0
  5  6  2  0  0  0  0
  5  7  1  0  0  0  0
  7  8  1  0  0  0  0
  7 17  1  0  0  0  0
  8  9  1  0  0  0  0
  8 10  1  0  0  0  0
  8 11  1  0  0  0  0
 11 12  1  0  0  0  0
 11 13  1  0  0  0  0
 11 14  1  0  0  0  0
 14 15  1  0  0  0  0
 14 16  1  0  0  0  0
 14 17  1  0  0  0  0
 17 18  1  0  0  0  0
 17 19  1  0  0  0  0
 19 20  2  0  0  0  0
 19 21  1  0  0  0  0
 21 22  1  0  0  0  0
 21 23  1  0  0  0  0
 23 24  1  0  0  0  0
 23 25  1  0  0  0  0
 23 26  1  0  0  0  0
M  END
$$$$

  -OEChem-11182114133D

 26 26  0     1  0  0  0  0  0999 V2000
   -1.4000   -4.2026    0.4610 H   0  0  0  0  0  0  0  0  0  0  0  0
   -1.7503   -3.2702    0.0100 C   0  0  0  0  0  0  0  0  0  0  0  0
   -2.4688   -2.8061    0.6906 H   0  0  0  0  0  0  0  0  0  0  0  0
   -2.2504   -3.5010   -0.9336 H   0  0  0  0  0  0  0  0  0  0  0  0
   -0.5680   -2.3348   -0.2360 C   0  0  0  0  0  0  0  0  0  0  0  0
    0.4788   -2.8735   -0.5755 O   0  0  0  0  0  0  0  0  0  0  0  0
   -0.6273   -0.9974    0.1966 N   0  0  0  0  0  0  0  0  0  0  0  0
   -1.5843   -0.5089   -0.8367 C   0  0  0  0  0  0  0  0  0  0  0  0
   -2.4585   -0.0643   -0.3489 H   0  0  0  0  0  0  0  0  0  0  0  0
   -1.9643   -1.2294   -1.5763 H   0  0  0  0  0  0  0  0  0  0  0  0
   -0.8150    0.5329   -1.5688 C   0  0  0  0  0  0  0  0  0  0  0  0
   -1.1105    1.5246   -1.2137 H   0  0  0  0  0  0  0  0  0  0  0  0
   -1.0320    0.4981   -2.6409 H   0  0  0  0  0  0  0  0  0  0  0  0
    0.6752    0.2814   -1.3160 C   0  0  0  0  0  0  0  0  0  0  0  0
    1.2930    1.1745   -1.4638 H   0  0  0  0  0  0  0  0  0  0  0  0
    1.0386   -0.4773   -2.0169 H   0  0  0  0  0  0  0  0  0  0  0  0
    0.7110   -0.3048    0.1161 C   0  0  1  0  0  0  0  0  0  0  0  0
    1.5925   -0.9191    0.3276 H   0  0  0  0  0  0  0  0  0  0  0  0
    0.7062    1.0023    0.9806 C   0  0  0  0  0  0  0  0  0  0  0  0
    0.4235    2.1417    0.6155 O   0  0  0  0  0  0  0  0  0  0  0  0
    1.0990    0.8586    2.3000 N   0  0  0  0  0  0  0  0  0  0  0  0
    1.2720   -0.0875    2.6273 H   0  0  0  0  0  0  0  0  0  0  0  0
    1.1388    1.9532    3.2630 C   0  0  0  0  0  0  0  0  0  0  0  0
    0.1375    2.3716    3.4085 H   0  0  0  0  0  0  0  0  0  0  0  0
    1.5081    1.5936    4.2281 H   0  0  0  0  0  0  0  0  0  0  0  0
    1.8064    2.7478    2.9137 H   0  0  0  0  0  0  0  0  0  0  0  0
  1  2  1  0  0  0  0
  2  3  1  0  0  0  0
  2  4  1  0  0  0  0
  2  5  1  0  0  0  0
  5  6  2  0  0  0  0
  5  7  1  0  0  0  0
  7  8  1  0  0  0  0
  7 17  1  0  0  0  0
  8  9  1  0  0  0  0
  8 10  1  0  0  0  0
  8 11  1  0  0  0  0
 11 12  1  0  0  0  0
 11 13  1  0  0  0  0
 11 14  1  0  0  0  0
 14 15  1  0  0  0  0
 14 16  1  0  0  0  0
 14 17  1  0  0  0  0
 17 18  1  0  0  0  0
 17 19  1  0  0  0  0
 19 20  2  0  0  0  0
 19 21  1  0  0  0  0
 21 22  1  0  0  0  0
 21 23  1  0  0  0  0
 23 24  1  0  0  0  0
 23 25  1  0  0  0  0
 23 26  1  0  0  0  0
M  END
$$$$

  -OEChem-11182114133D

 26 26  0     1  0  0  0  0  0999 V2000
   -1.4079   -4.2019    0.4725 H   0  0  0  0  0  0  0  0  0  0  0  0
   -1.7589   -3.2742    0.0123 C   0  0  0  0  0  0  0  0  0  0  0  0
   -2.4879   -2.8101    0.6816 H   0  0  0  0  0  0  0  0  0  0  0  0
   -2.2462   -3.5133   -0.9360 H   0  0  0  0  0  0  0  0  0  0  0  0
   -0.5796   -2.3331   -0.2248 C   0  0  0  0  0  0  0  0  0  0  0  0
    0.4722   -2.8657   -0.5598 O   0  0  0  0  0  0  0  0  0  0  0  0
   -0.6526   -0.9941    0.2001 N   0  0  0  0  0  0  0  0  0  0  0  0
   -1.5938   -0.5162   -0.8538 C   0  0  0  0  0  0  0  0  0  0  0  0
   -2.4798   -0.0769   -0.3828 H   0  0  0  0  0  0  0  0  0  0  0  0
   -1.9555   -1.2425   -1.5970 H   0  0  0  0  0  0  0  0  0  0  0  0
   -0.8215    0.5306   -1.5763 C   0  0  0  0  0  0  0  0  0  0  0  0
   -1.1381    1.5228   -1.2439 H   0  0  0  0  0  0  0  0  0  0  0  0
   -1.0136    0.4815   -2.6526 H   0  0  0  0  0  0  0  0  0  0  0  0
    0.6645    0.2875   -1.2906 C   0  0  0  0  0  0  0  0  0  0  0  0
    1.2708    1.1919   -1.4188 H   0  0  0  0  0  0  0  0  0  0  0  0
    1.0514   -0.4651   -1.9857 H   0  0  0  0  0  0  0  0  0  0  0  0
    0.6840   -0.2953    0.1430 C   0  0  1  0  0  0  0  0  0  0  0  0
    1.5606   -0.9152    0.3574 H   0  0  0  0  0  0  0  0  0  0  0  0
    0.7122    1.0241    0.9848 C   0  0  0  0  0  0  0  0  0  0  0  0
    0.1646    2.0891    0.7116 O   0  0  0  0  0  0  0  0  0  0  0  0
    1.3944    0.9717    2.1884 N   0  0  0  0  0  0  0  0  0  0  0  0
    1.7821    0.0733    2.4616 H   0  0  0  0  0  0  0  0  0  0  0  0
    1.4751    2.0850    3.1273 C   0  0  0  0  0  0  0  0  0  0  0  0
    0.4771    2.3558    3.4875 H   0  0  0  0  0  0  0  0  0  0  0  0
    2.0911    1.8090    3.9884 H   0  0  0  0  0  0  0  0  0  0  0  0
    1.9269    2.9594    2.6470 H   0  0  0  0  0  0  0  0  0  0  0  0
  1  2  1  0  0  0  0
  2  3  1  0  0  0  0
  2  4  1  0  0  0  0
  2  5  1  0  0  0  0
  5  6  2  0  0  0  0
  5  7  1  0  0  0  0
  7  8  1  0  0  0  0
  7 17  1  0  0  0  0
  8  9  1  0  0  0  0
  8 10  1  0  0  0  0
  8 11  1  0  0  0  0
 11 12  1  0  0  0  0
 11 13  1  0  0  0  0
 11 14  1  0  0  0  0
 14 15  1  0  0  0  0
 14 16  1  0  0  0  0
 14 17  1  0  0  0  0
 17 18  1  0  0  0  0
 17 19  1  0  0  0  0
 19 20  2  0  0  0  0
 19 21  1  0  0  0  0
 21 22  1  0  0  0  0
 21 23  1  0  0  0  0
 23 24  1  0  0  0  0
 23 25  1  0  0  0  0
 23 26  1  0  0  0  0
M  END
$$$$

  -OEChem-11182114133D

 26 26  0     1  0  0  0  0  0999 V2000
   -1.4251   -4.1951    0.4974 H   0  0  0  0  0  0  0  0  0  0  0  0
   -1.7702   -3.2641    0.0395 C   0  0  0  0  0  0  0  0  0  0  0  0
   -2.4943   -2.7958    0.7112 H   0  0  0  0  0  0  0  0  0  0  0  0
   -2.2614   -3.4979   -0.9081 H   0  0  0  0  0  0  0  0  0  0  0  0
   -0.5849   -2.3309   -0.1971 C   0  0  0  0  0  0  0  0  0  0  0  0
    0.4679   -2.8686   -0.5211 O   0  0  0  0  0  0  0  0  0  0  0  0
   -0.6590   -0.9857    0.2046 N   0  0  0  0  0  0  0  0  0  0  0  0
   -1.5883   -0.5155   -0.8635 C   0  0  0  0  0  0  0  0  0  0  0  0
   -2.4825   -0.0790   -0.4060 H   0  0  0  0  0  0  0  0  0  0  0  0
   -1.9347   -1.2492   -1.6064 H   0  0  0  0  0  0  0  0  0  0  0  0
   -0.8135    0.5333   -1.5842 C   0  0  0  0  0  0  0  0  0  0  0  0
   -1.1332    1.5279   -1.2619 H   0  0  0  0  0  0  0  0  0  0  0  0
   -0.9956    0.4769   -2.6619 H   0  0  0  0  0  0  0  0  0  0  0  0
    0.6683    0.2916   -1.2824 C   0  0  0  0  0  0  0  0  0  0  0  0
    1.2702    1.2000   -1.4044 H   0  0  0  0  0  0  0  0  0  0  0  0
    1.0640   -0.4610   -1.9725 H   0  0  0  0  0  0  0  0  0  0  0  0
    0.6765   -0.2867    0.1517 C   0  0  1  0  0  0  0  0  0  0  0  0
    1.5488   -0.9093    0.3752 H   0  0  0  0  0  0  0  0  0  0  0  0
    0.7215    1.0479    0.9626 C   0  0  0  0  0  0  0  0  0  0  0  0
   -0.0724    1.9783    0.8589 O   0  0  0  0  0  0  0  0  0  0  0  0
    1.6458    1.1299    1.9905 N   0  0  0  0  0  0  0  0  0  0  0  0
    2.2303    0.3154    2.1548 H   0  0  0  0  0  0  0  0  0  0  0  0
    1.7173    2.2433    2.9302 C   0  0  0  0  0  0  0  0  0  0  0  0
    0.7939    2.3111    3.5150 H   0  0  0  0  0  0  0  0  0  0  0  0
    2.5547    2.1019    3.6200 H   0  0  0  0  0  0  0  0  0  0  0  0
    1.8672    3.1876    2.3962 H   0  0  0  0  0  0  0  0  0  0  0  0
  1  2  1  0  0  0  0
  2  3  1  0  0  0  0
  2  4  1  0  0  0  0
  2  5  1  0  0  0  0
  5  6  2  0  0  0  0
  5  7  1  0  0  0  0
  7  8  1  0  0  0  0
  7 17  1  0  0  0  0
  8  9  1  0  0  0  0
  8 10  1  0  0  0  0
  8 11  1  0  0  0  0
 11 12  1  0  0  0  0
 11 13  1  0  0  0  0
 11 14  1  0  0  0  0
 14 15  1  0  0  0  0
 14 16  1  0  0  0  0
 14 17  1  0  0  0  0
 17 18  1  0  0  0  0
 17 19  1  0  0  0  0
 19 20  2  0  0  0  0
 19 21  1  0  0  0  0
 21 22  1  0  0  0  0
 21 23  1  0  0  0  0
 23 24  1  0  0  0  0
 23 25  1  0  0  0  0
 23 26  1  0  0  0  0
M  END
$$$$

  -OEChem-11182114133D

 26 26  0     1  0  0  0  0  0999 V2000
   -1.4236   -4.1965    0.5216 H   0  0  0  0  0  0  0  0  0  0  0  0
   -1.7678   -3.2667    0.0607 C   0  0  0  0  0  0  0  0  0  0  0  0
   -2.4923   -2.7960    0.7302 H   0  0  0  0  0  0  0  0  0  0  0  0
   -2.2580   -3.5020   -0.8869 H   0  0  0  0  0  0  0  0  0  0  0  0
   -0.5822   -2.3348   -0.1767 C   0  0  0  0  0  0  0  0  0  0  0  0
    0.4718   -2.8683   -0.5045 O   0  0  0  0  0  0  0  0  0  0  0  0
   -0.6617   -0.9857    0.2067 N   0  0  0  0  0  0  0  0  0  0  0  0
   -1.5839   -0.5166   -0.8663 C   0  0  0  0  0  0  0  0  0  0  0  0
   -2.4876   -0.0911   -0.4168 H   0  0  0  0  0  0  0  0  0  0  0  0
   -1.9120   -1.2531   -1.6143 H   0  0  0  0  0  0  0  0  0  0  0  0
   -0.8110    0.5438   -1.5755 C   0  0  0  0  0  0  0  0  0  0  0  0
   -1.1300    1.5333   -1.2357 H   0  0  0  0  0  0  0  0  0  0  0  0
   -0.9919    0.5021   -2.6541 H   0  0  0  0  0  0  0  0  0  0  0  0
    0.6693    0.3070   -1.2706 C   0  0  0  0  0  0  0  0  0  0  0  0
    1.2676    1.2188   -1.3864 H   0  0  0  0  0  0  0  0  0  0  0  0
    1.0704   -0.4406   -1.9630 H   0  0  0  0  0  0  0  0  0  0  0  0
    0.6691   -0.2810    0.1581 C   0  0  1  0  0  0  0  0  0  0  0  0
    1.5417   -0.8990    0.3927 H   0  0  0  0  0  0  0  0  0  0  0  0
    0.7026    1.0628    0.9489 C   0  0  0  0  0  0  0  0  0  0  0  0
   -0.2396    1.8452    1.0303 O   0  0  0  0  0  0  0  0  0  0  0  0
    1.7984    1.3065    1.7597 N   0  0  0  0  0  0  0  0  0  0  0  0
    2.5272    0.5993    1.7825 H   0  0  0  0  0  0  0  0  0  0  0  0
    1.8894    2.4365    2.6773 C   0  0  0  0  0  0  0  0  0  0  0  0
    1.1038    2.3763    3.4376 H   0  0  0  0  0  0  0  0  0  0  0  0
    2.8605    2.4366    3.1815 H   0  0  0  0  0  0  0  0  0  0  0  0
    1.7834    3.3815    2.1343 H   0  0  0  0  0  0  0  0  0  0  0  0
  1  2  1  0  0  0  0
  2  3  1  0  0  0  0
  2  4  1  0  0  0  0
  2  5  1  0  0  0  0
  5  6  2  0  0  0  0
  5  7  1  0  0  0  0
  7  8  1  0  0  0  0
  7 17  1  0  0  0  0
  8  9  1  0  0  0  0
  8 10  1  0  0  0  0
  8 11  1  0  0  0  0
 11 12  1  0  0  0  0
 11 13  1  0  0  0  0
 11 14  1  0  0  0  0
 14 15  1  0  0  0  0
 14 16  1  0  0  0  0
 14 17  1  0  0  0  0
 17 18  1  0  0  0  0
 17 19  1  0  0  0  0
 19 20  2  0  0  0  0
 19 21  1  0  0  0  0
 21 22  1  0  0  0  0
 21 23  1  0  0  0  0
 23 24  1  0  0  0  0
 23 25  1  0  0  0  0
 23 26  1  0  0  0  0
M  END
$$$$

  -OEChem-11182114133D

 26 26  0     1  0  0  0  0  0999 V2000
   -1.4124   -4.2099    0.5134 H   0  0  0  0  0  0  0  0  0  0  0  0
   -1.7579   -3.2761    0.0617 C   0  0  0  0  0  0  0  0  0  0  0  0
   -2.4824   -2.8126    0.7364 H   0  0  0  0  0  0  0  0  0  0  0  0
   -2.2484   -3.5027   -0.8878 H   0  0  0  0  0  0  0  0  0  0  0  0
   -0.5734   -2.3414   -0.1667 C   0  0  0  0  0  0  0  0  0  0  0  0
    0.4842   -2.8696   -0.4917 O   0  0  0  0  0  0  0  0  0  0  0  0
   -0.6614   -0.9913    0.2080 N   0  0  0  0  0  0  0  0  0  0  0  0
   -1.5827   -0.5177   -0.8607 C   0  0  0  0  0  0  0  0  0  0  0  0
   -2.4931   -0.1064   -0.4114 H   0  0  0  0  0  0  0  0  0  0  0  0
   -1.8966   -1.2517   -1.6169 H   0  0  0  0  0  0  0  0  0  0  0  0
   -0.8140    0.5570   -1.5542 C   0  0  0  0  0  0  0  0  0  0  0  0
   -1.1327    1.5379   -1.1877 H   0  0  0  0  0  0  0  0  0  0  0  0
   -0.9986    0.5372   -2.6328 H   0  0  0  0  0  0  0  0  0  0  0  0
    0.6673    0.3254   -1.2526 C   0  0  0  0  0  0  0  0  0  0  0  0
    1.2631    1.2399   -1.3626 H   0  0  0  0  0  0  0  0  0  0  0  0
    1.0707   -0.4147   -1.9518 H   0  0  0  0  0  0  0  0  0  0  0  0
    0.6649   -0.2798    0.1687 C   0  0  1  0  0  0  0  0  0  0  0  0
    1.5415   -0.8897    0.4102 H   0  0  0  0  0  0  0  0  0  0  0  0
    0.6764    1.0669    0.9516 C   0  0  0  0  0  0  0  0  0  0  0  0
   -0.3350    1.7159    1.2013 O   0  0  0  0  0  0  0  0  0  0  0  0
    1.8666    1.4869    1.5219 N   0  0  0  0  0  0  0  0  0  0  0  0
    2.6797    0.8906    1.3991 H   0  0  0  0  0  0  0  0  0  0  0  0
    1.9772    2.6551    2.3877 C   0  0  0  0  0  0  0  0  0  0  0  0
    1.3713    2.5220    3.2901 H   0  0  0  0  0  0  0  0  0  0  0  0
    3.0184    2.8050    2.6885 H   0  0  0  0  0  0  0  0  0  0  0  0
    1.6370    3.5547    1.8639 H   0  0  0  0  0  0  0  0  0  0  0  0
  1  2  1  0  0  0  0
  2  3  1  0  0  0  0
  2  4  1  0  0  0  0
  2  5  1  0  0  0  0
  5  6  2  0  0  0  0
  5  7  1  0  0  0  0
  7  8  1  0  0  0  0
  7 17  1  0  0  0  0
  8  9  1  0  0  0  0
  8 10  1  0  0  0  0
  8 11  1  0  0  0  0
 11 12  1  0  0  0  0
 11 13  1  0  0  0  0
 11 14  1  0  0  0  0
 14 15  1  0  0  0  0
 14 16  1  0  0  0  0
 14 17  1  0  0  0  0
 17 18  1  0  0  0  0
 17 19  1  0  0  0  0
 19 20  2  0  0  0  0
 19 21  1  0  0  0  0
 21 22  1  0  0  0  0
 21 23  1  0  0  0  0
 23 24  1  0  0  0  0
 23 25  1  0  0  0  0
 23 26  1  0  0  0  0
M  END
$$$$

  -OEChem-11182114133D

 26 26  0     1  0  0  0  0  0999 V2000
   -1.3962   -4.2266    0.4933 H   0  0  0  0  0  0  0  0  0  0  0  0
   -1.7431   -3.2877    0.0535 C   0  0  0  0  0  0  0  0  0  0  0  0
   -2.4681   -2.8336    0.7339 H   0  0  0  0  0  0  0  0  0  0  0  0
   -2.2341   -3.5031   -0.8984 H   0  0  0  0  0  0  0  0  0  0  0  0
   -0.5605   -2.3476   -0.1633 C   0  0  0  0  0  0  0  0  0  0  0  0
    0.5010   -2.8687   -0.4870 O   0  0  0  0  0  0  0  0  0  0  0  0
   -0.6565   -0.9981    0.2104 N   0  0  0  0  0  0  0  0  0  0  0  0
   -1.5841   -0.5191   -0.8470 C   0  0  0  0  0  0  0  0  0  0  0  0
   -2.4969   -0.1204   -0.3912 H   0  0  0  0  0  0  0  0  0  0  0  0
   -1.8911   -1.2487   -1.6101 H   0  0  0  0  0  0  0  0  0  0  0  0
   -0.8229    0.5686   -1.5274 C   0  0  0  0  0  0  0  0  0  0  0  0
   -1.1416    1.5399   -1.1347 H   0  0  0  0  0  0  0  0  0  0  0  0
   -1.0142    0.5697   -2.6050 H   0  0  0  0  0  0  0  0  0  0  0  0
    0.6606    0.3433   -1.2353 C   0  0  0  0  0  0  0  0  0  0  0  0
    1.2501    1.2616   -1.3455 H   0  0  0  0  0  0  0  0  0  0  0  0
    1.0638   -0.3886   -1.9433 H   0  0  0  0  0  0  0  0  0  0  0  0
    0.6658   -0.2795    0.1798 C   0  0  1  0  0  0  0  0  0  0  0  0
    1.5479   -0.8811    0.4213 H   0  0  0  0  0  0  0  0  0  0  0  0
    0.6574    1.0661    0.9630 C   0  0  0  0  0  0  0  0  0  0  0  0
   -0.3721    1.5912    1.3757 O   0  0  0  0  0  0  0  0  0  0  0  0
    1.8647    1.6675    1.2804 N   0  0  0  0  0  0  0  0  0  0  0  0
    2.7151    1.1863    1.0028 H   0  0  0  0  0  0  0  0  0  0  0  0
    1.9722    2.8782    2.0860 C   0  0  0  0  0  0  0  0  0  0  0  0
    1.5680    2.7073    3.0893 H   0  0  0  0  0  0  0  0  0  0  0  0
    3.0204    3.1776    2.1811 H   0  0  0  0  0  0  0  0  0  0  0  0
    1.4198    3.7004    1.6187 H   0  0  0  0  0  0  0  0  0  0  0  0
  1  2  1  0  0  0  0
  2  3  1  0  0  0  0
  2  4  1  0  0  0  0
  2  5  1  0  0  0  0
  5  6  2  0  0  0  0
  5  7  1  0  0  0  0
  7  8  1  0  0  0  0
  7 17  1  0  0  0  0
  8  9  1  0  0  0  0
  8 10  1  0  0  0  0
  8 11  1  0  0  0  0
 11 12  1  0  0  0  0
 11 13  1  0  0  0  0
 11 14  1  0  0  0  0
 14 15  1  0  0  0  0
 14 16  1  0  0  0  0
 14 17  1  0  0  0  0
 17 18  1  0  0  0  0
 17 19  1  0  0  0  0
 19 20  2  0  0  0  0
 19 21  1  0  0  0  0
 21 22  1  0  0  0  0
 21 23  1  0  0  0  0
 23 24  1  0  0  0  0
 23 25  1  0  0  0  0
 23 26  1  0  0  0  0
M  END
$$$$

  -OEChem-11182114133D

 26 26  0     1  0  0  0  0  0999 V2000
   -1.4826   -4.1967    0.6139 H   0  0  0  0  0  0  0  0  0  0  0  0
   -1.7527   -3.2591    0.1204 C   0  0  0  0  0  0  0  0  0  0  0  0
   -2.5094   -2.7552    0.7274 H   0  0  0  0  0  0  0  0  0  0  0  0
   -2.1738   -3.4867   -0.8616 H   0  0  0  0  0  0  0  0  0  0  0  0
   -0.5188   -2.3730   -0.0247 C   0  0  0  0  0  0  0  0  0  0  0  0
    0.5605   -2.9445   -0.1200 O   0  0  0  0  0  0  0  0  0  0  0  0
   -0.6125   -0.9843    0.1346 N   0  0  0  0  0  0  0  0  0  0  0  0
   -1.5570   -0.5468   -0.9112 C   0  0  0  0  0  0  0  0  0  0  0  0
   -2.5040   -0.2203   -0.4681 H   0  0  0  0  0  0  0  0  0  0  0  0
   -1.7784   -1.3066   -1.6715 H   0  0  0  0  0  0  0  0  0  0  0  0
   -0.8605    0.5942   -1.5832 C   0  0  0  0  0  0  0  0  0  0  0  0
   -1.1990    1.5372   -1.1403 H   0  0  0  0  0  0  0  0  0  0  0  0
   -1.0797    0.6247   -2.6550 H   0  0  0  0  0  0  0  0  0  0  0  0
    0.6299    0.4089   -1.3206 C   0  0  0  0  0  0  0  0  0  0  0  0
    1.1848    1.3478   -1.4213 H   0  0  0  0  0  0  0  0  0  0  0  0
    1.0422   -0.2965   -2.0496 H   0  0  0  0  0  0  0  0  0  0  0  0
    0.6857   -0.2379    0.0789 C   0  0  1  0  0  0  0  0  0  0  0  0
    1.5907   -0.8254    0.2619 H   0  0  0  0  0  0  0  0  0  0  0  0
    0.6718    1.0383    0.9690 C   0  0  0  0  0  0  0  0  0  0  0  0
   -0.3203    1.3804    1.6037 O   0  0  0  0  0  0  0  0  0  0  0  0
    1.7948    1.8486    1.0383 N   0  0  0  0  0  0  0  0  0  0  0  0
    2.6308    1.5310    0.5570 H   0  0  0  0  0  0  0  0  0  0  0  0
    1.8725    3.0451    1.8685 C   0  0  0  0  0  0  0  0  0  0  0  0
    1.7690    2.7840    2.9269 H   0  0  0  0  0  0  0  0  0  0  0  0
    2.8369    3.5419    1.7265 H   0  0  0  0  0  0  0  0  0  0  0  0
    1.0794    3.7510    1.6000 H   0  0  0  0  0  0  0  0  0  0  0  0
  1  2  1  0  0  0  0
  2  3  1  0  0  0  0
  2  4  1  0  0  0  0
  2  5  1  0  0  0  0
  5  6  2  0  0  0  0
  5  7  1  0  0  0  0
  7  8  1  0  0  0  0
  7 17  1  0  0  0  0
  8  9  1  0  0  0  0
  8 10  1  0  0  0  0
  8 11  1  0  0  0  0
 11 12  1  0  0  0  0
 11 13  1  0  0  0  0
 11 14  1  0  0  0  0
 14 15  1  0  0  0  0
 14 16  1  0  0  0  0
 14 17  1  0  0  0  0
 17 18  1  0  0  0  0
 17 19  1  0  0  0  0
 19 20  2  0  0  0  0
 19 21  1  0  0  0  0
 21 22  1  0  0  0  0
 21 23  1  0  0  0  0
 23 24  1  0  0  0  0
 23 25  1  0  0  0  0
 23 26  1  0  0  0  0
M  END
$$$$

  -OEChem-11182114133D

 26 26  0     1  0  0  0  0  0999 V2000
   -1.4510   -4.1779    0.6534 H   0  0  0  0  0  0  0  0  0  0  0  0
   -1.7385   -3.2488    0.1539 C   0  0  0  0  0  0  0  0  0  0  0  0
   -2.4787   -2.7376    0.7750 H   0  0  0  0  0  0  0  0  0  0  0  0
   -2.1871   -3.4920   -0.8119 H   0  0  0  0  0  0  0  0  0  0  0  0
   -0.5126   -2.3615   -0.0404 C   0  0  0  0  0  0  0  0  0  0  0  0
    0.5619   -2.9307   -0.1886 O   0  0  0  0  0  0  0  0  0  0  0  0
   -0.6041   -0.9733    0.1241 N   0  0  0  0  0  0  0  0  0  0  0  0
   -1.5619   -0.5435   -0.9116 C   0  0  0  0  0  0  0  0  0  0  0  0
   -2.4993   -0.2041   -0.4579 H   0  0  0  0  0  0  0  0  0  0  0  0
   -1.8026   -1.3094   -1.6601 H   0  0  0  0  0  0  0  0  0  0  0  0
   -0.8654    0.5817   -1.6054 C   0  0  0  0  0  0  0  0  0  0  0  0
   -1.1939    1.5321   -1.1709 H   0  0  0  0  0  0  0  0  0  0  0  0
   -1.0954    0.5993   -2.6753 H   0  0  0  0  0  0  0  0  0  0  0  0
    0.6268    0.3948   -1.3560 C   0  0  0  0  0  0  0  0  0  0  0  0
    1.1853    1.3249   -1.4947 H   0  0  0  0  0  0  0  0  0  0  0  0
    1.0239   -0.3288   -2.0760 H   0  0  0  0  0  0  0  0  0  0  0  0
    0.6985   -0.2330    0.0548 C   0  0  1  0  0  0  0  0  0  0  0  0
    1.6041   -0.8206    0.2351 H   0  0  0  0  0  0  0  0  0  0  0  0
    0.6808    1.0394    0.9572 C   0  0  0  0  0  0  0  0  0  0  0  0
   -0.1961    1.2126    1.7962 O   0  0  0  0  0  0  0  0  0  0  0  0
    1.6396    2.0348    0.8294 N   0  0  0  0  0  0  0  0  0  0  0  0
    2.4028    1.8669    0.1812 H   0  0  0  0  0  0  0  0  0  0  0  0
    1.6790    3.2290    1.6657 C   0  0  0  0  0  0  0  0  0  0  0  0
    1.8214    2.9559    2.7165 H   0  0  0  0  0  0  0  0  0  0  0  0
    2.5063    3.8769    1.3608 H   0  0  0  0  0  0  0  0  0  0  0  0
    0.7459    3.7945    1.5713 H   0  0  0  0  0  0  0  0  0  0  0  0
  1  2  1  0  0  0  0
  2  3  1  0  0  0  0
  2  4  1  0  0  0  0
  2  5  1  0  0  0  0
  5  6  2  0  0  0  0
  5  7  1  0  0  0  0
  7  8  1  0  0  0  0
  7 17  1  0  0  0  0
  8  9  1  0  0  0  0
  8 10  1  0  0  0  0
  8 11  1  0  0  0  0
 11 12  1  0  0  0  0
 11 13  1  0  0  0  0
 11 14  1  0  0  0  0
 14 15  1  0  0  0  0
 14 16  1  0  0  0  0
 14 17  1  0  0  0  0
 17 18  1  0  0  0  0
 17 19  1  0  0  0  0
 19 20  2  0  0  0  0
 19 21  1  0  0  0  0
 21 22  1  0  0  0  0
 21 23  1  0  0  0  0
 23 24  1  0  0  0  0
 23 25  1  0  0  0  0
 23 26  1  0  0  0  0
M  END
$$$$

  -OEChem-11182114133D

 26 26  0     1  0  0  0  0  0999 V2000
   -1.4169   -4.1378    0.7324 H   0  0  0  0  0  0  0  0  0  0  0  0
   -1.7257   -3.2284    0.2100 C   0  0  0  0  0  0  0  0  0  0  0  0
   -2.4496   -2.6998    0.8356 H   0  0  0  0  0  0  0  0  0  0  0  0
   -2.2021   -3.5061   -0.7330 H   0  0  0  0  0  0  0  0  0  0  0  0
   -0.5116   -2.3436   -0.0524 C   0  0  0  0  0  0  0  0  0  0  0  0
    0.5513   -2.9123   -0.2710 O   0  0  0  0  0  0  0  0  0  0  0  0
   -0.5985   -0.9551    0.1117 N   0  0  0  0  0  0  0  0  0  0  0  0
   -1.5629   -0.5401   -0.9247 C   0  0  0  0  0  0  0  0  0  0  0  0
   -2.4902   -0.1775   -0.4684 H   0  0  0  0  0  0  0  0  0  0  0  0
   -1.8251   -1.3194   -1.6526 H   0  0  0  0  0  0  0  0  0  0  0  0
   -0.8598    0.5595   -1.6511 C   0  0  0  0  0  0  0  0  0  0  0  0
   -1.1772    1.5245   -1.2413 H   0  0  0  0  0  0  0  0  0  0  0  0
   -1.0968    0.5499   -2.7196 H   0  0  0  0  0  0  0  0  0  0  0  0
    0.6328    0.3676   -1.4077 C   0  0  0  0  0  0  0  0  0  0  0  0
    1.2057    1.2806   -1.5849 H   0  0  0  0  0  0  0  0  0  0  0  0
    1.0132   -0.3835   -2.1085 H   0  0  0  0  0  0  0  0  0  0  0  0
    0.7089   -0.2253    0.0182 C   0  0  1  0  0  0  0  0  0  0  0  0
    1.6123   -0.8141    0.2057 H   0  0  0  0  0  0  0  0  0  0  0  0
    0.6818    1.0432    0.9314 C   0  0  0  0  0  0  0  0  0  0  0  0
    0.0016    1.0528    1.9509 O   0  0  0  0  0  0  0  0  0  0  0  0
    1.4027    2.1983    0.6581 N   0  0  0  0  0  0  0  0  0  0  0  0
    2.0290    2.1800   -0.1403 H   0  0  0  0  0  0  0  0  0  0  0  0
    1.4082    3.3717    1.5247 C   0  0  0  0  0  0  0  0  0  0  0  0
    1.8032    3.1166    2.5138 H   0  0  0  0  0  0  0  0  0  0  0  0
    2.0359    4.1570    1.0931 H   0  0  0  0  0  0  0  0  0  0  0  0
    0.3935    3.7668    1.6416 H   0  0  0  0  0  0  0  0  0  0  0  0
  1  2  1  0  0  0  0
  2  3  1  0  0  0  0
  2  4  1  0  0  0  0
  2  5  1  0  0  0  0
  5  6  2  0  0  0  0
  5  7  1  0  0  0  0
  7  8  1  0  0  0  0
  7 17  1  0  0  0  0
  8  9  1  0  0  0  0
  8 10  1  0  0  0  0
  8 11  1  0  0  0  0
 11 12  1  0  0  0  0
 11 13  1  0  0  0  0
 11 14  1  0  0  0  0
 14 15  1  0  0  0  0
 14 16  1  0  0  0  0
 14 17  1  0  0  0  0
 17 18  1  0  0  0  0
 17 19  1  0  0  0  0
 19 20  2  0  0  0  0
 19 21  1  0  0  0  0
 21 22  1  0  0  0  0
 21 23  1  0  0  0  0
 23 24  1  0  0  0  0
 23 25  1  0  0  0  0
 23 26  1  0  0  0  0
M  END
$$$$

  -OEChem-11182114133D

 26 26  0     1  0  0  0  0  0999 V2000
   -1.4011   -4.1099    0.7856 H   0  0  0  0  0  0  0  0  0  0  0  0
   -1.7222   -3.2107    0.2530 C   0  0  0  0  0  0  0  0  0  0  0  0
   -2.4347   -2.6716    0.8828 H   0  0  0  0  0  0  0  0  0  0  0  0
   -2.2169   -3.5063   -0.6750 H   0  0  0  0  0  0  0  0  0  0  0  0
   -0.5151   -2.3299   -0.0511 C   0  0  0  0  0  0  0  0  0  0  0  0
    0.5362   -2.9007   -0.3155 O   0  0  0  0  0  0  0  0  0  0  0  0
   -0.5974   -0.9402    0.1061 N   0  0  0  0  0  0  0  0  0  0  0  0
   -1.5573   -0.5404   -0.9423 C   0  0  0  0  0  0  0  0  0  0  0  0
   -2.4818   -0.1603   -0.4946 H   0  0  0  0  0  0  0  0  0  0  0  0
   -1.8276   -1.3324   -1.6536 H   0  0  0  0  0  0  0  0  0  0  0  0
   -0.8456    0.5381   -1.6938 C   0  0  0  0  0  0  0  0  0  0  0  0
   -1.1578    1.5147   -1.3086 H   0  0  0  0  0  0  0  0  0  0  0  0
   -1.0815    0.5032   -2.7622 H   0  0  0  0  0  0  0  0  0  0  0  0
    0.6462    0.3414   -1.4458 C   0  0  0  0  0  0  0  0  0  0  0  0
    1.2375    1.2377   -1.6435 H   0  0  0  0  0  0  0  0  0  0  0  0
    1.0180   -0.4317   -2.1271 H   0  0  0  0  0  0  0  0  0  0  0  0
    0.7126   -0.2192   -0.0085 C   0  0  1  0  0  0  0  0  0  0  0  0
    1.6134   -0.8080    0.1931 H   0  0  0  0  0  0  0  0  0  0  0  0
    0.6719    1.0476    0.9084 C   0  0  0  0  0  0  0  0  0  0  0  0
    0.2424    0.9383    2.0508 O   0  0  0  0  0  0  0  0  0  0  0  0
    1.1111    2.3128    0.5380 N   0  0  0  0  0  0  0  0  0  0  0  0
    1.5259    2.4155   -0.3818 H   0  0  0  0  0  0  0  0  0  0  0  0
    1.0892    3.4689    1.4276 C   0  0  0  0  0  0  0  0  0  0  0  0
    1.7149    3.2871    2.3078 H   0  0  0  0  0  0  0  0  0  0  0  0
    1.4713    4.3528    0.9083 H   0  0  0  0  0  0  0  0  0  0  0  0
    0.0666    3.6781    1.7588 H   0  0  0  0  0  0  0  0  0  0  0  0
  1  2  1  0  0  0  0
  2  3  1  0  0  0  0
  2  4  1  0  0  0  0
  2  5  1  0  0  0  0
  5  6  2  0  0  0  0
  5  7  1  0  0  0  0
  7  8  1  0  0  0  0
  7 17  1  0  0  0  0
  8  9  1  0  0  0  0
  8 10  1  0  0  0  0
  8 11  1  0  0  0  0
 11 12  1  0  0  0  0
 11 13  1  0  0  0  0
 11 14  1  0  0  0  0
 14 15  1  0  0  0  0
 14 16  1  0  0  0  0
 14 17  1  0  0  0  0
 17 18  1  0  0  0  0
 17 19  1  0  0  0  0
 19 20  2  0  0  0  0
 19 21  1  0  0  0  0
 21 22  1  0  0  0  0
 21 23  1  0  0  0  0
 23 24  1  0  0  0  0
 23 25  1  0  0  0  0
 23 26  1  0  0  0  0
M  END
$$$$

  -OEChem-11182114133D

 26 26  0     1  0  0  0  0  0999 V2000
   -1.3790   -4.1238    0.7729 H   0  0  0  0  0  0  0  0  0  0  0  0
   -1.7179   -3.2081    0.2806 C   0  0  0  0  0  0  0  0  0  0  0  0
   -2.3989   -2.6834    0.9558 H   0  0  0  0  0  0  0  0  0  0  0  0
   -2.2542   -3.4748   -0.6330 H   0  0  0  0  0  0  0  0  0  0  0  0
   -0.5205   -2.3243   -0.0494 C   0  0  0  0  0  0  0  0  0  0  0  0
    0.5258   -2.8895   -0.3435 O   0  0  0  0  0  0  0  0  0  0  0  0
   -0.6093   -0.9341    0.1016 N   0  0  0  0  0  0  0  0  0  0  0  0
   -1.5508   -0.5519   -0.9719 C   0  0  0  0  0  0  0  0  0  0  0  0
   -2.4845   -0.1684   -0.5468 H   0  0  0  0  0  0  0  0  0  0  0  0
   -1.8087   -1.3544   -1.6766 H   0  0  0  0  0  0  0  0  0  0  0  0
   -0.8297    0.5189   -1.7287 C   0  0  0  0  0  0  0  0  0  0  0  0
   -1.1539    1.4995   -1.3658 H   0  0  0  0  0  0  0  0  0  0  0  0
   -1.0483    0.4659   -2.7999 H   0  0  0  0  0  0  0  0  0  0  0  0
    0.6596    0.3277   -1.4547 C   0  0  0  0  0  0  0  0  0  0  0  0
    1.2614    1.2201   -1.6443 H   0  0  0  0  0  0  0  0  0  0  0  0
    1.0440   -0.4535   -2.1196 H   0  0  0  0  0  0  0  0  0  0  0  0
    0.6991   -0.2122   -0.0112 C   0  0  1  0  0  0  0  0  0  0  0  0
    1.5970   -0.7988    0.2103 H   0  0  0  0  0  0  0  0  0  0  0  0
    0.6431    1.0549    0.9023 C   0  0  0  0  0  0  0  0  0  0  0  0
    0.4824    0.8915    2.1053 O   0  0  0  0  0  0  0  0  0  0  0  0
    0.7878    2.3696    0.4745 N   0  0  0  0  0  0  0  0  0  0  0  0
    0.9263    2.5287   -0.5173 H   0  0  0  0  0  0  0  0  0  0  0  0
    0.7562    3.5209    1.3702 C   0  0  0  0  0  0  0  0  0  0  0  0
    1.5539    3.4477    2.1171 H   0  0  0  0  0  0  0  0  0  0  0  0
    0.8993    4.4455    0.8029 H   0  0  0  0  0  0  0  0  0  0  0  0
   -0.2072    3.5780    1.8878 H   0  0  0  0  0  0  0  0  0  0  0  0
  1  2  1  0  0  0  0
  2  3  1  0  0  0  0
  2  4  1  0  0  0  0
  2  5  1  0  0  0  0
  5  6  2  0  0  0  0
  5  7  1  0  0  0  0
  7  8  1  0  0  0  0
  7 17  1  0  0  0  0
  8  9  1  0  0  0  0
  8 10  1  0  0  0  0
  8 11  1  0  0  0  0
 11 12  1  0  0  0  0
 11 13  1  0  0  0  0
 11 14  1  0  0  0  0
 14 15  1  0  0  0  0
 14 16  1  0  0  0  0
 14 17  1  0  0  0  0
 17 18  1  0  0  0  0
 17 19  1  0  0  0  0
 19 20  2  0  0  0  0
 19 21  1  0  0  0  0
 21 22  1  0  0  0  0
 21 23  1  0  0  0  0
 23 24  1  0  0  0  0
 23 25  1  0  0  0  0
 23 26  1  0  0  0  0
M  END
$$$$

  -OEChem-11182114133D

 26 26  0     1  0  0  0  0  0999 V2000
   -1.3760   -4.0941    0.8402 H   0  0  0  0  0  0  0  0  0  0  0  0
   -1.7143   -3.2204    0.2768 C   0  0  0  0  0  0  0  0  0  0  0  0
   -2.4385   -2.6742    0.8866 H   0  0  0  0  0  0  0  0  0  0  0  0
   -2.2012   -3.5567   -0.6415 H   0  0  0  0  0  0  0  0  0  0  0  0
   -0.5242   -2.3281   -0.0556 C   0  0  0  0  0  0  0  0  0  0  0  0
    0.5219   -2.8854   -0.3641 O   0  0  0  0  0  0  0  0  0  0  0  0
   -0.6239   -0.9390    0.0999 N   0  0  0  0  0  0  0  0  0  0  0  0
   -1.5544   -0.5683   -0.9891 C   0  0  0  0  0  0  0  0  0  0  0  0
   -2.4973   -0.1930   -0.5773 H   0  0  0  0  0  0  0  0  0  0  0  0
   -1.7966   -1.3746   -1.6954 H   0  0  0  0  0  0  0  0  0  0  0  0
   -0.8358    0.5085   -1.7406 C   0  0  0  0  0  0  0  0  0  0  0  0
   -1.1833    1.4865   -1.3949 H   0  0  0  0  0  0  0  0  0  0  0  0
   -1.0353    0.4440   -2.8151 H   0  0  0  0  0  0  0  0  0  0  0  0
    0.6525    0.3291   -1.4449 C   0  0  0  0  0  0  0  0  0  0  0  0
    1.2464    1.2325   -1.6139 H   0  0  0  0  0  0  0  0  0  0  0  0
    1.0566   -0.4446   -2.1069 H   0  0  0  0  0  0  0  0  0  0  0  0
    0.6800   -0.2078   -0.0011 C   0  0  1  0  0  0  0  0  0  0  0  0
    1.5774   -0.7939    0.2248 H   0  0  0  0  0  0  0  0  0  0  0  0
    0.6284    1.0588    0.9102 C   0  0  0  0  0  0  0  0  0  0  0  0
    0.7321    0.8955    2.1189 O   0  0  0  0  0  0  0  0  0  0  0  0
    0.4824    2.3694    0.4716 N   0  0  0  0  0  0  0  0  0  0  0  0
    0.3822    2.5194   -0.5264 H   0  0  0  0  0  0  0  0  0  0  0  0
    0.4307    3.5220    1.3639 C   0  0  0  0  0  0  0  0  0  0  0  0
    1.3619    3.6074    1.9338 H   0  0  0  0  0  0  0  0  0  0  0  0
    0.2937    4.4411    0.7863 H   0  0  0  0  0  0  0  0  0  0  0  0
   -0.4048    3.4271    2.0654 H   0  0  0  0  0  0  0  0  0  0  0  0
  1  2  1  0  0  0  0
  2  3  1  0  0  0  0
  2  4  1  0  0  0  0
  2  5  1  0  0  0  0
  5  6  2  0  0  0  0
  5  7  1  0  0  0  0
  7  8  1  0  0  0  0
  7 17  1  0  0  0  0
  8  9  1  0  0  0  0
  8 10  1  0  0  0  0
  8 11  1  0  0  0  0
 11 12  1  0  0  0  0
 11 13  1  0  0  0  0
 11 14  1  0  0  0  0
 14 15  1  0  0  0  0
 14 16  1  0  0  0  0
 14 17  1  0  0  0  0
 17 18  1  0  0  0  0
 17 19  1  0  0  0  0
 19 20  2  0  0  0  0
 19 21  1  0  0  0  0
 21 22  1  0  0  0  0
 21 23  1  0  0  0  0
 23 24  1  0  0  0  0
 23 25  1  0  0  0  0
 23 26  1  0  0  0  0
M  END
$$$$

  -OEChem-11182114133D

 26 26  0     1  0  0  0  0  0999 V2000
   -1.3578   -4.1522    0.7702 H   0  0  0  0  0  0  0  0  0  0  0  0
   -1.7073   -3.2564    0.2496 C   0  0  0  0  0  0  0  0  0  0  0  0
   -2.4266   -2.7415    0.8915 H   0  0  0  0  0  0  0  0  0  0  0  0
   -2.2041   -3.5561   -0.6760 H   0  0  0  0  0  0  0  0  0  0  0  0
   -0.5267   -2.3422   -0.0577 C   0  0  0  0  0  0  0  0  0  0  0  0
    0.5345   -2.8813   -0.3450 O   0  0  0  0  0  0  0  0  0  0  0  0
   -0.6543   -0.9548    0.1001 N   0  0  0  0  0  0  0  0  0  0  0  0
   -1.5641   -0.6042   -1.0147 C   0  0  0  0  0  0  0  0  0  0  0  0
   -2.5250   -0.2492   -0.6271 H   0  0  0  0  0  0  0  0  0  0  0  0
   -1.7717   -1.4148   -1.7274 H   0  0  0  0  0  0  0  0  0  0  0  0
   -0.8519    0.4869   -1.7506 C   0  0  0  0  0  0  0  0  0  0  0  0
   -1.2386    1.4574   -1.4303 H   0  0  0  0  0  0  0  0  0  0  0  0
   -1.0167    0.4069   -2.8299 H   0  0  0  0  0  0  0  0  0  0  0  0
    0.6320    0.3348   -1.4126 C   0  0  0  0  0  0  0  0  0  0  0  0
    1.2034    1.2585   -1.5525 H   0  0  0  0  0  0  0  0  0  0  0  0
    1.0753   -0.4232   -2.0676 H   0  0  0  0  0  0  0  0  0  0  0  0
    0.6400   -0.2007    0.0320 C   0  0  1  0  0  0  0  0  0  0  0  0
    1.5394   -0.7805    0.2668 H   0  0  0  0  0  0  0  0  0  0  0  0
    0.5913    1.0714    0.9328 C   0  0  0  0  0  0  0  0  0  0  0  0
    0.9511    0.9551    2.0967 O   0  0  0  0  0  0  0  0  0  0  0  0
    0.1711    2.3340    0.5344 N   0  0  0  0  0  0  0  0  0  0  0  0
   -0.1192    2.4452   -0.4305 H   0  0  0  0  0  0  0  0  0  0  0  0
    0.1422    3.4957    1.4162 C   0  0  0  0  0  0  0  0  0  0  0  0
    1.1464    3.7170    1.7928 H   0  0  0  0  0  0  0  0  0  0  0  0
   -0.2239    4.3728    0.8740 H   0  0  0  0  0  0  0  0  0  0  0  0
   -0.5216    3.3141    2.2680 H   0  0  0  0  0  0  0  0  0  0  0  0
  1  2  1  0  0  0  0
  2  3  1  0  0  0  0
  2  4  1  0  0  0  0
  2  5  1  0  0  0  0
  5  6  2  0  0  0  0
  5  7  1  0  0  0  0
  7  8  1  0  0  0  0
  7 17  1  0  0  0  0
  8  9  1  0  0  0  0
  8 10  1  0  0  0  0
  8 11  1  0  0  0  0
 11 12  1  0  0  0  0
 11 13  1  0  0  0  0
 11 14  1  0  0  0  0
 14 15  1  0  0  0  0
 14 16  1  0  0  0  0
 14 17  1  0  0  0  0
 17 18  1  0  0  0  0
 17 19  1  0  0  0  0
 19 20  2  0  0  0  0
 19 21  1  0  0  0  0
 21 22  1  0  0  0  0
 21 23  1  0  0  0  0
 23 24  1  0  0  0  0
 23 25  1  0  0  0  0
 23 26  1  0  0  0  0
M  END
$$$$

  -OEChem-11182114133D

 26 26  0     1  0  0  0  0  0999 V2000
   -1.3543   -4.1762    0.7497 H   0  0  0  0  0  0  0  0  0  0  0  0
   -1.7060   -3.2869    0.2196 C   0  0  0  0  0  0  0  0  0  0  0  0
   -2.4458   -2.7809    0.8448 H   0  0  0  0  0  0  0  0  0  0  0  0
   -2.1791   -3.5959   -0.7153 H   0  0  0  0  0  0  0  0  0  0  0  0
   -0.5322   -2.3571   -0.0665 C   0  0  0  0  0  0  0  0  0  0  0  0
    0.5372   -2.8826   -0.3473 O   0  0  0  0  0  0  0  0  0  0  0  0
   -0.6781   -0.9720    0.0993 N   0  0  0  0  0  0  0  0  0  0  0  0
   -1.5676   -0.6300   -1.0371 C   0  0  0  0  0  0  0  0  0  0  0  0
   -2.5418   -0.2896   -0.6703 H   0  0  0  0  0  0  0  0  0  0  0  0
   -1.7493   -1.4409   -1.7566 H   0  0  0  0  0  0  0  0  0  0  0  0
   -0.8570    0.4737   -1.7566 C   0  0  0  0  0  0  0  0  0  0  0  0
   -1.2692    1.4402   -1.4628 H   0  0  0  0  0  0  0  0  0  0  0  0
   -0.9902    0.3825   -2.8394 H   0  0  0  0  0  0  0  0  0  0  0  0
    0.6197    0.3381   -1.3831 C   0  0  0  0  0  0  0  0  0  0  0  0
    1.1718    1.2777   -1.4955 H   0  0  0  0  0  0  0  0  0  0  0  0
    1.0943   -0.4046   -2.0337 H   0  0  0  0  0  0  0  0  0  0  0  0
    0.6088   -0.2018    0.0586 C   0  0  1  0  0  0  0  0  0  0  0  0
    1.5073   -0.7814    0.2980 H   0  0  0  0  0  0  0  0  0  0  0  0
    0.5686    1.0706    0.9562 C   0  0  0  0  0  0  0  0  0  0  0  0
    1.1951    1.0429    2.0069 O   0  0  0  0  0  0  0  0  0  0  0  0
   -0.1016    2.2488    0.6599 N   0  0  0  0  0  0  0  0  0  0  0  0
   -0.6466    2.2729   -0.1927 H   0  0  0  0  0  0  0  0  0  0  0  0
   -0.1217    3.4130    1.5382 C   0  0  0  0  0  0  0  0  0  0  0  0
    0.8946    3.7849    1.7058 H   0  0  0  0  0  0  0  0  0  0  0  0
   -0.7125    4.2162    1.0877 H   0  0  0  0  0  0  0  0  0  0  0  0
   -0.5674    3.1560    2.5049 H   0  0  0  0  0  0  0  0  0  0  0  0
  1  2  1  0  0  0  0
  2  3  1  0  0  0  0
  2  4  1  0  0  0  0
  2  5  1  0  0  0  0
  5  6  2  0  0  0  0
  5  7  1  0  0  0  0
  7  8  1  0  0  0  0
  7 17  1  0  0  0  0
  8  9  1  0  0  0  0
  8 10  1  0  0  0  0
  8 11  1  0  0  0  0
 11 12  1  0  0  0  0
 11 13  1  0  0  0  0
 11 14  1  0  0  0  0
 14 15  1  0  0  0  0
 14 16  1  0  0  0  0
 14 17  1  0  0  0  0
 17 18  1  0  0  0  0
 17 19  1  0  0  0  0
 19 20  2  0  0  0  0
 19 21  1  0  0  0  0
 21 22  1  0  0  0  0
 21 23  1  0  0  0  0
 23 24  1  0  0  0  0
 23 25  1  0  0  0  0
 23 26  1  0  0  0  0
M  END
$$$$

  -OEChem-11182114133D

 26 26  0     1  0  0  0  0  0999 V2000
   -1.3821   -4.2041    0.6953 H   0  0  0  0  0  0  0  0  0  0  0  0
   -1.7181   -3.3004    0.1790 C   0  0  0  0  0  0  0  0  0  0  0  0
   -2.4650   -2.8027    0.8026 H   0  0  0  0  0  0  0  0  0  0  0  0
   -2.1777   -3.5861   -0.7701 H   0  0  0  0  0  0  0  0  0  0  0  0
   -0.5326   -2.3732   -0.0668 C   0  0  0  0  0  0  0  0  0  0  0  0
    0.5454   -2.9031   -0.2999 O   0  0  0  0  0  0  0  0  0  0  0  0
   -0.6761   -0.9884    0.1060 N   0  0  0  0  0  0  0  0  0  0  0  0
   -1.5568   -0.6333   -1.0360 C   0  0  0  0  0  0  0  0  0  0  0  0
   -2.5366   -0.3031   -0.6751 H   0  0  0  0  0  0  0  0  0  0  0  0
   -1.7263   -1.4364   -1.7672 H   0  0  0  0  0  0  0  0  0  0  0  0
   -0.8470    0.4849   -1.7399 C   0  0  0  0  0  0  0  0  0  0  0  0
   -1.2527    1.4526   -1.4393 H   0  0  0  0  0  0  0  0  0  0  0  0
   -0.9757    0.4064   -2.8242 H   0  0  0  0  0  0  0  0  0  0  0  0
    0.6258    0.3465   -1.3634 C   0  0  0  0  0  0  0  0  0  0  0  0
    1.1708    1.2933   -1.4528 H   0  0  0  0  0  0  0  0  0  0  0  0
    1.1085   -0.3816   -2.0243 H   0  0  0  0  0  0  0  0  0  0  0  0
    0.6076   -0.2135    0.0686 C   0  0  1  0  0  0  0  0  0  0  0  0
    1.5074   -0.7927    0.3047 H   0  0  0  0  0  0  0  0  0  0  0  0
    0.5646    1.0519    0.9714 C   0  0  0  0  0  0  0  0  0  0  0  0
    1.4342    1.1827    1.8223 O   0  0  0  0  0  0  0  0  0  0  0  0
   -0.3379    2.0933    0.8223 N   0  0  0  0  0  0  0  0  0  0  0  0
   -1.1314    1.9196    0.2163 H   0  0  0  0  0  0  0  0  0  0  0  0
   -0.3662    3.2634    1.6923 C   0  0  0  0  0  0  0  0  0  0  0  0
    0.5932    3.7904    1.6574 H   0  0  0  0  0  0  0  0  0  0  0  0
   -1.1496    3.9556    1.3695 H   0  0  0  0  0  0  0  0  0  0  0  0
   -0.5685    2.9674    2.7269 H   0  0  0  0  0  0  0  0  0  0  0  0
  1  2  1  0  0  0  0
  2  3  1  0  0  0  0
  2  4  1  0  0  0  0
  2  5  1  0  0  0  0
  5  6  2  0  0  0  0
  5  7  1  0  0  0  0
  7  8  1  0  0  0  0
  7 17  1  0  0  0  0
  8  9  1  0  0  0  0
  8 10  1  0  0  0  0
  8 11  1  0  0  0  0
 11 12  1  0  0  0  0
 11 13  1  0  0  0  0
 11 14  1  0  0  0  0
 14 15  1  0  0  0  0
 14 16  1  0  0  0  0
 14 17  1  0  0  0  0
 17 18  1  0  0  0  0
 17 19  1  0  0  0  0
 19 20  2  0  0  0  0
 19 21  1  0  0  0  0
 21 22  1  0  0  0  0
 21 23  1  0  0  0  0
 23 24  1  0  0  0  0
 23 25  1  0  0  0  0
 23 26  1  0  0  0  0
M  END
$$$$

  -OEChem-11182114133D

 26 26  0     1  0  0  0  0  0999 V2000
   -1.4232   -4.2333    0.6231 H   0  0  0  0  0  0  0  0  0  0  0  0
   -1.7344   -3.3139    0.1194 C   0  0  0  0  0  0  0  0  0  0  0  0
   -2.4935   -2.8233    0.7338 H   0  0  0  0  0  0  0  0  0  0  0  0
   -2.1694   -3.5723   -0.8489 H   0  0  0  0  0  0  0  0  0  0  0  0
   -0.5322   -2.3944   -0.0706 C   0  0  0  0  0  0  0  0  0  0  0  0
    0.5514   -2.9344   -0.2447 O   0  0  0  0  0  0  0  0  0  0  0  0
   -0.6658   -1.0097    0.1121 N   0  0  0  0  0  0  0  0  0  0  0  0
   -1.5529   -0.6260   -1.0149 C   0  0  0  0  0  0  0  0  0  0  0  0
   -2.5331   -0.3087   -0.6434 H   0  0  0  0  0  0  0  0  0  0  0  0
   -1.7194   -1.4121   -1.7643 H   0  0  0  0  0  0  0  0  0  0  0  0
   -0.8487    0.5111   -1.6965 C   0  0  0  0  0  0  0  0  0  0  0  0
   -1.2419    1.4714   -1.3544 H   0  0  0  0  0  0  0  0  0  0  0  0
   -0.9932    0.4692   -2.7809 H   0  0  0  0  0  0  0  0  0  0  0  0
    0.6267    0.3603   -1.3405 C   0  0  0  0  0  0  0  0  0  0  0  0
    1.1717    1.3087   -1.4108 H   0  0  0  0  0  0  0  0  0  0  0  0
    1.1013   -0.3516   -2.0245 H   0  0  0  0  0  0  0  0  0  0  0  0
    0.6185   -0.2364    0.0755 C   0  0  1  0  0  0  0  0  0  0  0  0
    1.5215   -0.8159    0.2971 H   0  0  0  0  0  0  0  0  0  0  0  0
    0.5773    1.0200    0.9865 C   0  0  0  0  0  0  0  0  0  0  0  0
    1.5793    1.3180    1.6224 O   0  0  0  0  0  0  0  0  0  0  0  0
   -0.4979    1.8924    1.0295 N   0  0  0  0  0  0  0  0  0  0  0  0
   -1.3552    1.5677    0.5947 H   0  0  0  0  0  0  0  0  0  0  0  0
   -0.5469    3.0665    1.8925 C   0  0  0  0  0  0  0  0  0  0  0  0
    0.2746    3.7509    1.6558 H   0  0  0  0  0  0  0  0  0  0  0  0
   -1.4911    3.6008    1.7503 H   0  0  0  0  0  0  0  0  0  0  0  0
   -0.4687    2.7725    2.9444 H   0  0  0  0  0  0  0  0  0  0  0  0
  1  2  1  0  0  0  0
  2  3  1  0  0  0  0
  2  4  1  0  0  0  0
  2  5  1  0  0  0  0
  5  6  2  0  0  0  0
  5  7  1  0  0  0  0
  7  8  1  0  0  0  0
  7 17  1  0  0  0  0
  8  9  1  0  0  0  0
  8 10  1  0  0  0  0
  8 11  1  0  0  0  0
 11 12  1  0  0  0  0
 11 13  1  0  0  0  0
 11 14  1  0  0  0  0
 14 15  1  0  0  0  0
 14 16  1  0  0  0  0
 14 17  1  0  0  0  0
 17 18  1  0  0  0  0
 17 19  1  0  0  0  0
 19 20  2  0  0  0  0
 19 21  1  0  0  0  0
 21 22  1  0  0  0  0
 21 23  1  0  0  0  0
 23 24  1  0  0  0  0
 23 25  1  0  0  0  0
 23 26  1  0  0  0  0
M  END
$$$$

  -OEChem-11182114133D

 26 26  0     1  0  0  0  0  0999 V2000
   -1.7084   -3.8677    1.0554 H   0  0  0  0  0  0  0  0  0  0  0  0
   -1.9274   -2.9595    0.4870 C   0  0  0  0  0  0  0  0  0  0  0  0
   -2.5932   -2.3311    1.0838 H   0  0  0  0  0  0  0  0  0  0  0  0
   -2.4334   -3.2391   -0.4401 H   0  0  0  0  0  0  0  0  0  0  0  0
   -0.6313   -2.2145    0.1779 C   0  0  0  0  0  0  0  0  0  0  0  0
    0.3747   -2.9003    0.0627 O   0  0  0  0  0  0  0  0  0  0  0  0
   -0.5822   -0.8132    0.2399 N   0  0  0  0  0  0  0  0  0  0  0  0
   -1.5389   -0.3986   -0.8146 C   0  0  0  0  0  0  0  0  0  0  0  0
   -1.8538   -1.2056   -1.4898 H   0  0  0  0  0  0  0  0  0  0  0  0
   -2.4431    0.0367   -0.3778 H   0  0  0  0  0  0  0  0  0  0  0  0
   -0.7973    0.6091   -1.6420 C   0  0  0  0  0  0  0  0  0  0  0  0
   -1.0238    1.6227   -1.2988 H   0  0  0  0  0  0  0  0  0  0  0  0
   -1.0763    0.5435   -2.6984 H   0  0  0  0  0  0  0  0  0  0  0  0
    0.6800    0.3074   -1.4396 C   0  0  0  0  0  0  0  0  0  0  0  0
    1.3139    1.1767   -1.6513 H   0  0  0  0  0  0  0  0  0  0  0  0
    0.9869   -0.4976   -2.1158 H   0  0  0  0  0  0  0  0  0  0  0  0
    0.7679   -0.2016    0.0103 C   0  0  1  0  0  0  0  0  0  0  0  0
    1.6160   -0.8755    0.1705 H   0  0  0  0  0  0  0  0  0  0  0  0
    1.0355    1.1329    0.7711 C   0  0  0  0  0  0  0  0  0  0  0  0
    2.1868    1.5285    0.8732 O   0  0  0  0  0  0  0  0  0  0  0  0
    0.1417    2.1130    1.1583 N   0  0  0  0  0  0  0  0  0  0  0  0
    0.6225    2.9244    1.5391 H   0  0  0  0  0  0  0  0  0  0  0  0
   -1.2043    1.8606    1.6526 C   0  0  0  0  0  0  0  0  0  0  0  0
   -1.4746    2.6262    2.3862 H   0  0  0  0  0  0  0  0  0  0  0  0
   -1.9328    1.9010    0.8395 H   0  0  0  0  0  0  0  0  0  0  0  0
   -1.2668    0.8868    2.1486 H   0  0  0  0  0  0  0  0  0  0  0  0
  1  2  1  0  0  0  0
  2  3  1  0  0  0  0
  2  4  1  0  0  0  0
  2  5  1  0  0  0  0
  5  6  2  0  0  0  0
  5  7  1  0  0  0  0
  7  8  1  0  0  0  0
  7 17  1  0  0  0  0
  8  9  1  0  0  0  0
  8 10  1  0  0  0  0
  8 11  1  0  0  0  0
 11 12  1  0  0  0  0
 11 13  1  0  0  0  0
 11 14  1  0  0  0  0
 14 15  1  0  0  0  0
 14 16  1  0  0  0  0
 14 17  1  0  0  0  0
 17 18  1  0  0  0  0
 17 19  1  0  0  0  0
 19 20  2  0  0  0  0
 19 21  1  0  0  0  0
 21 22  1  0  0  0  0
 21 23  1  0  0  0  0
 23 24  1  0  0  0  0
 23 25  1  0  0  0  0
 23 26  1  0  0  0  0
M  END
$$$$

  -OEChem-11182114133D

 26 26  0     1  0  0  0  0  0999 V2000
   -1.4763   -4.2617    0.5362 H   0  0  0  0  0  0  0  0  0  0  0  0
   -1.7444   -3.3255    0.0384 C   0  0  0  0  0  0  0  0  0  0  0  0
   -2.5270   -2.8359    0.6233 H   0  0  0  0  0  0  0  0  0  0  0  0
   -2.1312   -3.5558   -0.9571 H   0  0  0  0  0  0  0  0  0  0  0  0
   -0.5175   -2.4232   -0.0672 C   0  0  0  0  0  0  0  0  0  0  0  0
    0.5668   -2.9844   -0.1319 O   0  0  0  0  0  0  0  0  0  0  0  0
   -0.6292   -1.0363    0.1157 N   0  0  0  0  0  0  0  0  0  0  0  0
   -1.5545   -0.6037   -0.9563 C   0  0  0  0  0  0  0  0  0  0  0  0
   -2.5212   -0.3008   -0.5403 H   0  0  0  0  0  0  0  0  0  0  0  0
   -1.7413   -1.3613   -1.7287 H   0  0  0  0  0  0  0  0  0  0  0  0
   -0.8674    0.5569   -1.6143 C   0  0  0  0  0  0  0  0  0  0  0  0
   -1.2249    1.4971   -1.1822 H   0  0  0  0  0  0  0  0  0  0  0  0
   -1.0676    0.5846   -2.6901 H   0  0  0  0  0  0  0  0  0  0  0  0
    0.6202    0.3837   -1.3315 C   0  0  0  0  0  0  0  0  0  0  0  0
    1.1705    1.3297   -1.3981 H   0  0  0  0  0  0  0  0  0  0  0  0
    1.0568   -0.3059   -2.0615 H   0  0  0  0  0  0  0  0  0  0  0  0
    0.6605   -0.2715    0.0591 C   0  0  1  0  0  0  0  0  0  0  0  0
    1.5733   -0.8475    0.2446 H   0  0  0  0  0  0  0  0  0  0  0  0
    0.6242    0.9810    0.9720 C   0  0  0  0  0  0  0  0  0  0  0  0
    1.6559    1.5948    1.2137 O   0  0  0  0  0  0  0  0  0  0  0  0
   -0.5710    1.4643    1.4768 N   0  0  0  0  0  0  0  0  0  0  0  0
   -1.3822    0.8671    1.3452 H   0  0  0  0  0  0  0  0  0  0  0  0
   -0.6625    2.6008    2.3841 C   0  0  0  0  0  0  0  0  0  0  0  0
   -0.2487    3.4997    1.9153 H   0  0  0  0  0  0  0  0  0  0  0  0
   -1.7080    2.7965    2.6402 H   0  0  0  0  0  0  0  0  0  0  0  0
   -0.1102    2.3987    3.3078 H   0  0  0  0  0  0  0  0  0  0  0  0
  1  2  1  0  0  0  0
  2  3  1  0  0  0  0
  2  4  1  0  0  0  0
  2  5  1  0  0  0  0
  5  6  2  0  0  0  0
  5  7  1  0  0  0  0
  7  8  1  0  0  0  0
  7 17  1  0  0  0  0
  8  9  1  0  0  0  0
  8 10  1  0  0  0  0
  8 11  1  0  0  0  0
 11 12  1  0  0  0  0
 11 13  1  0  0  0  0
 11 14  1  0  0  0  0
 14 15  1  0  0  0  0
 14 16  1  0  0  0  0
 14 17  1  0  0  0  0
 17 18  1  0  0  0  0
 17 19  1  0  0  0  0
 19 20  2  0  0  0  0
 19 21  1  0  0  0  0
 21 22  1  0  0  0  0
 21 23  1  0  0  0  0
 23 24  1  0  0  0  0
 23 25  1  0  0  0  0
 23 26  1  0  0  0  0
M  END
$$$$

  -OEChem-11182114133D

 26 26  0     1  0  0  0  0  0999 V2000
   -1.5055   -4.2493    0.5336 H   0  0  0  0  0  0  0  0  0  0  0  0
   -1.7491   -3.3198    0.0110 C   0  0  0  0  0  0  0  0  0  0  0  0
   -2.5529   -2.8187    0.5560 H   0  0  0  0  0  0  0  0  0  0  0  0
   -2.0963   -3.5642   -0.9957 H   0  0  0  0  0  0  0  0  0  0  0  0
   -0.5145   -2.4240   -0.0595 C   0  0  0  0  0  0  0  0  0  0  0  0
    0.5672   -2.9936   -0.0728 O   0  0  0  0  0  0  0  0  0  0  0  0
   -0.6193   -1.0351    0.1149 N   0  0  0  0  0  0  0  0  0  0  0  0
   -1.5494   -0.5936   -0.9468 C   0  0  0  0  0  0  0  0  0  0  0  0
   -2.5093   -0.2812   -0.5220 H   0  0  0  0  0  0  0  0  0  0  0  0
   -1.7491   -1.3478   -1.7186 H   0  0  0  0  0  0  0  0  0  0  0  0
   -0.8550    0.5602   -1.6049 C   0  0  0  0  0  0  0  0  0  0  0  0
   -1.2010    1.5006   -1.1628 H   0  0  0  0  0  0  0  0  0  0  0  0
   -1.0626    0.5951   -2.6792 H   0  0  0  0  0  0  0  0  0  0  0  0
    0.6332    0.3788   -1.3312 C   0  0  0  0  0  0  0  0  0  0  0  0
    1.1883    1.3209   -1.4094 H   0  0  0  0  0  0  0  0  0  0  0  0
    1.0601   -0.3151   -2.0627 H   0  0  0  0  0  0  0  0  0  0  0  0
    0.6767   -0.2785    0.0606 C   0  0  1  0  0  0  0  0  0  0  0  0
    1.5882   -0.8549    0.2489 H   0  0  0  0  0  0  0  0  0  0  0  0
    0.6315    0.9780    0.9700 C   0  0  0  0  0  0  0  0  0  0  0  0
    1.6054    1.7144    1.0741 O   0  0  0  0  0  0  0  0  0  0  0  0
   -0.5069    1.2755    1.6987 N   0  0  0  0  0  0  0  0  0  0  0  0
   -1.2492    0.5820    1.6669 H   0  0  0  0  0  0  0  0  0  0  0  0
   -0.5961    2.3760    2.6496 C   0  0  0  0  0  0  0  0  0  0  0  0
   -0.3928    3.3300    2.1520 H   0  0  0  0  0  0  0  0  0  0  0  0
   -1.5999    2.4207    3.0826 H   0  0  0  0  0  0  0  0  0  0  0  0
    0.1267    2.2398    3.4608 H   0  0  0  0  0  0  0  0  0  0  0  0
  1  2  1  0  0  0  0
  2  3  1  0  0  0  0
  2  4  1  0  0  0  0
  2  5  1  0  0  0  0
  5  6  2  0  0  0  0
  5  7  1  0  0  0  0
  7  8  1  0  0  0  0
  7 17  1  0  0  0  0
  8  9  1  0  0  0  0
  8 10  1  0  0  0  0
  8 11  1  0  0  0  0
 11 12  1  0  0  0  0
 11 13  1  0  0  0  0
 11 14  1  0  0  0  0
 14 15  1  0  0  0  0
 14 16  1  0  0  0  0
 14 17  1  0  0  0  0
 17 18  1  0  0  0  0
 17 19  1  0  0  0  0
 19 20  2  0  0  0  0
 19 21  1  0  0  0  0
 21 22  1  0  0  0  0
 21 23  1  0  0  0  0
 23 24  1  0  0  0  0
 23 25  1  0  0  0  0
 23 26  1  0  0  0  0
M  END
$$$$

  -OEChem-11182114133D

 26 26  0     1  0  0  0  0  0999 V2000
   -1.4989   -4.2483    0.5173 H   0  0  0  0  0  0  0  0  0  0  0  0
   -1.7446   -3.3129    0.0065 C   0  0  0  0  0  0  0  0  0  0  0  0
   -2.5458   -2.8181    0.5610 H   0  0  0  0  0  0  0  0  0  0  0  0
   -2.0966   -3.5470   -1.0011 H   0  0  0  0  0  0  0  0  0  0  0  0
   -0.5100   -2.4164   -0.0595 C   0  0  0  0  0  0  0  0  0  0  0  0
    0.5708   -2.9880   -0.0577 O   0  0  0  0  0  0  0  0  0  0  0  0
   -0.6113   -1.0269    0.1152 N   0  0  0  0  0  0  0  0  0  0  0  0
   -1.5516   -0.5836   -0.9355 C   0  0  0  0  0  0  0  0  0  0  0  0
   -2.5034   -0.2623   -0.4995 H   0  0  0  0  0  0  0  0  0  0  0  0
   -1.7662   -1.3379   -1.7031 H   0  0  0  0  0  0  0  0  0  0  0  0
   -0.8561    0.5609   -1.6046 C   0  0  0  0  0  0  0  0  0  0  0  0
   -1.1915    1.5043   -1.1605 H   0  0  0  0  0  0  0  0  0  0  0  0
   -1.0749    0.5951   -2.6766 H   0  0  0  0  0  0  0  0  0  0  0  0
    0.6337    0.3747   -1.3448 C   0  0  0  0  0  0  0  0  0  0  0  0
    1.1940    1.3109   -1.4440 H   0  0  0  0  0  0  0  0  0  0  0  0
    1.0467   -0.3289   -2.0750 H   0  0  0  0  0  0  0  0  0  0  0  0
    0.6888   -0.2763    0.0520 C   0  0  1  0  0  0  0  0  0  0  0  0
    1.6007   -0.8530    0.2375 H   0  0  0  0  0  0  0  0  0  0  0  0
    0.6389    0.9787    0.9673 C   0  0  0  0  0  0  0  0  0  0  0  0
    1.5202    1.8307    0.9442 O   0  0  0  0  0  0  0  0  0  0  0  0
   -0.3609    1.0979    1.9164 N   0  0  0  0  0  0  0  0  0  0  0  0
   -1.0251    0.3301    1.9666 H   0  0  0  0  0  0  0  0  0  0  0  0
   -0.4293    2.1725    2.8983 C   0  0  0  0  0  0  0  0  0  0  0  0
   -0.4898    3.1449    2.3984 H   0  0  0  0  0  0  0  0  0  0  0  0
   -1.3158    2.0526    3.5284 H   0  0  0  0  0  0  0  0  0  0  0  0
    0.4570    2.1608    3.5412 H   0  0  0  0  0  0  0  0  0  0  0  0
  1  2  1  0  0  0  0
  2  3  1  0  0  0  0
  2  4  1  0  0  0  0
  2  5  1  0  0  0  0
  5  6  2  0  0  0  0
  5  7  1  0  0  0  0
  7  8  1  0  0  0  0
  7 17  1  0  0  0  0
  8  9  1  0  0  0  0
  8 10  1  0  0  0  0
  8 11  1  0  0  0  0
 11 12  1  0  0  0  0
 11 13  1  0  0  0  0
 11 14  1  0  0  0  0
 14 15  1  0  0  0  0
 14 16  1  0  0  0  0
 14 17  1  0  0  0  0
 17 18  1  0  0  0  0
 17 19  1  0  0  0  0
 19 20  2  0  0  0  0
 19 21  1  0  0  0  0
 21 22  1  0  0  0  0
 21 23  1  0  0  0  0
 23 24  1  0  0  0  0
 23 25  1  0  0  0  0
 23 26  1  0  0  0  0
M  END
$$$$

  -OEChem-11182114133D

 26 26  0     1  0  0  0  0  0999 V2000
   -1.5073   -4.2127    0.5529 H   0  0  0  0  0  0  0  0  0  0  0  0
   -1.7493   -3.2868    0.0234 C   0  0  0  0  0  0  0  0  0  0  0  0
   -2.5495   -2.7786    0.5671 H   0  0  0  0  0  0  0  0  0  0  0  0
   -2.1012   -3.5393   -0.9796 H   0  0  0  0  0  0  0  0  0  0  0  0
   -0.5115   -2.3956   -0.0594 C   0  0  0  0  0  0  0  0  0  0  0  0
    0.5669   -2.9720   -0.0563 O   0  0  0  0  0  0  0  0  0  0  0  0
   -0.6050   -1.0056    0.1166 N   0  0  0  0  0  0  0  0  0  0  0  0
   -1.5502   -0.5668   -0.9324 C   0  0  0  0  0  0  0  0  0  0  0  0
   -2.4943   -0.2292   -0.4915 H   0  0  0  0  0  0  0  0  0  0  0  0
   -1.7814   -1.3269   -1.6897 H   0  0  0  0  0  0  0  0  0  0  0  0
   -0.8491    0.5608   -1.6213 C   0  0  0  0  0  0  0  0  0  0  0  0
   -1.1743    1.5132   -1.1888 H   0  0  0  0  0  0  0  0  0  0  0  0
   -1.0739    0.5810   -2.6925 H   0  0  0  0  0  0  0  0  0  0  0  0
    0.6409    0.3690   -1.3689 C   0  0  0  0  0  0  0  0  0  0  0  0
    1.2090    1.2968   -1.4932 H   0  0  0  0  0  0  0  0  0  0  0  0
    1.0420   -0.3508   -2.0901 H   0  0  0  0  0  0  0  0  0  0  0  0
    0.6993   -0.2631    0.0380 C   0  0  1  0  0  0  0  0  0  0  0  0
    1.6095   -0.8411    0.2272 H   0  0  0  0  0  0  0  0  0  0  0  0
    0.6397    0.9865    0.9643 C   0  0  0  0  0  0  0  0  0  0  0  0
    1.3700    1.9612    0.8191 O   0  0  0  0  0  0  0  0  0  0  0  0
   -0.1517    0.9393    2.0982 N   0  0  0  0  0  0  0  0  0  0  0  0
   -0.7010    0.0940    2.2286 H   0  0  0  0  0  0  0  0  0  0  0  0
   -0.1853    1.9810    3.1169 C   0  0  0  0  0  0  0  0  0  0  0  0
   -0.5117    2.9313    2.6819 H   0  0  0  0  0  0  0  0  0  0  0  0
   -0.8832    1.7076    3.9139 H   0  0  0  0  0  0  0  0  0  0  0  0
    0.8077    2.1170    3.5581 H   0  0  0  0  0  0  0  0  0  0  0  0
  1  2  1  0  0  0  0
  2  3  1  0  0  0  0
  2  4  1  0  0  0  0
  2  5  1  0  0  0  0
  5  6  2  0  0  0  0
  5  7  1  0  0  0  0
  7  8  1  0  0  0  0
  7 17  1  0  0  0  0
  8  9  1  0  0  0  0
  8 10  1  0  0  0  0
  8 11  1  0  0  0  0
 11 12  1  0  0  0  0
 11 13  1  0  0  0  0
 11 14  1  0  0  0  0
 14 15  1  0  0  0  0
 14 16  1  0  0  0  0
 14 17  1  0  0  0  0
 17 18  1  0  0  0  0
 17 19  1  0  0  0  0
 19 20  2  0  0  0  0
 19 21  1  0  0  0  0
 21 22  1  0  0  0  0
 21 23  1  0  0  0  0
 23 24  1  0  0  0  0
 23 25  1  0  0  0  0
 23 26  1  0  0  0  0
M  END
$$$$

  -OEChem-11182114133D

 26 26  0     1  0  0  0  0  0999 V2000
   -1.5194   -4.1926    0.5527 H   0  0  0  0  0  0  0  0  0  0  0  0
   -1.7621   -3.2558    0.0431 C   0  0  0  0  0  0  0  0  0  0  0  0
   -2.5429   -2.7458    0.6132 H   0  0  0  0  0  0  0  0  0  0  0  0
   -2.1409   -3.4893   -0.9549 H   0  0  0  0  0  0  0  0  0  0  0  0
   -0.5154   -2.3782   -0.0559 C   0  0  0  0  0  0  0  0  0  0  0  0
    0.5561   -2.9679   -0.0617 O   0  0  0  0  0  0  0  0  0  0  0  0
   -0.5877   -0.9878    0.1280 N   0  0  0  0  0  0  0  0  0  0  0  0
   -1.5433   -0.5403   -0.9091 C   0  0  0  0  0  0  0  0  0  0  0  0
   -2.4729   -0.1820   -0.4541 H   0  0  0  0  0  0  0  0  0  0  0  0
   -1.8030   -1.2990   -1.6582 H   0  0  0  0  0  0  0  0  0  0  0  0
   -0.8340    0.5687   -1.6186 C   0  0  0  0  0  0  0  0  0  0  0  0
   -1.1368    1.5301   -1.1894 H   0  0  0  0  0  0  0  0  0  0  0  0
   -1.0762    0.5845   -2.6860 H   0  0  0  0  0  0  0  0  0  0  0  0
    0.6573    0.3572   -1.3885 C   0  0  0  0  0  0  0  0  0  0  0  0
    1.2443    1.2696   -1.5350 H   0  0  0  0  0  0  0  0  0  0  0  0
    1.0318   -0.3784   -2.1077 H   0  0  0  0  0  0  0  0  0  0  0  0
    0.7247   -0.2637    0.0234 C   0  0  1  0  0  0  0  0  0  0  0  0
    1.6313   -0.8500    0.2047 H   0  0  0  0  0  0  0  0  0  0  0  0
    0.6712    0.9761    0.9683 C   0  0  0  0  0  0  0  0  0  0  0  0
    1.1572    2.0722    0.7065 O   0  0  0  0  0  0  0  0  0  0  0  0
    0.1587    0.7978    2.2409 N   0  0  0  0  0  0  0  0  0  0  0  0
   -0.2416   -0.1143    2.4427 H   0  0  0  0  0  0  0  0  0  0  0  0
    0.0879    1.8481    3.2492 C   0  0  0  0  0  0  0  0  0  0  0  0
   -0.5380    2.6747    2.8971 H   0  0  0  0  0  0  0  0  0  0  0  0
   -0.3446    1.4548    4.1740 H   0  0  0  0  0  0  0  0  0  0  0  0
    1.0885    2.2328    3.4728 H   0  0  0  0  0  0  0  0  0  0  0  0
  1  2  1  0  0  0  0
  2  3  1  0  0  0  0
  2  4  1  0  0  0  0
  2  5  1  0  0  0  0
  5  6  2  0  0  0  0
  5  7  1  0  0  0  0
  7  8  1  0  0  0  0
  7 17  1  0  0  0  0
  8  9  1  0  0  0  0
  8 10  1  0  0  0  0
  8 11  1  0  0  0  0
 11 12  1  0  0  0  0
 11 13  1  0  0  0  0
 11 14  1  0  0  0  0
 14 15  1  0  0  0  0
 14 16  1  0  0  0  0
 14 17  1  0  0  0  0
 17 18  1  0  0  0  0
 17 19  1  0  0  0  0
 19 20  2  0  0  0  0
 19 21  1  0  0  0  0
 21 22  1  0  0  0  0
 21 23  1  0  0  0  0
 23 24  1  0  0  0  0
 23 25  1  0  0  0  0
 23 26  1  0  0  0  0
M  END
$$$$

  -OEChem-11182114133D

 26 26  0     1  0  0  0  0  0999 V2000
   -1.5313   -4.1597    0.5917 H   0  0  0  0  0  0  0  0  0  0  0  0
   -1.7726   -3.2289    0.0709 C   0  0  0  0  0  0  0  0  0  0  0  0
   -2.5453   -2.7061    0.6402 H   0  0  0  0  0  0  0  0  0  0  0  0
   -2.1609   -3.4738   -0.9206 H   0  0  0  0  0  0  0  0  0  0  0  0
   -0.5221   -2.3598   -0.0504 C   0  0  0  0  0  0  0  0  0  0  0  0
    0.5462   -2.9560   -0.0625 O   0  0  0  0  0  0  0  0  0  0  0  0
   -0.5838   -0.9693    0.1339 N   0  0  0  0  0  0  0  0  0  0  0  0
   -1.5389   -0.5248   -0.9067 C   0  0  0  0  0  0  0  0  0  0  0  0
   -2.4628   -0.1517   -0.4518 H   0  0  0  0  0  0  0  0  0  0  0  0
   -1.8113   -1.2880   -1.6470 H   0  0  0  0  0  0  0  0  0  0  0  0
   -0.8227    0.5699   -1.6317 C   0  0  0  0  0  0  0  0  0  0  0  0
   -1.1188    1.5388   -1.2151 H   0  0  0  0  0  0  0  0  0  0  0  0
   -1.0674    0.5738   -2.6985 H   0  0  0  0  0  0  0  0  0  0  0  0
    0.6685    0.3496   -1.4039 C   0  0  0  0  0  0  0  0  0  0  0  0
    1.2658    1.2547   -1.5550 H   0  0  0  0  0  0  0  0  0  0  0  0
    1.0360   -0.3959   -2.1167 H   0  0  0  0  0  0  0  0  0  0  0  0
    0.7312   -0.2554    0.0137 C   0  0  1  0  0  0  0  0  0  0  0  0
    1.6343   -0.8466    0.1951 H   0  0  0  0  0  0  0  0  0  0  0  0
    0.6831    0.9813    0.9646 C   0  0  0  0  0  0  0  0  0  0  0  0
    0.8651    2.1485    0.6287 O   0  0  0  0  0  0  0  0  0  0  0  0
    0.4860    0.7336    2.3114 N   0  0  0  0  0  0  0  0  0  0  0  0
    0.3004   -0.2307    2.5735 H   0  0  0  0  0  0  0  0  0  0  0  0
    0.4175    1.7729    3.3313 C   0  0  0  0  0  0  0  0  0  0  0  0
   -0.4232    2.4466    3.1357 H   0  0  0  0  0  0  0  0  0  0  0  0
    0.2794    1.3234    4.3192 H   0  0  0  0  0  0  0  0  0  0  0  0
    1.3431    2.3579    3.3456 H   0  0  0  0  0  0  0  0  0  0  0  0
  1  2  1  0  0  0  0
  2  3  1  0  0  0  0
  2  4  1  0  0  0  0
  2  5  1  0  0  0  0
  5  6  2  0  0  0  0
  5  7  1  0  0  0  0
  7  8  1  0  0  0  0
  7 17  1  0  0  0  0
  8  9  1  0  0  0  0
  8 10  1  0  0  0  0
  8 11  1  0  0  0  0
 11 12  1  0  0  0  0
 11 13  1  0  0  0  0
 11 14  1  0  0  0  0
 14 15  1  0  0  0  0
 14 16  1  0  0  0  0
 14 17  1  0  0  0  0
 17 18  1  0  0  0  0
 17 19  1  0  0  0  0
 19 20  2  0  0  0  0
 19 21  1  0  0  0  0
 21 22  1  0  0  0  0
 21 23  1  0  0  0  0
 23 24  1  0  0  0  0
 23 25  1  0  0  0  0
 23 26  1  0  0  0  0
M  END
$$$$

  -OEChem-11182114133D

 26 26  0     1  0  0  0  0  0999 V2000
   -1.5335   -4.1452    0.6186 H   0  0  0  0  0  0  0  0  0  0  0  0
   -1.7779   -3.2231    0.0840 C   0  0  0  0  0  0  0  0  0  0  0  0
   -2.5519   -2.6943    0.6460 H   0  0  0  0  0  0  0  0  0  0  0  0
   -2.1663   -3.4835   -0.9035 H   0  0  0  0  0  0  0  0  0  0  0  0
   -0.5300   -2.3523   -0.0509 C   0  0  0  0  0  0  0  0  0  0  0  0
    0.5399   -2.9461   -0.0739 O   0  0  0  0  0  0  0  0  0  0  0  0
   -0.5947   -0.9623    0.1345 N   0  0  0  0  0  0  0  0  0  0  0  0
   -1.5425   -0.5272   -0.9182 C   0  0  0  0  0  0  0  0  0  0  0  0
   -2.4711   -0.1545   -0.4726 H   0  0  0  0  0  0  0  0  0  0  0  0
   -1.8076   -1.2954   -1.6561 H   0  0  0  0  0  0  0  0  0  0  0  0
   -0.8254    0.5663   -1.6439 C   0  0  0  0  0  0  0  0  0  0  0  0
   -1.1349    1.5369   -1.2423 H   0  0  0  0  0  0  0  0  0  0  0  0
   -1.0576    0.5580   -2.7135 H   0  0  0  0  0  0  0  0  0  0  0  0
    0.6653    0.3511   -1.3996 C   0  0  0  0  0  0  0  0  0  0  0  0
    1.2591    1.2612   -1.5385 H   0  0  0  0  0  0  0  0  0  0  0  0
    1.0455   -0.3927   -2.1072 H   0  0  0  0  0  0  0  0  0  0  0  0
    0.7188   -0.2459    0.0212 C   0  0  1  0  0  0  0  0  0  0  0  0
    1.6204   -0.8395    0.2024 H   0  0  0  0  0  0  0  0  0  0  0  0
    0.6833    0.9940    0.9681 C   0  0  0  0  0  0  0  0  0  0  0  0
    0.5927    2.1679    0.6170 O   0  0  0  0  0  0  0  0  0  0  0  0
    0.8105    0.7462    2.3233 N   0  0  0  0  0  0  0  0  0  0  0  0
    0.8325   -0.2288    2.6098 H   0  0  0  0  0  0  0  0  0  0  0  0
    0.7873    1.7839    3.3472 C   0  0  0  0  0  0  0  0  0  0  0  0
   -0.1719    2.3120    3.3354 H   0  0  0  0  0  0  0  0  0  0  0  0
    0.9266    1.3401    4.3377 H   0  0  0  0  0  0  0  0  0  0  0  0
    1.5914    2.5079    3.1776 H   0  0  0  0  0  0  0  0  0  0  0  0
  1  2  1  0  0  0  0
  2  3  1  0  0  0  0
  2  4  1  0  0  0  0
  2  5  1  0  0  0  0
  5  6  2  0  0  0  0
  5  7  1  0  0  0  0
  7  8  1  0  0  0  0
  7 17  1  0  0  0  0
  8  9  1  0  0  0  0
  8 10  1  0  0  0  0
  8 11  1  0  0  0  0
 11 12  1  0  0  0  0
 11 13  1  0  0  0  0
 11 14  1  0  0  0  0
 14 15  1  0  0  0  0
 14 16  1  0  0  0  0
 14 17  1  0  0  0  0
 17 18  1  0  0  0  0
 17 19  1  0  0  0  0
 19 20  2  0  0  0  0
 19 21  1  0  0  0  0
 21 22  1  0  0  0  0
 21 23  1  0  0  0  0
 23 24  1  0  0  0  0
 23 25  1  0  0  0  0
 23 26  1  0  0  0  0
M  END
$$$$

  -OEChem-11182114133D

 26 26  0     1  0  0  0  0  0999 V2000
   -1.5341   -4.1482    0.6189 H   0  0  0  0  0  0  0  0  0  0  0  0
   -1.7834   -3.2269    0.0851 C   0  0  0  0  0  0  0  0  0  0  0  0
   -2.5594   -2.7020    0.6483 H   0  0  0  0  0  0  0  0  0  0  0  0
   -2.1717   -3.4881   -0.9023 H   0  0  0  0  0  0  0  0  0  0  0  0
   -0.5397   -2.3502   -0.0501 C   0  0  0  0  0  0  0  0  0  0  0  0
    0.5325   -2.9400   -0.0812 O   0  0  0  0  0  0  0  0  0  0  0  0
   -0.6120   -0.9607    0.1364 N   0  0  0  0  0  0  0  0  0  0  0  0
   -1.5501   -0.5334   -0.9292 C   0  0  0  0  0  0  0  0  0  0  0  0
   -2.4849   -0.1633   -0.4947 H   0  0  0  0  0  0  0  0  0  0  0  0
   -1.8047   -1.3045   -1.6680 H   0  0  0  0  0  0  0  0  0  0  0  0
   -0.8317    0.5621   -1.6500 C   0  0  0  0  0  0  0  0  0  0  0  0
   -1.1592    1.5330   -1.2656 H   0  0  0  0  0  0  0  0  0  0  0  0
   -1.0464    0.5423   -2.7230 H   0  0  0  0  0  0  0  0  0  0  0  0
    0.6572    0.3531   -1.3827 C   0  0  0  0  0  0  0  0  0  0  0  0
    1.2424    1.2715   -1.5049 H   0  0  0  0  0  0  0  0  0  0  0  0
    1.0542   -0.3855   -2.0866 H   0  0  0  0  0  0  0  0  0  0  0  0
    0.7006   -0.2402    0.0396 C   0  0  1  0  0  0  0  0  0  0  0  0
    1.5998   -0.8379    0.2192 H   0  0  0  0  0  0  0  0  0  0  0  0
    0.6892    1.0077    0.9759 C   0  0  0  0  0  0  0  0  0  0  0  0
    0.3484    2.1444    0.6580 O   0  0  0  0  0  0  0  0  0  0  0  0
    1.1301    0.8182    2.2738 N   0  0  0  0  0  0  0  0  0  0  0  0
    1.3454   -0.1356    2.5510 H   0  0  0  0  0  0  0  0  0  0  0  0
    1.1517    1.8674    3.2860 C   0  0  0  0  0  0  0  0  0  0  0  0
    0.1382    2.2344    3.4786 H   0  0  0  0  0  0  0  0  0  0  0  0
    1.5641    1.4798    4.2224 H   0  0  0  0  0  0  0  0  0  0  0  0
    1.7744    2.7059    2.9565 H   0  0  0  0  0  0  0  0  0  0  0  0
  1  2  1  0  0  0  0
  2  3  1  0  0  0  0
  2  4  1  0  0  0  0
  2  5  1  0  0  0  0
  5  6  2  0  0  0  0
  5  7  1  0  0  0  0
  7  8  1  0  0  0  0
  7 17  1  0  0  0  0
  8  9  1  0  0  0  0
  8 10  1  0  0  0  0
  8 11  1  0  0  0  0
 11 12  1  0  0  0  0
 11 13  1  0  0  0  0
 11 14  1  0  0  0  0
 14 15  1  0  0  0  0
 14 16  1  0  0  0  0
 14 17  1  0  0  0  0
 17 18  1  0  0  0  0
 17 19  1  0  0  0  0
 19 20  2  0  0  0  0
 19 21  1  0  0  0  0
 21 22  1  0  0  0  0
 21 23  1  0  0  0  0
 23 24  1  0  0  0  0
 23 25  1  0  0  0  0
 23 26  1  0  0  0  0
M  END
$$$$

  -OEChem-11182114133D

 26 26  0     1  0  0  0  0  0999 V2000
   -1.5356   -4.1518    0.6259 H   0  0  0  0  0  0  0  0  0  0  0  0
   -1.7880   -3.2321    0.0908 C   0  0  0  0  0  0  0  0  0  0  0  0
   -2.5649   -2.7080    0.6536 H   0  0  0  0  0  0  0  0  0  0  0  0
   -2.1768   -3.4953   -0.8958 H   0  0  0  0  0  0  0  0  0  0  0  0
   -0.5469   -2.3523   -0.0462 C   0  0  0  0  0  0  0  0  0  0  0  0
    0.5278   -2.9377   -0.0900 O   0  0  0  0  0  0  0  0  0  0  0  0
   -0.6261   -0.9631    0.1384 N   0  0  0  0  0  0  0  0  0  0  0  0
   -1.5543   -0.5418   -0.9392 C   0  0  0  0  0  0  0  0  0  0  0  0
   -2.4975   -0.1809   -0.5153 H   0  0  0  0  0  0  0  0  0  0  0  0
   -1.7929   -1.3149   -1.6813 H   0  0  0  0  0  0  0  0  0  0  0  0
   -0.8386    0.5618   -1.6507 C   0  0  0  0  0  0  0  0  0  0  0  0
   -1.1834    1.5304   -1.2776 H   0  0  0  0  0  0  0  0  0  0  0  0
   -1.0374    0.5358   -2.7264 H   0  0  0  0  0  0  0  0  0  0  0  0
    0.6478    0.3607   -1.3629 C   0  0  0  0  0  0  0  0  0  0  0  0
    1.2213    1.2889   -1.4669 H   0  0  0  0  0  0  0  0  0  0  0  0
    1.0626   -0.3683   -2.0666 H   0  0  0  0  0  0  0  0  0  0  0  0
    0.6834   -0.2354    0.0580 C   0  0  1  0  0  0  0  0  0  0  0  0
    1.5800   -0.8372    0.2350 H   0  0  0  0  0  0  0  0  0  0  0  0
    0.6954    1.0218    0.9798 C   0  0  0  0  0  0  0  0  0  0  0  0
    0.1076    2.0759    0.7547 O   0  0  0  0  0  0  0  0  0  0  0  0
    1.4197    0.9382    2.1563 N   0  0  0  0  0  0  0  0  0  0  0  0
    1.8328    0.0372    2.3807 H   0  0  0  0  0  0  0  0  0  0  0  0
    1.4762    2.0036    3.1505 C   0  0  0  0  0  0  0  0  0  0  0  0
    0.4776    2.2075    3.5509 H   0  0  0  0  0  0  0  0  0  0  0  0
    2.1288    1.7124    3.9790 H   0  0  0  0  0  0  0  0  0  0  0  0
    1.8730    2.9226    2.7065 H   0  0  0  0  0  0  0  0  0  0  0  0
  1  2  1  0  0  0  0
  2  3  1  0  0  0  0
  2  4  1  0  0  0  0
  2  5  1  0  0  0  0
  5  6  2  0  0  0  0
  5  7  1  0  0  0  0
  7  8  1  0  0  0  0
  7 17  1  0  0  0  0
  8  9  1  0  0  0  0
  8 10  1  0  0  0  0
  8 11  1  0  0  0  0
 11 12  1  0  0  0  0
 11 13  1  0  0  0  0
 11 14  1  0  0  0  0
 14 15  1  0  0  0  0
 14 16  1  0  0  0  0
 14 17  1  0  0  0  0
 17 18  1  0  0  0  0
 17 19  1  0  0  0  0
 19 20  2  0  0  0  0
 19 21  1  0  0  0  0
 21 22  1  0  0  0  0
 21 23  1  0  0  0  0
 23 24  1  0  0  0  0
 23 25  1  0  0  0  0
 23 26  1  0  0  0  0
M  END
$$$$

  -OEChem-11182114133D

 26 26  0     1  0  0  0  0  0999 V2000
   -1.5363   -4.1566    0.6314 H   0  0  0  0  0  0  0  0  0  0  0  0
   -1.7928   -3.2278    0.1143 C   0  0  0  0  0  0  0  0  0  0  0  0
   -2.5552   -2.7069    0.6993 H   0  0  0  0  0  0  0  0  0  0  0  0
   -2.2018   -3.4746   -0.8682 H   0  0  0  0  0  0  0  0  0  0  0  0
   -0.5503   -2.3526   -0.0333 C   0  0  0  0  0  0  0  0  0  0  0  0
    0.5238   -2.9386   -0.0868 O   0  0  0  0  0  0  0  0  0  0  0  0
   -0.6294   -0.9628    0.1383 N   0  0  0  0  0  0  0  0  0  0  0  0
   -1.5502   -0.5436   -0.9461 C   0  0  0  0  0  0  0  0  0  0  0  0
   -2.4982   -0.1874   -0.5292 H   0  0  0  0  0  0  0  0  0  0  0  0
   -1.7783   -1.3187   -1.6894 H   0  0  0  0  0  0  0  0  0  0  0  0
   -0.8338    0.5654   -1.6517 C   0  0  0  0  0  0  0  0  0  0  0  0
   -1.1833    1.5336   -1.2813 H   0  0  0  0  0  0  0  0  0  0  0  0
   -1.0255    0.5395   -2.7288 H   0  0  0  0  0  0  0  0  0  0  0  0
    0.6503    0.3662   -1.3538 C   0  0  0  0  0  0  0  0  0  0  0  0
    1.2190    1.2984   -1.4483 H   0  0  0  0  0  0  0  0  0  0  0  0
    1.0730   -0.3584   -2.0573 H   0  0  0  0  0  0  0  0  0  0  0  0
    0.6781   -0.2330    0.0645 C   0  0  1  0  0  0  0  0  0  0  0  0
    1.5718   -0.8376    0.2462 H   0  0  0  0  0  0  0  0  0  0  0  0
    0.7008    1.0356    0.9670 C   0  0  0  0  0  0  0  0  0  0  0  0
   -0.1061    1.9573    0.8946 O   0  0  0  0  0  0  0  0  0  0  0  0
    1.6544    1.0990    1.9686 N   0  0  0  0  0  0  0  0  0  0  0  0
    2.2474    0.2836    2.0952 H   0  0  0  0  0  0  0  0  0  0  0  0
    1.7188    2.1719    2.9543 C   0  0  0  0  0  0  0  0  0  0  0  0
    0.8247    2.1643    3.5865 H   0  0  0  0  0  0  0  0  0  0  0  0
    2.5975    2.0445    3.5936 H   0  0  0  0  0  0  0  0  0  0  0  0
    1.7931    3.1458    2.4589 H   0  0  0  0  0  0  0  0  0  0  0  0
  1  2  1  0  0  0  0
  2  3  1  0  0  0  0
  2  4  1  0  0  0  0
  2  5  1  0  0  0  0
  5  6  2  0  0  0  0
  5  7  1  0  0  0  0
  7  8  1  0  0  0  0
  7 17  1  0  0  0  0
  8  9  1  0  0  0  0
  8 10  1  0  0  0  0
  8 11  1  0  0  0  0
 11 12  1  0  0  0  0
 11 13  1  0  0  0  0
 11 14  1  0  0  0  0
 14 15  1  0  0  0  0
 14 16  1  0  0  0  0
 14 17  1  0  0  0  0
 17 18  1  0  0  0  0
 17 19  1  0  0  0  0
 19 20  2  0  0  0  0
 19 21  1  0  0  0  0
 21 22  1  0  0  0  0
 21 23  1  0  0  0  0
 23 24  1  0  0  0  0
 23 25  1  0  0  0  0
 23 26  1  0  0  0  0
M  END
$$$$

  -OEChem-11182114133D

 26 26  0     1  0  0  0  0  0999 V2000
   -1.5370   -4.1694    0.6239 H   0  0  0  0  0  0  0  0  0  0  0  0
   -1.7918   -3.2346    0.1174 C   0  0  0  0  0  0  0  0  0  0  0  0
   -2.5543   -2.7192    0.7072 H   0  0  0  0  0  0  0  0  0  0  0  0
   -2.1989   -3.4697   -0.8686 H   0  0  0  0  0  0  0  0  0  0  0  0
   -0.5485   -2.3589   -0.0175 C   0  0  0  0  0  0  0  0  0  0  0  0
    0.5272   -2.9427   -0.0664 O   0  0  0  0  0  0  0  0  0  0  0  0
   -0.6305   -0.9682    0.1411 N   0  0  0  0  0  0  0  0  0  0  0  0
   -1.5492   -0.5467   -0.9419 C   0  0  0  0  0  0  0  0  0  0  0  0
   -2.5015   -0.2000   -0.5265 H   0  0  0  0  0  0  0  0  0  0  0  0
   -1.7671   -1.3202   -1.6897 H   0  0  0  0  0  0  0  0  0  0  0  0
   -0.8352    0.5723   -1.6368 C   0  0  0  0  0  0  0  0  0  0  0  0
   -1.1835    1.5353   -1.2510 H   0  0  0  0  0  0  0  0  0  0  0  0
   -1.0281    0.5596   -2.7140 H   0  0  0  0  0  0  0  0  0  0  0  0
    0.6488    0.3770   -1.3397 C   0  0  0  0  0  0  0  0  0  0  0  0
    1.2138    1.3122   -1.4278 H   0  0  0  0  0  0  0  0  0  0  0  0
    1.0748   -0.3417   -2.0477 H   0  0  0  0  0  0  0  0  0  0  0  0
    0.6735   -0.2331    0.0729 C   0  0  1  0  0  0  0  0  0  0  0  0
    1.5677   -0.8349    0.2610 H   0  0  0  0  0  0  0  0  0  0  0  0
    0.6906    1.0443    0.9600 C   0  0  0  0  0  0  0  0  0  0  0  0
   -0.2569    1.8176    1.0605 O   0  0  0  0  0  0  0  0  0  0  0  0
    1.8039    1.2824    1.7473 N   0  0  0  0  0  0  0  0  0  0  0  0
    2.5378    0.5801    1.7386 H   0  0  0  0  0  0  0  0  0  0  0  0
    1.8944    2.3791    2.7042 C   0  0  0  0  0  0  0  0  0  0  0  0
    1.1575    2.2513    3.5040 H   0  0  0  0  0  0  0  0  0  0  0  0
    2.8922    2.4077    3.1525 H   0  0  0  0  0  0  0  0  0  0  0  0
    1.7135    3.3386    2.2082 H   0  0  0  0  0  0  0  0  0  0  0  0
  1  2  1  0  0  0  0
  2  3  1  0  0  0  0
  2  4  1  0  0  0  0
  2  5  1  0  0  0  0
  5  6  2  0  0  0  0
  5  7  1  0  0  0  0
  7  8  1  0  0  0  0
  7 17  1  0  0  0  0
  8  9  1  0  0  0  0
  8 10  1  0  0  0  0
  8 11  1  0  0  0  0
 11 12  1  0  0  0  0
 11 13  1  0  0  0  0
 11 14  1  0  0  0  0
 14 15  1  0  0  0  0
 14 16  1  0  0  0  0
 14 17  1  0  0  0  0
 17 18  1  0  0  0  0
 17 19  1  0  0  0  0
 19 20  2  0  0  0  0
 19 21  1  0  0  0  0
 21 22  1  0  0  0  0
 21 23  1  0  0  0  0
 23 24  1  0  0  0  0
 23 25  1  0  0  0  0
 23 26  1  0  0  0  0
M  END
$$$$

  -OEChem-11182114133D

 26 26  0     1  0  0  0  0  0999 V2000
   -1.5266   -4.1840    0.6155 H   0  0  0  0  0  0  0  0  0  0  0  0
   -1.7829   -3.2455    0.1162 C   0  0  0  0  0  0  0  0  0  0  0  0
   -2.5448   -2.7350    0.7110 H   0  0  0  0  0  0  0  0  0  0  0  0
   -2.1922   -3.4725   -0.8709 H   0  0  0  0  0  0  0  0  0  0  0  0
   -0.5409   -2.3676   -0.0138 C   0  0  0  0  0  0  0  0  0  0  0  0
    0.5368   -2.9474   -0.0688 O   0  0  0  0  0  0  0  0  0  0  0  0
   -0.6276   -0.9775    0.1401 N   0  0  0  0  0  0  0  0  0  0  0  0
   -1.5490   -0.5489   -0.9352 C   0  0  0  0  0  0  0  0  0  0  0  0
   -2.5043   -0.2147   -0.5165 H   0  0  0  0  0  0  0  0  0  0  0  0
   -1.7580   -1.3165   -1.6914 H   0  0  0  0  0  0  0  0  0  0  0  0
   -0.8411    0.5842   -1.6141 C   0  0  0  0  0  0  0  0  0  0  0  0
   -1.1893    1.5375   -1.2032 H   0  0  0  0  0  0  0  0  0  0  0  0
   -1.0393    0.5922   -2.6904 H   0  0  0  0  0  0  0  0  0  0  0  0
    0.6444    0.3936   -1.3237 C   0  0  0  0  0  0  0  0  0  0  0  0
    1.2051    1.3322   -1.4043 H   0  0  0  0  0  0  0  0  0  0  0  0
    1.0712   -0.3148   -2.0414 H   0  0  0  0  0  0  0  0  0  0  0  0
    0.6721   -0.2356    0.0803 C   0  0  1  0  0  0  0  0  0  0  0  0
    1.5695   -0.8321    0.2707 H   0  0  0  0  0  0  0  0  0  0  0  0
    0.6767    1.0445    0.9618 C   0  0  0  0  0  0  0  0  0  0  0  0
   -0.3396    1.6768    1.2321 O   0  0  0  0  0  0  0  0  0  0  0  0
    1.8742    1.4700    1.5116 N   0  0  0  0  0  0  0  0  0  0  0  0
    2.6913    0.8863    1.3586 H   0  0  0  0  0  0  0  0  0  0  0  0
    1.9826    2.6039    2.4220 C   0  0  0  0  0  0  0  0  0  0  0  0
    1.4419    2.4005    3.3521 H   0  0  0  0  0  0  0  0  0  0  0  0
    3.0324    2.7942    2.6646 H   0  0  0  0  0  0  0  0  0  0  0  0
    1.5668    3.5071    1.9628 H   0  0  0  0  0  0  0  0  0  0  0  0
  1  2  1  0  0  0  0
  2  3  1  0  0  0  0
  2  4  1  0  0  0  0
  2  5  1  0  0  0  0
  5  6  2  0  0  0  0
  5  7  1  0  0  0  0
  7  8  1  0  0  0  0
  7 17  1  0  0  0  0
  8  9  1  0  0  0  0
  8 10  1  0  0  0  0
  8 11  1  0  0  0  0
 11 12  1  0  0  0  0
 11 13  1  0  0  0  0
 11 14  1  0  0  0  0
 14 15  1  0  0  0  0
 14 16  1  0  0  0  0
 14 17  1  0  0  0  0
 17 18  1  0  0  0  0
 17 19  1  0  0  0  0
 19 20  2  0  0  0  0
 19 21  1  0  0  0  0
 21 22  1  0  0  0  0
 21 23  1  0  0  0  0
 23 24  1  0  0  0  0
 23 25  1  0  0  0  0
 23 26  1  0  0  0  0
M  END
$$$$

  -OEChem-11182114133D

 26 26  0     1  0  0  0  0  0999 V2000
   -1.5086   -4.1914    0.6186 H   0  0  0  0  0  0  0  0  0  0  0  0
   -1.7672   -3.2572    0.1127 C   0  0  0  0  0  0  0  0  0  0  0  0
   -2.5353   -2.7478    0.7003 H   0  0  0  0  0  0  0  0  0  0  0  0
   -2.1689   -3.4917   -0.8756 H   0  0  0  0  0  0  0  0  0  0  0  0
   -0.5289   -2.3741   -0.0146 C   0  0  0  0  0  0  0  0  0  0  0  0
    0.5510   -2.9486   -0.0798 O   0  0  0  0  0  0  0  0  0  0  0  0
   -0.6207   -0.9846    0.1394 N   0  0  0  0  0  0  0  0  0  0  0  0
   -1.5526   -0.5498   -0.9212 C   0  0  0  0  0  0  0  0  0  0  0  0
   -2.5059   -0.2246   -0.4909 H   0  0  0  0  0  0  0  0  0  0  0  0
   -1.7633   -1.3117   -1.6826 H   0  0  0  0  0  0  0  0  0  0  0  0
   -0.8522    0.5930   -1.5905 C   0  0  0  0  0  0  0  0  0  0  0  0
   -1.1981    1.5381   -1.1581 H   0  0  0  0  0  0  0  0  0  0  0  0
   -1.0602    0.6175   -2.6646 H   0  0  0  0  0  0  0  0  0  0  0  0
    0.6362    0.4074   -1.3135 C   0  0  0  0  0  0  0  0  0  0  0  0
    1.1914    1.3489   -1.3957 H   0  0  0  0  0  0  0  0  0  0  0  0
    1.0603   -0.2940   -2.0397 H   0  0  0  0  0  0  0  0  0  0  0  0
    0.6759   -0.2370    0.0843 C   0  0  1  0  0  0  0  0  0  0  0  0
    1.5781   -0.8273    0.2718 H   0  0  0  0  0  0  0  0  0  0  0  0
    0.6687    1.0425    0.9662 C   0  0  0  0  0  0  0  0  0  0  0  0
   -0.3631    1.5339    1.4124 O   0  0  0  0  0  0  0  0  0  0  0  0
    1.8707    1.6611    1.2682 N   0  0  0  0  0  0  0  0  0  0  0  0
    2.7225    1.2094    0.9487 H   0  0  0  0  0  0  0  0  0  0  0  0
    1.9763    2.8310    2.1321 C   0  0  0  0  0  0  0  0  0  0  0  0
    1.6195    2.5955    3.1403 H   0  0  0  0  0  0  0  0  0  0  0  0
    3.0182    3.1577    2.2008 H   0  0  0  0  0  0  0  0  0  0  0  0
    1.3815    3.6587    1.7317 H   0  0  0  0  0  0  0  0  0  0  0  0
  1  2  1  0  0  0  0
  2  3  1  0  0  0  0
  2  4  1  0  0  0  0
  2  5  1  0  0  0  0
  5  6  2  0  0  0  0
  5  7  1  0  0  0  0
  7  8  1  0  0  0  0
  7 17  1  0  0  0  0
  8  9  1  0  0  0  0
  8 10  1  0  0  0  0
  8 11  1  0  0  0  0
 11 12  1  0  0  0  0
 11 13  1  0  0  0  0
 11 14  1  0  0  0  0
 14 15  1  0  0  0  0
 14 16  1  0  0  0  0
 14 17  1  0  0  0  0
 17 18  1  0  0  0  0
 17 19  1  0  0  0  0
 19 20  2  0  0  0  0
 19 21  1  0  0  0  0
 21 22  1  0  0  0  0
 21 23  1  0  0  0  0
 23 24  1  0  0  0  0
 23 25  1  0  0  0  0
 23 26  1  0  0  0  0
M  END
$$$$

  -OEChem-11182114133D

 26 26  0     1  0  0  0  0  0999 V2000
   -1.5551   -4.1616    0.7117 H   0  0  0  0  0  0  0  0  0  0  0  0
   -1.7507   -3.2423    0.1525 C   0  0  0  0  0  0  0  0  0  0  0  0
   -2.5791   -2.7163    0.6337 H   0  0  0  0  0  0  0  0  0  0  0  0
   -2.0364   -3.5070   -0.8679 H   0  0  0  0  0  0  0  0  0  0  0  0
   -0.5044   -2.3620    0.1423 C   0  0  0  0  0  0  0  0  0  0  0  0
    0.5659   -2.9203    0.3471 O   0  0  0  0  0  0  0  0  0  0  0  0
   -0.5941   -0.9679    0.0677 N   0  0  0  0  0  0  0  0  0  0  0  0
   -1.5467   -0.5732   -0.9772 C   0  0  0  0  0  0  0  0  0  0  0  0
   -2.5185   -0.3043   -0.5497 H   0  0  0  0  0  0  0  0  0  0  0  0
   -1.6978   -1.3556   -1.7298 H   0  0  0  0  0  0  0  0  0  0  0  0
   -0.9023    0.6102   -1.6425 C   0  0  0  0  0  0  0  0  0  0  0  0
   -1.2654    1.5327   -1.1766 H   0  0  0  0  0  0  0  0  0  0  0  0
   -1.1336    0.6508   -2.7114 H   0  0  0  0  0  0  0  0  0  0  0  0
    0.5927    0.4617   -1.3905 C   0  0  0  0  0  0  0  0  0  0  0  0
    1.1169    1.4198   -1.4703 H   0  0  0  0  0  0  0  0  0  0  0  0
    1.0227   -0.2168   -2.1347 H   0  0  0  0  0  0  0  0  0  0  0  0
    0.6813   -0.1977   -0.0020 C   0  0  1  0  0  0  0  0  0  0  0  0
    1.5966   -0.7839    0.1236 H   0  0  0  0  0  0  0  0  0  0  0  0
    0.6896    1.0201    0.9622 C   0  0  0  0  0  0  0  0  0  0  0  0
   -0.2869    1.3222    1.6395 O   0  0  0  0  0  0  0  0  0  0  0  0
    1.8030    1.8432    1.0250 N   0  0  0  0  0  0  0  0  0  0  0  0
    2.6265    1.5557    0.5050 H   0  0  0  0  0  0  0  0  0  0  0  0
    1.8985    2.9964    1.9123 C   0  0  0  0  0  0  0  0  0  0  0  0
    1.8095    2.6837    2.9580 H   0  0  0  0  0  0  0  0  0  0  0  0
    2.8634    3.4954    1.7811 H   0  0  0  0  0  0  0  0  0  0  0  0
    1.1046    3.7175    1.6911 H   0  0  0  0  0  0  0  0  0  0  0  0
  1  2  1  0  0  0  0
  2  3  1  0  0  0  0
  2  4  1  0  0  0  0
  2  5  1  0  0  0  0
  5  6  2  0  0  0  0
  5  7  1  0  0  0  0
  7  8  1  0  0  0  0
  7 17  1  0  0  0  0
  8  9  1  0  0  0  0
  8 10  1  0  0  0  0
  8 11  1  0  0  0  0
 11 12  1  0  0  0  0
 11 13  1  0  0  0  0
 11 14  1  0  0  0  0
 14 15  1  0  0  0  0
 14 16  1  0  0  0  0
 14 17  1  0  0  0  0
 17 18  1  0  0  0  0
 17 19  1  0  0  0  0
 19 20  2  0  0  0  0
 19 21  1  0  0  0  0
 21 22  1  0  0  0  0
 21 23  1  0  0  0  0
 23 24  1  0  0  0  0
 23 25  1  0  0  0  0
 23 26  1  0  0  0  0
M  END
$$$$

  -OEChem-11182114133D

 26 26  0     1  0  0  0  0  0999 V2000
   -1.5330   -4.1421    0.7520 H   0  0  0  0  0  0  0  0  0  0  0  0
   -1.7448   -3.2278    0.1906 C   0  0  0  0  0  0  0  0  0  0  0  0
   -2.5532   -2.6931    0.6959 H   0  0  0  0  0  0  0  0  0  0  0  0
   -2.0682   -3.5016   -0.8161 H   0  0  0  0  0  0  0  0  0  0  0  0
   -0.4959   -2.3535    0.1280 C   0  0  0  0  0  0  0  0  0  0  0  0
    0.5796   -2.9182    0.2806 O   0  0  0  0  0  0  0  0  0  0  0  0
   -0.5849   -0.9589    0.0564 N   0  0  0  0  0  0  0  0  0  0  0  0
   -1.5488   -0.5742   -0.9808 C   0  0  0  0  0  0  0  0  0  0  0  0
   -2.5133   -0.2938   -0.5442 H   0  0  0  0  0  0  0  0  0  0  0  0
   -1.7152   -1.3648   -1.7217 H   0  0  0  0  0  0  0  0  0  0  0  0
   -0.9045    0.5940   -1.6689 C   0  0  0  0  0  0  0  0  0  0  0  0
   -1.2588    1.5248   -1.2126 H   0  0  0  0  0  0  0  0  0  0  0  0
   -1.1452    0.6207   -2.7362 H   0  0  0  0  0  0  0  0  0  0  0  0
    0.5919    0.4443   -1.4280 C   0  0  0  0  0  0  0  0  0  0  0  0
    1.1201    1.3949   -1.5450 H   0  0  0  0  0  0  0  0  0  0  0  0
    1.0084   -0.2540   -2.1617 H   0  0  0  0  0  0  0  0  0  0  0  0
    0.6947   -0.1947   -0.0279 C   0  0  1  0  0  0  0  0  0  0  0  0
    1.6105   -0.7804    0.0965 H   0  0  0  0  0  0  0  0  0  0  0  0
    0.7034    1.0198    0.9464 C   0  0  0  0  0  0  0  0  0  0  0  0
   -0.1438    1.1421    1.8238 O   0  0  0  0  0  0  0  0  0  0  0  0
    1.6442    2.0320    0.8237 N   0  0  0  0  0  0  0  0  0  0  0  0
    2.3833    1.9025    0.1399 H   0  0  0  0  0  0  0  0  0  0  0  0
    1.7030    3.1881    1.7108 C   0  0  0  0  0  0  0  0  0  0  0  0
    1.8688    2.8694    2.7453 H   0  0  0  0  0  0  0  0  0  0  0  0
    2.5234    3.8495    1.4167 H   0  0  0  0  0  0  0  0  0  0  0  0
    0.7680    3.7562    1.6621 H   0  0  0  0  0  0  0  0  0  0  0  0
  1  2  1  0  0  0  0
  2  3  1  0  0  0  0
  2  4  1  0  0  0  0
  2  5  1  0  0  0  0
  5  6  2  0  0  0  0
  5  7  1  0  0  0  0
  7  8  1  0  0  0  0
  7 17  1  0  0  0  0
  8  9  1  0  0  0  0
  8 10  1  0  0  0  0
  8 11  1  0  0  0  0
 11 12  1  0  0  0  0
 11 13  1  0  0  0  0
 11 14  1  0  0  0  0
 14 15  1  0  0  0  0
 14 16  1  0  0  0  0
 14 17  1  0  0  0  0
 17 18  1  0  0  0  0
 17 19  1  0  0  0  0
 19 20  2  0  0  0  0
 19 21  1  0  0  0  0
 21 22  1  0  0  0  0
 21 23  1  0  0  0  0
 23 24  1  0  0  0  0
 23 25  1  0  0  0  0
 23 26  1  0  0  0  0
M  END
$$$$

  -OEChem-11182114133D

 26 26  0     1  0  0  0  0  0999 V2000
   -1.5151   -4.1069    0.8144 H   0  0  0  0  0  0  0  0  0  0  0  0
   -1.7407   -3.2046    0.2391 C   0  0  0  0  0  0  0  0  0  0  0  0
   -2.5306   -2.6546    0.7568 H   0  0  0  0  0  0  0  0  0  0  0  0
   -2.0965   -3.4993   -0.7507 H   0  0  0  0  0  0  0  0  0  0  0  0
   -0.4904   -2.3386    0.1171 C   0  0  0  0  0  0  0  0  0  0  0  0
    0.5875   -2.9113    0.2124 O   0  0  0  0  0  0  0  0  0  0  0  0
   -0.5783   -0.9436    0.0437 N   0  0  0  0  0  0  0  0  0  0  0  0
   -1.5480   -0.5760   -0.9952 C   0  0  0  0  0  0  0  0  0  0  0  0
   -2.5064   -0.2776   -0.5570 H   0  0  0  0  0  0  0  0  0  0  0  0
   -1.7285   -1.3815   -1.7169 H   0  0  0  0  0  0  0  0  0  0  0  0
   -0.9007    0.5704   -1.7152 C   0  0  0  0  0  0  0  0  0  0  0  0
   -1.2475    1.5147   -1.2819 H   0  0  0  0  0  0  0  0  0  0  0  0
   -1.1470    0.5706   -2.7816 H   0  0  0  0  0  0  0  0  0  0  0  0
    0.5961    0.4192   -1.4799 C   0  0  0  0  0  0  0  0  0  0  0  0
    1.1350    1.3567   -1.6357 H   0  0  0  0  0  0  0  0  0  0  0  0
    0.9991   -0.3052   -2.1956 H   0  0  0  0  0  0  0  0  0  0  0  0
    0.7045   -0.1865   -0.0643 C   0  0  1  0  0  0  0  0  0  0  0  0
    1.6204   -0.7707    0.0669 H   0  0  0  0  0  0  0  0  0  0  0  0
    0.7068    1.0245    0.9191 C   0  0  0  0  0  0  0  0  0  0  0  0
    0.0673    0.9794    1.9636 O   0  0  0  0  0  0  0  0  0  0  0  0
    1.4035    2.1971    0.6621 N   0  0  0  0  0  0  0  0  0  0  0  0
    1.9879    2.2209   -0.1672 H   0  0  0  0  0  0  0  0  0  0  0  0
    1.4384    3.3331    1.5765 C   0  0  0  0  0  0  0  0  0  0  0  0
    1.8603    3.0359    2.5423 H   0  0  0  0  0  0  0  0  0  0  0  0
    2.0572    4.1341    1.1610 H   0  0  0  0  0  0  0  0  0  0  0  0
    0.4289    3.7256    1.7381 H   0  0  0  0  0  0  0  0  0  0  0  0
  1  2  1  0  0  0  0
  2  3  1  0  0  0  0
  2  4  1  0  0  0  0
  2  5  1  0  0  0  0
  5  6  2  0  0  0  0
  5  7  1  0  0  0  0
  7  8  1  0  0  0  0
  7 17  1  0  0  0  0
  8  9  1  0  0  0  0
  8 10  1  0  0  0  0
  8 11  1  0  0  0  0
 11 12  1  0  0  0  0
 11 13  1  0  0  0  0
 11 14  1  0  0  0  0
 14 15  1  0  0  0  0
 14 16  1  0  0  0  0
 14 17  1  0  0  0  0
 17 18  1  0  0  0  0
 17 19  1  0  0  0  0
 19 20  2  0  0  0  0
 19 21  1  0  0  0  0
 21 22  1  0  0  0  0
 21 23  1  0  0  0  0
 23 24  1  0  0  0  0
 23 25  1  0  0  0  0
 23 26  1  0  0  0  0
M  END
$$$$

  -OEChem-11182114133D

 26 26  0     1  0  0  0  0  0999 V2000
   -1.5064   -4.0753    0.8693 H   0  0  0  0  0  0  0  0  0  0  0  0
   -1.7429   -3.1808    0.2866 C   0  0  0  0  0  0  0  0  0  0  0  0
   -2.5152   -2.6183    0.8171 H   0  0  0  0  0  0  0  0  0  0  0  0
   -2.1269   -3.4880   -0.6887 H   0  0  0  0  0  0  0  0  0  0  0  0
   -0.4919   -2.3243    0.1178 C   0  0  0  0  0  0  0  0  0  0  0  0
    0.5847   -2.9040    0.1753 O   0  0  0  0  0  0  0  0  0  0  0  0
   -0.5773   -0.9295    0.0340 N   0  0  0  0  0  0  0  0  0  0  0  0
   -1.5400   -0.5815   -1.0197 C   0  0  0  0  0  0  0  0  0  0  0  0
   -2.4988   -0.2668   -0.5940 H   0  0  0  0  0  0  0  0  0  0  0  0
   -1.7237   -1.4030   -1.7226 H   0  0  0  0  0  0  0  0  0  0  0  0
   -0.8832    0.5436   -1.7658 C   0  0  0  0  0  0  0  0  0  0  0  0
   -1.2278    1.5005   -1.3598 H   0  0  0  0  0  0  0  0  0  0  0  0
   -1.1247    0.5165   -2.8331 H   0  0  0  0  0  0  0  0  0  0  0  0
    0.6124    0.3907   -1.5211 C   0  0  0  0  0  0  0  0  0  0  0  0
    1.1673    1.3142   -1.6999 H   0  0  0  0  0  0  0  0  0  0  0  0
    1.0109   -0.3572   -2.2150 H   0  0  0  0  0  0  0  0  0  0  0  0
    0.7079   -0.1801   -0.0917 C   0  0  1  0  0  0  0  0  0  0  0  0
    1.6218   -0.7633    0.0572 H   0  0  0  0  0  0  0  0  0  0  0  0
    0.6959    1.0308    0.8922 C   0  0  0  0  0  0  0  0  0  0  0  0
    0.3077    0.8685    2.0428 O   0  0  0  0  0  0  0  0  0  0  0  0
    1.1072    2.3124    0.5509 N   0  0  0  0  0  0  0  0  0  0  0  0
    1.4807    2.4532   -0.3813 H   0  0  0  0  0  0  0  0  0  0  0  0
    1.1176    3.4330    1.4847 C   0  0  0  0  0  0  0  0  0  0  0  0
    1.7748    3.2185    2.3340 H   0  0  0  0  0  0  0  0  0  0  0  0
    1.4804    4.3372    0.9867 H   0  0  0  0  0  0  0  0  0  0  0  0
    0.1077    3.6275    1.8607 H   0  0  0  0  0  0  0  0  0  0  0  0
  1  2  1  0  0  0  0
  2  3  1  0  0  0  0
  2  4  1  0  0  0  0
  2  5  1  0  0  0  0
  5  6  2  0  0  0  0
  5  7  1  0  0  0  0
  7  8  1  0  0  0  0
  7 17  1  0  0  0  0
  8  9  1  0  0  0  0
  8 10  1  0  0  0  0
  8 11  1  0  0  0  0
 11 12  1  0  0  0  0
 11 13  1  0  0  0  0
 11 14  1  0  0  0  0
 14 15  1  0  0  0  0
 14 16  1  0  0  0  0
 14 17  1  0  0  0  0
 17 18  1  0  0  0  0
 17 19  1  0  0  0  0
 19 20  2  0  0  0  0
 19 21  1  0  0  0  0
 21 22  1  0  0  0  0
 21 23  1  0  0  0  0
 23 24  1  0  0  0  0
 23 25  1  0  0  0  0
 23 26  1  0  0  0  0
M  END
$$$$

  -OEChem-11182114133D

 26 26  0     1  0  0  0  0  0999 V2000
   -1.5092   -4.0517    0.9091 H   0  0  0  0  0  0  0  0  0  0  0  0
   -1.7473   -3.1684    0.3099 C   0  0  0  0  0  0  0  0  0  0  0  0
   -2.5157   -2.5937    0.8330 H   0  0  0  0  0  0  0  0  0  0  0  0
   -2.1372   -3.4938   -0.6570 H   0  0  0  0  0  0  0  0  0  0  0  0
   -0.4952   -2.3192    0.1168 C   0  0  0  0  0  0  0  0  0  0  0  0
    0.5792   -2.9044    0.1483 O   0  0  0  0  0  0  0  0  0  0  0  0
   -0.5789   -0.9244    0.0289 N   0  0  0  0  0  0  0  0  0  0  0  0
   -1.5298   -0.5886   -1.0412 C   0  0  0  0  0  0  0  0  0  0  0  0
   -2.4941   -0.2705   -0.6306 H   0  0  0  0  0  0  0  0  0  0  0  0
   -1.7055   -1.4187   -1.7364 H   0  0  0  0  0  0  0  0  0  0  0  0
   -0.8671    0.5295   -1.7962 C   0  0  0  0  0  0  0  0  0  0  0  0
   -1.2171    1.4907   -1.4059 H   0  0  0  0  0  0  0  0  0  0  0  0
   -1.0997    0.4886   -2.8650 H   0  0  0  0  0  0  0  0  0  0  0  0
    0.6272    0.3771   -1.5379 C   0  0  0  0  0  0  0  0  0  0  0  0
    1.1937    1.2953   -1.7134 H   0  0  0  0  0  0  0  0  0  0  0  0
    1.0301   -0.3792   -2.2203 H   0  0  0  0  0  0  0  0  0  0  0  0
    0.7056   -0.1773   -0.1035 C   0  0  1  0  0  0  0  0  0  0  0  0
    1.6180   -0.7600    0.0585 H   0  0  0  0  0  0  0  0  0  0  0  0
    0.6845    1.0315    0.8806 C   0  0  0  0  0  0  0  0  0  0  0  0
    0.5761    0.8139    2.0807 O   0  0  0  0  0  0  0  0  0  0  0  0
    0.7942    2.3612    0.4951 N   0  0  0  0  0  0  0  0  0  0  0  0
    0.8712    2.5583   -0.4966 H   0  0  0  0  0  0  0  0  0  0  0  0
    0.7757    3.4784    1.4328 C   0  0  0  0  0  0  0  0  0  0  0  0
    1.5985    3.3906    2.1502 H   0  0  0  0  0  0  0  0  0  0  0  0
    0.8866    4.4251    0.8954 H   0  0  0  0  0  0  0  0  0  0  0  0
   -0.1708    3.5012    1.9832 H   0  0  0  0  0  0  0  0  0  0  0  0
  1  2  1  0  0  0  0
  2  3  1  0  0  0  0
  2  4  1  0  0  0  0
  2  5  1  0  0  0  0
  5  6  2  0  0  0  0
  5  7  1  0  0  0  0
  7  8  1  0  0  0  0
  7 17  1  0  0  0  0
  8  9  1  0  0  0  0
  8 10  1  0  0  0  0
  8 11  1  0  0  0  0
 11 12  1  0  0  0  0
 11 13  1  0  0  0  0
 11 14  1  0  0  0  0
 14 15  1  0  0  0  0
 14 16  1  0  0  0  0
 14 17  1  0  0  0  0
 17 18  1  0  0  0  0
 17 19  1  0  0  0  0
 19 20  2  0  0  0  0
 19 21  1  0  0  0  0
 21 22  1  0  0  0  0
 21 23  1  0  0  0  0
 23 24  1  0  0  0  0
 23 25  1  0  0  0  0
 23 26  1  0  0  0  0
M  END
$$$$

  -OEChem-11182114133D

 26 26  0     1  0  0  0  0  0999 V2000
   -1.5195   -4.0406    0.9324 H   0  0  0  0  0  0  0  0  0  0  0  0
   -1.7488   -3.1777    0.3009 C   0  0  0  0  0  0  0  0  0  0  0  0
   -2.5383   -2.5970    0.7846 H   0  0  0  0  0  0  0  0  0  0  0  0
   -2.1069   -3.5350   -0.6673 H   0  0  0  0  0  0  0  0  0  0  0  0
   -0.4996   -2.3218    0.1189 C   0  0  0  0  0  0  0  0  0  0  0  0
    0.5765   -2.9019    0.1647 O   0  0  0  0  0  0  0  0  0  0  0  0
   -0.5903   -0.9272    0.0285 N   0  0  0  0  0  0  0  0  0  0  0  0
   -1.5282   -0.6039   -1.0579 C   0  0  0  0  0  0  0  0  0  0  0  0
   -2.5010   -0.2928   -0.6624 H   0  0  0  0  0  0  0  0  0  0  0  0
   -1.6870   -1.4387   -1.7517 H   0  0  0  0  0  0  0  0  0  0  0  0
   -0.8667    0.5174   -1.8105 C   0  0  0  0  0  0  0  0  0  0  0  0
   -1.2367    1.4770   -1.4367 H   0  0  0  0  0  0  0  0  0  0  0  0
   -1.0822    0.4642   -2.8824 H   0  0  0  0  0  0  0  0  0  0  0  0
    0.6264    0.3755   -1.5310 C   0  0  0  0  0  0  0  0  0  0  0  0
    1.1867    1.3022   -1.6879 H   0  0  0  0  0  0  0  0  0  0  0  0
    1.0488   -0.3746   -2.2084 H   0  0  0  0  0  0  0  0  0  0  0  0
    0.6904   -0.1727   -0.0949 C   0  0  1  0  0  0  0  0  0  0  0  0
    1.6030   -0.7534    0.0748 H   0  0  0  0  0  0  0  0  0  0  0  0
    0.6679    1.0391    0.8820 C   0  0  0  0  0  0  0  0  0  0  0  0
    0.8256    0.8294    2.0772 O   0  0  0  0  0  0  0  0  0  0  0  0
    0.4802    2.3589    0.4933 N   0  0  0  0  0  0  0  0  0  0  0  0
    0.3218    2.5379   -0.4922 H   0  0  0  0  0  0  0  0  0  0  0  0
    0.4422    3.4784    1.4274 C   0  0  0  0  0  0  0  0  0  0  0  0
    1.3865    3.5510    1.9772 H   0  0  0  0  0  0  0  0  0  0  0  0
    0.2845    4.4168    0.8874 H   0  0  0  0  0  0  0  0  0  0  0  0
   -0.3748    3.3506    2.1454 H   0  0  0  0  0  0  0  0  0  0  0  0
  1  2  1  0  0  0  0
  2  3  1  0  0  0  0
  2  4  1  0  0  0  0
  2  5  1  0  0  0  0
  5  6  2  0  0  0  0
  5  7  1  0  0  0  0
  7  8  1  0  0  0  0
  7 17  1  0  0  0  0
  8  9  1  0  0  0  0
  8 10  1  0  0  0  0
  8 11  1  0  0  0  0
 11 12  1  0  0  0  0
 11 13  1  0  0  0  0
 11 14  1  0  0  0  0
 14 15  1  0  0  0  0
 14 16  1  0  0  0  0
 14 17  1  0  0  0  0
 17 18  1  0  0  0  0
 17 19  1  0  0  0  0
 19 20  2  0  0  0  0
 19 21  1  0  0  0  0
 21 22  1  0  0  0  0
 21 23  1  0  0  0  0
 23 24  1  0  0  0  0
 23 25  1  0  0  0  0
 23 26  1  0  0  0  0
M  END
$$$$

  -OEChem-11182114133D

 26 26  0     1  0  0  0  0  0999 V2000
   -1.5207   -4.0736    0.8931 H   0  0  0  0  0  0  0  0  0  0  0  0
   -1.7503   -3.2020    0.2739 C   0  0  0  0  0  0  0  0  0  0  0  0
   -2.5486   -2.6354    0.7597 H   0  0  0  0  0  0  0  0  0  0  0  0
   -2.0964   -3.5461   -0.7034 H   0  0  0  0  0  0  0  0  0  0  0  0
   -0.5065   -2.3328    0.1184 C   0  0  0  0  0  0  0  0  0  0  0  0
    0.5742   -2.9006    0.1931 O   0  0  0  0  0  0  0  0  0  0  0  0
   -0.6117   -0.9388    0.0290 N   0  0  0  0  0  0  0  0  0  0  0  0
   -1.5303   -0.6309   -1.0801 C   0  0  0  0  0  0  0  0  0  0  0  0
   -2.5173   -0.3373   -0.7072 H   0  0  0  0  0  0  0  0  0  0  0  0
   -1.6590   -1.4679   -1.7777 H   0  0  0  0  0  0  0  0  0  0  0  0
   -0.8737    0.5010   -1.8206 C   0  0  0  0  0  0  0  0  0  0  0  0
   -1.2750    1.4542   -1.4670 H   0  0  0  0  0  0  0  0  0  0  0  0
   -1.0606    0.4370   -2.8974 H   0  0  0  0  0  0  0  0  0  0  0  0
    0.6152    0.3791   -1.5059 C   0  0  0  0  0  0  0  0  0  0  0  0
    1.1576    1.3213   -1.6370 H   0  0  0  0  0  0  0  0  0  0  0  0
    1.0684   -0.3578   -2.1777 H   0  0  0  0  0  0  0  0  0  0  0  0
    0.6621   -0.1676   -0.0694 C   0  0  1  0  0  0  0  0  0  0  0  0
    1.5762   -0.7437    0.1086 H   0  0  0  0  0  0  0  0  0  0  0  0
    0.6406    1.0501    0.8975 C   0  0  0  0  0  0  0  0  0  0  0  0
    1.0619    0.8989    2.0361 O   0  0  0  0  0  0  0  0  0  0  0  0
    0.1731    2.3119    0.5577 N   0  0  0  0  0  0  0  0  0  0  0  0
   -0.1863    2.4387   -0.3817 H   0  0  0  0  0  0  0  0  0  0  0  0
    0.1387    3.4371    1.4846 C   0  0  0  0  0  0  0  0  0  0  0  0
    1.1488    3.6778    1.8324 H   0  0  0  0  0  0  0  0  0  0  0  0
   -0.2770    4.3209    0.9915 H   0  0  0  0  0  0  0  0  0  0  0  0
   -0.4856    3.1991    2.3524 H   0  0  0  0  0  0  0  0  0  0  0  0
  1  2  1  0  0  0  0
  2  3  1  0  0  0  0
  2  4  1  0  0  0  0
  2  5  1  0  0  0  0
  5  6  2  0  0  0  0
  5  7  1  0  0  0  0
  7  8  1  0  0  0  0
  7 17  1  0  0  0  0
  8  9  1  0  0  0  0
  8 10  1  0  0  0  0
  8 11  1  0  0  0  0
 11 12  1  0  0  0  0
 11 13  1  0  0  0  0
 11 14  1  0  0  0  0
 14 15  1  0  0  0  0
 14 16  1  0  0  0  0
 14 17  1  0  0  0  0
 17 18  1  0  0  0  0
 17 19  1  0  0  0  0
 19 20  2  0  0  0  0
 19 21  1  0  0  0  0
 21 22  1  0  0  0  0
 21 23  1  0  0  0  0
 23 24  1  0  0  0  0
 23 25  1  0  0  0  0
 23 26  1  0  0  0  0
M  END
$$$$

  -OEChem-11182114133D

 26 26  0     1  0  0  0  0  0999 V2000
   -1.5266   -4.1078    0.8461 H   0  0  0  0  0  0  0  0  0  0  0  0
   -1.7537   -3.2278    0.2380 C   0  0  0  0  0  0  0  0  0  0  0  0
   -2.5653   -2.6767    0.7196 H   0  0  0  0  0  0  0  0  0  0  0  0
   -2.0802   -3.5594   -0.7502 H   0  0  0  0  0  0  0  0  0  0  0  0
   -0.5152   -2.3447    0.1184 C   0  0  0  0  0  0  0  0  0  0  0  0
    0.5672   -2.9002    0.2391 O   0  0  0  0  0  0  0  0  0  0  0  0
   -0.6315   -0.9508    0.0312 N   0  0  0  0  0  0  0  0  0  0  0  0
   -1.5285   -0.6526   -1.1006 C   0  0  0  0  0  0  0  0  0  0  0  0
   -2.5278   -0.3733   -0.7502 H   0  0  0  0  0  0  0  0  0  0  0  0
   -1.6300   -1.4903   -1.8017 H   0  0  0  0  0  0  0  0  0  0  0  0
   -0.8728    0.4890   -1.8290 C   0  0  0  0  0  0  0  0  0  0  0  0
   -1.2959    1.4404   -1.5000 H   0  0  0  0  0  0  0  0  0  0  0  0
   -1.0309    0.4135   -2.9097 H   0  0  0  0  0  0  0  0  0  0  0  0
    0.6091    0.3819   -1.4809 C   0  0  0  0  0  0  0  0  0  0  0  0
    1.1348    1.3371   -1.5881 H   0  0  0  0  0  0  0  0  0  0  0  0
    1.0910   -0.3417   -2.1470 H   0  0  0  0  0  0  0  0  0  0  0  0
    0.6361   -0.1658   -0.0455 C   0  0  1  0  0  0  0  0  0  0  0  0
    1.5501   -0.7403    0.1386 H   0  0  0  0  0  0  0  0  0  0  0  0
    0.6172    1.0555    0.9143 C   0  0  0  0  0  0  0  0  0  0  0  0
    1.3090    1.0166    1.9226 O   0  0  0  0  0  0  0  0  0  0  0  0
   -0.1026    2.2177    0.6819 N   0  0  0  0  0  0  0  0  0  0  0  0
   -0.7262    2.2241   -0.1160 H   0  0  0  0  0  0  0  0  0  0  0  0
   -0.1310    3.3459    1.6055 C   0  0  0  0  0  0  0  0  0  0  0  0
    0.8771    3.7487    1.7494 H   0  0  0  0  0  0  0  0  0  0  0  0
   -0.7672    4.1431    1.2096 H   0  0  0  0  0  0  0  0  0  0  0  0
   -0.5292    3.0359    2.5774 H   0  0  0  0  0  0  0  0  0  0  0  0
  1  2  1  0  0  0  0
  2  3  1  0  0  0  0
  2  4  1  0  0  0  0
  2  5  1  0  0  0  0
  5  6  2  0  0  0  0
  5  7  1  0  0  0  0
  7  8  1  0  0  0  0
  7 17  1  0  0  0  0
  8  9  1  0  0  0  0
  8 10  1  0  0  0  0
  8 11  1  0  0  0  0
 11 12  1  0  0  0  0
 11 13  1  0  0  0  0
 11 14  1  0  0  0  0
 14 15  1  0  0  0  0
 14 16  1  0  0  0  0
 14 17  1  0  0  0  0
 17 18  1  0  0  0  0
 17 19  1  0  0  0  0
 19 20  2  0  0  0  0
 19 21  1  0  0  0  0
 21 22  1  0  0  0  0
 21 23  1  0  0  0  0
 23 24  1  0  0  0  0
 23 25  1  0  0  0  0
 23 26  1  0  0  0  0
M  END
$$$$

  -OEChem-11182114133D

 26 26  0     1  0  0  0  0  0999 V2000
   -1.5436   -4.1449    0.7781 H   0  0  0  0  0  0  0  0  0  0  0  0
   -1.7552   -3.2524    0.1822 C   0  0  0  0  0  0  0  0  0  0  0  0
   -2.5883   -2.7185    0.6460 H   0  0  0  0  0  0  0  0  0  0  0  0
   -2.0428   -3.5647   -0.8243 H   0  0  0  0  0  0  0  0  0  0  0  0
   -0.5195   -2.3580    0.1280 C   0  0  0  0  0  0  0  0  0  0  0  0
    0.5570   -2.9046    0.3179 O   0  0  0  0  0  0  0  0  0  0  0  0
   -0.6367   -0.9636    0.0425 N   0  0  0  0  0  0  0  0  0  0  0  0
   -1.5276   -0.6534   -1.0924 C   0  0  0  0  0  0  0  0  0  0  0  0
   -2.5300   -0.3811   -0.7455 H   0  0  0  0  0  0  0  0  0  0  0  0
   -1.6218   -1.4833   -1.8037 H   0  0  0  0  0  0  0  0  0  0  0  0
   -0.8717    0.4995   -1.8065 C   0  0  0  0  0  0  0  0  0  0  0  0
   -1.2898    1.4505   -1.4685 H   0  0  0  0  0  0  0  0  0  0  0  0
   -1.0268    0.4370   -2.8885 H   0  0  0  0  0  0  0  0  0  0  0  0
    0.6079    0.3898   -1.4559 C   0  0  0  0  0  0  0  0  0  0  0  0
    1.1282    1.3502   -1.5451 H   0  0  0  0  0  0  0  0  0  0  0  0
    1.0959   -0.3224   -2.1298 H   0  0  0  0  0  0  0  0  0  0  0  0
    0.6291   -0.1748   -0.0287 C   0  0  1  0  0  0  0  0  0  0  0  0
    1.5435   -0.7495    0.1533 H   0  0  0  0  0  0  0  0  0  0  0  0
    0.6085    1.0445    0.9300 C   0  0  0  0  0  0  0  0  0  0  0  0
    1.5198    1.1794    1.7352 O   0  0  0  0  0  0  0  0  0  0  0  0
   -0.3322    2.0583    0.8454 N   0  0  0  0  0  0  0  0  0  0  0  0
   -1.1442    1.8718    0.2676 H   0  0  0  0  0  0  0  0  0  0  0  0
   -0.3676    3.1958    1.7570 C   0  0  0  0  0  0  0  0  0  0  0  0
    0.5683    3.7614    1.7007 H   0  0  0  0  0  0  0  0  0  0  0  0
   -1.1907    3.8665    1.4929 H   0  0  0  0  0  0  0  0  0  0  0  0
   -0.5127    2.8559    2.7878 H   0  0  0  0  0  0  0  0  0  0  0  0
  1  2  1  0  0  0  0
  2  3  1  0  0  0  0
  2  4  1  0  0  0  0
  2  5  1  0  0  0  0
  5  6  2  0  0  0  0
  5  7  1  0  0  0  0
  7  8  1  0  0  0  0
  7 17  1  0  0  0  0
  8  9  1  0  0  0  0
  8 10  1  0  0  0  0
  8 11  1  0  0  0  0
 11 12  1  0  0  0  0
 11 13  1  0  0  0  0
 11 14  1  0  0  0  0
 14 15  1  0  0  0  0
 14 16  1  0  0  0  0
 14 17  1  0  0  0  0
 17 18  1  0  0  0  0
 17 19  1  0  0  0  0
 19 20  2  0  0  0  0
 19 21  1  0  0  0  0
 21 22  1  0  0  0  0
 21 23  1  0  0  0  0
 23 24  1  0  0  0  0
 23 25  1  0  0  0  0
 23 26  1  0  0  0  0
M  END
$$$$

  -OEChem-11182114133D

 26 26  0     1  0  0  0  0  0999 V2000
   -1.5690   -4.1769    0.7133 H   0  0  0  0  0  0  0  0  0  0  0  0
   -1.7576   -3.2772    0.1206 C   0  0  0  0  0  0  0  0  0  0  0  0
   -2.6135   -2.7536    0.5535 H   0  0  0  0  0  0  0  0  0  0  0  0
   -1.9985   -3.5775   -0.9018 H   0  0  0  0  0  0  0  0  0  0  0  0
   -0.5248   -2.3770    0.1330 C   0  0  0  0  0  0  0  0  0  0  0  0
    0.5408   -2.9186    0.3874 O   0  0  0  0  0  0  0  0  0  0  0  0
   -0.6371   -0.9819    0.0520 N   0  0  0  0  0  0  0  0  0  0  0  0
   -1.5312   -0.6451   -1.0722 C   0  0  0  0  0  0  0  0  0  0  0  0
   -2.5335   -0.3814   -0.7184 H   0  0  0  0  0  0  0  0  0  0  0  0
   -1.6243   -1.4592   -1.8009 H   0  0  0  0  0  0  0  0  0  0  0  0
   -0.8764    0.5239   -1.7632 C   0  0  0  0  0  0  0  0  0  0  0  0
   -1.2829    1.4677   -1.3893 H   0  0  0  0  0  0  0  0  0  0  0  0
   -1.0434    0.4948   -2.8448 H   0  0  0  0  0  0  0  0  0  0  0  0
    0.6047    0.4019   -1.4271 C   0  0  0  0  0  0  0  0  0  0  0  0
    1.1265    1.3631   -1.4963 H   0  0  0  0  0  0  0  0  0  0  0  0
    1.0861   -0.2950   -2.1210 H   0  0  0  0  0  0  0  0  0  0  0  0
    0.6303   -0.1955   -0.0143 C   0  0  1  0  0  0  0  0  0  0  0  0
    1.5452   -0.7726    0.1575 H   0  0  0  0  0  0  0  0  0  0  0  0
    0.6111    1.0190    0.9464 C   0  0  0  0  0  0  0  0  0  0  0  0
    1.6377    1.3363    1.5316 O   0  0  0  0  0  0  0  0  0  0  0  0
   -0.4876    1.8553    1.0523 N   0  0  0  0  0  0  0  0  0  0  0  0
   -1.3526    1.5074    0.6515 H   0  0  0  0  0  0  0  0  0  0  0  0
   -0.5375    3.0039    1.9484 C   0  0  0  0  0  0  0  0  0  0  0  0
    0.2618    3.7129    1.7083 H   0  0  0  0  0  0  0  0  0  0  0  0
   -1.4967    3.5205    1.8473 H   0  0  0  0  0  0  0  0  0  0  0  0
   -0.4231    2.6829    2.9890 H   0  0  0  0  0  0  0  0  0  0  0  0
  1  2  1  0  0  0  0
  2  3  1  0  0  0  0
  2  4  1  0  0  0  0
  2  5  1  0  0  0  0
  5  6  2  0  0  0  0
  5  7  1  0  0  0  0
  7  8  1  0  0  0  0
  7 17  1  0  0  0  0
  8  9  1  0  0  0  0
  8 10  1  0  0  0  0
  8 11  1  0  0  0  0
 11 12  1  0  0  0  0
 11 13  1  0  0  0  0
 11 14  1  0  0  0  0
 14 15  1  0  0  0  0
 14 16  1  0  0  0  0
 14 17  1  0  0  0  0
 17 18  1  0  0  0  0
 17 19  1  0  0  0  0
 19 20  2  0  0  0  0
 19 21  1  0  0  0  0
 21 22  1  0  0  0  0
 21 23  1  0  0  0  0
 23 24  1  0  0  0  0
 23 25  1  0  0  0  0
 23 26  1  0  0  0  0
M  END
$$$$

  -OEChem-11182114133D

 26 26  0     1  0  0  0  0  0999 V2000
   -1.8135   -3.7982    1.1479 H   0  0  0  0  0  0  0  0  0  0  0  0
   -1.9391   -2.9316    0.4924 C   0  0  0  0  0  0  0  0  0  0  0  0
   -2.7069   -2.2837    0.9225 H   0  0  0  0  0  0  0  0  0  0  0  0
   -2.2704   -3.2817   -0.4880 H   0  0  0  0  0  0  0  0  0  0  0  0
   -0.6174   -2.1771    0.3662 C   0  0  0  0  0  0  0  0  0  0  0  0
    0.3939   -2.8126    0.6262 O   0  0  0  0  0  0  0  0  0  0  0  0
   -0.5754   -0.7881    0.1810 N   0  0  0  0  0  0  0  0  0  0  0  0
   -1.5426   -0.4122   -0.8659 C   0  0  0  0  0  0  0  0  0  0  0  0
   -1.8007   -1.2506   -1.5235 H   0  0  0  0  0  0  0  0  0  0  0  0
   -2.4683   -0.0161   -0.4364 H   0  0  0  0  0  0  0  0  0  0  0  0
   -0.8399    0.6259   -1.7009 C   0  0  0  0  0  0  0  0  0  0  0  0
   -1.0759    1.6298   -1.3353 H   0  0  0  0  0  0  0  0  0  0  0  0
   -1.1361    0.5689   -2.7531 H   0  0  0  0  0  0  0  0  0  0  0  0
    0.6420    0.3431   -1.5180 C   0  0  0  0  0  0  0  0  0  0  0  0
    1.2590    1.2254   -1.7235 H   0  0  0  0  0  0  0  0  0  0  0  0
    0.9536   -0.4498   -2.2056 H   0  0  0  0  0  0  0  0  0  0  0  0
    0.7598   -0.1701   -0.0746 C   0  0  1  0  0  0  0  0  0  0  0  0
    1.6059   -0.8568    0.0305 H   0  0  0  0  0  0  0  0  0  0  0  0
    1.0672    1.1165    0.7452 C   0  0  0  0  0  0  0  0  0  0  0  0
    2.2216    1.5107    0.8100 O   0  0  0  0  0  0  0  0  0  0  0  0
    0.1874    2.0693    1.2219 N   0  0  0  0  0  0  0  0  0  0  0  0
    0.6747    2.8560    1.6436 H   0  0  0  0  0  0  0  0  0  0  0  0
   -1.1679    1.8065    1.6840 C   0  0  0  0  0  0  0  0  0  0  0  0
   -1.4643    2.5724    2.4075 H   0  0  0  0  0  0  0  0  0  0  0  0
   -1.8765    1.8362    0.8527 H   0  0  0  0  0  0  0  0  0  0  0  0
   -1.2319    0.8333    2.1814 H   0  0  0  0  0  0  0  0  0  0  0  0
  1  2  1  0  0  0  0
  2  3  1  0  0  0  0
  2  4  1  0  0  0  0
  2  5  1  0  0  0  0
  5  6  2  0  0  0  0
  5  7  1  0  0  0  0
  7  8  1  0  0  0  0
  7 17  1  0  0  0  0
  8  9  1  0  0  0  0
  8 10  1  0  0  0  0
  8 11  1  0  0  0  0
 11 12  1  0  0  0  0
 11 13  1  0  0  0  0
 11 14  1  0  0  0  0
 14 15  1  0  0  0  0
 14 16  1  0  0  0  0
 14 17  1  0  0  0  0
 17 18  1  0  0  0  0
 17 19  1  0  0  0  0
 19 20  2  0  0  0  0
 19 21  1  0  0  0  0
 21 22  1  0  0  0  0
 21 23  1  0  0  0  0
 23 24  1  0  0  0  0
 23 25  1  0  0  0  0
 23 26  1  0  0  0  0
M  END
$$$$

  -OEChem-11182114133D

 26 26  0     1  0  0  0  0  0999 V2000
   -1.5954   -4.2119    0.6234 H   0  0  0  0  0  0  0  0  0  0  0  0
   -1.7598   -3.2994    0.0431 C   0  0  0  0  0  0  0  0  0  0  0  0
   -2.6361   -2.7879    0.4488 H   0  0  0  0  0  0  0  0  0  0  0  0
   -1.9530   -3.5781   -0.9953 H   0  0  0  0  0  0  0  0  0  0  0  0
   -0.5307   -2.3979    0.1294 C   0  0  0  0  0  0  0  0  0  0  0  0
    0.5170   -2.9376    0.4526 O   0  0  0  0  0  0  0  0  0  0  0  0
   -0.6284   -1.0018    0.0523 N   0  0  0  0  0  0  0  0  0  0  0  0
   -1.5494   -0.6155   -1.0292 C   0  0  0  0  0  0  0  0  0  0  0  0
   -2.5381   -0.3522   -0.6388 H   0  0  0  0  0  0  0  0  0  0  0  0
   -1.6703   -1.4029   -1.7823 H   0  0  0  0  0  0  0  0  0  0  0  0
   -0.8956    0.5690   -1.6926 C   0  0  0  0  0  0  0  0  0  0  0  0
   -1.2684    1.4981   -1.2486 H   0  0  0  0  0  0  0  0  0  0  0  0
   -1.1020    0.5976   -2.7672 H   0  0  0  0  0  0  0  0  0  0  0  0
    0.5929    0.4194   -1.4094 C   0  0  0  0  0  0  0  0  0  0  0  0
    1.1240    1.3764   -1.4698 H   0  0  0  0  0  0  0  0  0  0  0  0
    1.0427   -0.2601   -2.1407 H   0  0  0  0  0  0  0  0  0  0  0  0
    0.6485   -0.2294   -0.0187 C   0  0  1  0  0  0  0  0  0  0  0  0
    1.5636   -0.8127    0.1264 H   0  0  0  0  0  0  0  0  0  0  0  0
    0.6404    0.9808    0.9456 C   0  0  0  0  0  0  0  0  0  0  0  0
    1.6696    1.6117    1.1510 O   0  0  0  0  0  0  0  0  0  0  0  0
   -0.5418    1.4276    1.5097 N   0  0  0  0  0  0  0  0  0  0  0  0
   -1.3474    0.8200    1.3916 H   0  0  0  0  0  0  0  0  0  0  0  0
   -0.6178    2.5389    2.4489 C   0  0  0  0  0  0  0  0  0  0  0  0
   -0.2530    3.4601    1.9826 H   0  0  0  0  0  0  0  0  0  0  0  0
   -1.6539    2.6984    2.7620 H   0  0  0  0  0  0  0  0  0  0  0  0
   -0.0145    2.3307    3.3387 H   0  0  0  0  0  0  0  0  0  0  0  0
  1  2  1  0  0  0  0
  2  3  1  0  0  0  0
  2  4  1  0  0  0  0
  2  5  1  0  0  0  0
  5  6  2  0  0  0  0
  5  7  1  0  0  0  0
  7  8  1  0  0  0  0
  7 17  1  0  0  0  0
  8  9  1  0  0  0  0
  8 10  1  0  0  0  0
  8 11  1  0  0  0  0
 11 12  1  0  0  0  0
 11 13  1  0  0  0  0
 11 14  1  0  0  0  0
 14 15  1  0  0  0  0
 14 16  1  0  0  0  0
 14 17  1  0  0  0  0
 17 18  1  0  0  0  0
 17 19  1  0  0  0  0
 19 20  2  0  0  0  0
 19 21  1  0  0  0  0
 21 22  1  0  0  0  0
 21 23  1  0  0  0  0
 23 24  1  0  0  0  0
 23 25  1  0  0  0  0
 23 26  1  0  0  0  0
M  END
$$$$

  -OEChem-11182114133D

 26 26  0     1  0  0  0  0  0999 V2000
   -1.6004   -4.2167    0.5984 H   0  0  0  0  0  0  0  0  0  0  0  0
   -1.7540   -3.3036    0.0160 C   0  0  0  0  0  0  0  0  0  0  0  0
   -2.6445   -2.7985    0.3980 H   0  0  0  0  0  0  0  0  0  0  0  0
   -1.9160   -3.5807   -1.0282 H   0  0  0  0  0  0  0  0  0  0  0  0
   -0.5326   -2.3952    0.1385 C   0  0  0  0  0  0  0  0  0  0  0  0
    0.5056   -2.9293    0.4998 O   0  0  0  0  0  0  0  0  0  0  0  0
   -0.6285   -0.9991    0.0541 N   0  0  0  0  0  0  0  0  0  0  0  0
   -1.5460   -0.6099   -1.0280 C   0  0  0  0  0  0  0  0  0  0  0  0
   -2.5333   -0.3393   -0.6390 H   0  0  0  0  0  0  0  0  0  0  0  0
   -1.6709   -1.3968   -1.7807 H   0  0  0  0  0  0  0  0  0  0  0  0
   -0.8833    0.5679   -1.6902 C   0  0  0  0  0  0  0  0  0  0  0  0
   -1.2521    1.4983   -1.2451 H   0  0  0  0  0  0  0  0  0  0  0  0
   -1.0868    0.5980   -2.7652 H   0  0  0  0  0  0  0  0  0  0  0  0
    0.6035    0.4144   -1.4018 C   0  0  0  0  0  0  0  0  0  0  0  0
    1.1384    1.3684   -1.4712 H   0  0  0  0  0  0  0  0  0  0  0  0
    1.0515   -0.2709   -2.1286 H   0  0  0  0  0  0  0  0  0  0  0  0
    0.6531   -0.2314   -0.0074 C   0  0  1  0  0  0  0  0  0  0  0  0
    1.5667   -0.8150    0.1461 H   0  0  0  0  0  0  0  0  0  0  0  0
    0.6347    0.9832    0.9539 C   0  0  0  0  0  0  0  0  0  0  0  0
    1.5965    1.7387    1.0268 O   0  0  0  0  0  0  0  0  0  0  0  0
   -0.4779    1.2439    1.7339 N   0  0  0  0  0  0  0  0  0  0  0  0
   -1.2136    0.5432    1.7098 H   0  0  0  0  0  0  0  0  0  0  0  0
   -0.5454    2.3206    2.7136 C   0  0  0  0  0  0  0  0  0  0  0  0
   -0.3829    3.2896    2.2299 H   0  0  0  0  0  0  0  0  0  0  0  0
   -1.5291    2.3353    3.1922 H   0  0  0  0  0  0  0  0  0  0  0  0
    0.2158    2.1811    3.4884 H   0  0  0  0  0  0  0  0  0  0  0  0
  1  2  1  0  0  0  0
  2  3  1  0  0  0  0
  2  4  1  0  0  0  0
  2  5  1  0  0  0  0
  5  6  2  0  0  0  0
  5  7  1  0  0  0  0
  7  8  1  0  0  0  0
  7 17  1  0  0  0  0
  8  9  1  0  0  0  0
  8 10  1  0  0  0  0
  8 11  1  0  0  0  0
 11 12  1  0  0  0  0
 11 13  1  0  0  0  0
 11 14  1  0  0  0  0
 14 15  1  0  0  0  0
 14 16  1  0  0  0  0
 14 17  1  0  0  0  0
 17 18  1  0  0  0  0
 17 19  1  0  0  0  0
 19 20  2  0  0  0  0
 19 21  1  0  0  0  0
 21 22  1  0  0  0  0
 21 23  1  0  0  0  0
 23 24  1  0  0  0  0
 23 25  1  0  0  0  0
 23 26  1  0  0  0  0
M  END
$$$$

  -OEChem-11182114133D

 26 26  0     1  0  0  0  0  0999 V2000
   -1.6068   -4.2044    0.5906 H   0  0  0  0  0  0  0  0  0  0  0  0
   -1.7565   -3.2895    0.0102 C   0  0  0  0  0  0  0  0  0  0  0  0
   -2.6463   -2.7828    0.3915 H   0  0  0  0  0  0  0  0  0  0  0  0
   -1.9172   -3.5641   -1.0350 H   0  0  0  0  0  0  0  0  0  0  0  0
   -0.5331   -2.3841    0.1369 C   0  0  0  0  0  0  0  0  0  0  0  0
    0.4999   -2.9192    0.5114 O   0  0  0  0  0  0  0  0  0  0  0  0
   -0.6232   -0.9875    0.0558 N   0  0  0  0  0  0  0  0  0  0  0  0
   -1.5472   -0.5948   -1.0190 C   0  0  0  0  0  0  0  0  0  0  0  0
   -2.5285   -0.3150   -0.6213 H   0  0  0  0  0  0  0  0  0  0  0  0
   -1.6852   -1.3815   -1.7693 H   0  0  0  0  0  0  0  0  0  0  0  0
   -0.8810    0.5739   -1.6898 C   0  0  0  0  0  0  0  0  0  0  0  0
   -1.2402    1.5078   -1.2442 H   0  0  0  0  0  0  0  0  0  0  0  0
   -1.0930    0.6023   -2.7631 H   0  0  0  0  0  0  0  0  0  0  0  0
    0.6067    0.4136   -1.4116 C   0  0  0  0  0  0  0  0  0  0  0  0
    1.1476    1.3621   -1.4996 H   0  0  0  0  0  0  0  0  0  0  0  0
    1.0428   -0.2809   -2.1369 H   0  0  0  0  0  0  0  0  0  0  0  0
    0.6631   -0.2271   -0.0128 C   0  0  1  0  0  0  0  0  0  0  0  0
    1.5749   -0.8134    0.1389 H   0  0  0  0  0  0  0  0  0  0  0  0
    0.6406    0.9826    0.9583 C   0  0  0  0  0  0  0  0  0  0  0  0
    1.4935    1.8617    0.9085 O   0  0  0  0  0  0  0  0  0  0  0  0
   -0.3242    1.0562    1.9469 N   0  0  0  0  0  0  0  0  0  0  0  0
   -0.9663    0.2705    2.0061 H   0  0  0  0  0  0  0  0  0  0  0  0
   -0.3740    2.1025    2.9597 C   0  0  0  0  0  0  0  0  0  0  0  0
   -0.4759    3.0860    2.4891 H   0  0  0  0  0  0  0  0  0  0  0  0
   -1.2304    1.9464    3.6225 H   0  0  0  0  0  0  0  0  0  0  0  0
    0.5387    2.0933    3.5645 H   0  0  0  0  0  0  0  0  0  0  0  0
  1  2  1  0  0  0  0
  2  3  1  0  0  0  0
  2  4  1  0  0  0  0
  2  5  1  0  0  0  0
  5  6  2  0  0  0  0
  5  7  1  0  0  0  0
  7  8  1  0  0  0  0
  7 17  1  0  0  0  0
  8  9  1  0  0  0  0
  8 10  1  0  0  0  0
  8 11  1  0  0  0  0
 11 12  1  0  0  0  0
 11 13  1  0  0  0  0
 11 14  1  0  0  0  0
 14 15  1  0  0  0  0
 14 16  1  0  0  0  0
 14 17  1  0  0  0  0
 17 18  1  0  0  0  0
 17 19  1  0  0  0  0
 19 20  2  0  0  0  0
 19 21  1  0  0  0  0
 21 22  1  0  0  0  0
 21 23  1  0  0  0  0
 23 24  1  0  0  0  0
 23 25  1  0  0  0  0
 23 26  1  0  0  0  0
M  END
$$$$

  -OEChem-11182114133D

 26 26  0     1  0  0  0  0  0999 V2000
   -1.6150   -4.1724    0.6218 H   0  0  0  0  0  0  0  0  0  0  0  0
   -1.7611   -3.2654    0.0282 C   0  0  0  0  0  0  0  0  0  0  0  0
   -2.6501   -2.7507    0.4010 H   0  0  0  0  0  0  0  0  0  0  0  0
   -1.9213   -3.5543   -1.0131 H   0  0  0  0  0  0  0  0  0  0  0  0
   -0.5349   -2.3621    0.1439 C   0  0  0  0  0  0  0  0  0  0  0  0
    0.4958   -2.8973    0.5252 O   0  0  0  0  0  0  0  0  0  0  0  0
   -0.6211   -0.9652    0.0624 N   0  0  0  0  0  0  0  0  0  0  0  0
   -1.5474   -0.5784   -1.0136 C   0  0  0  0  0  0  0  0  0  0  0  0
   -2.5226   -0.2814   -0.6132 H   0  0  0  0  0  0  0  0  0  0  0  0
   -1.7011   -1.3727   -1.7528 H   0  0  0  0  0  0  0  0  0  0  0  0
   -0.8732    0.5729   -1.7044 C   0  0  0  0  0  0  0  0  0  0  0  0
   -1.2227    1.5172   -1.2731 H   0  0  0  0  0  0  0  0  0  0  0  0
   -1.0882    0.5860   -2.7775 H   0  0  0  0  0  0  0  0  0  0  0  0
    0.6139    0.4063   -1.4297 C   0  0  0  0  0  0  0  0  0  0  0  0
    1.1645    1.3460   -1.5422 H   0  0  0  0  0  0  0  0  0  0  0  0
    1.0390   -0.3061   -2.1440 H   0  0  0  0  0  0  0  0  0  0  0  0
    0.6702   -0.2139   -0.0201 C   0  0  1  0  0  0  0  0  0  0  0  0
    1.5794   -0.8025    0.1365 H   0  0  0  0  0  0  0  0  0  0  0  0
    0.6409    0.9913    0.9602 C   0  0  0  0  0  0  0  0  0  0  0  0
    1.3273    1.9943    0.7971 O   0  0  0  0  0  0  0  0  0  0  0  0
   -0.1089    0.8981    2.1189 N   0  0  0  0  0  0  0  0  0  0  0  0
   -0.6173    0.0288    2.2573 H   0  0  0  0  0  0  0  0  0  0  0  0
   -0.1299    1.9148    3.1627 C   0  0  0  0  0  0  0  0  0  0  0  0
   -0.5022    2.8643    2.7643 H   0  0  0  0  0  0  0  0  0  0  0  0
   -0.7852    1.6022    3.9812 H   0  0  0  0  0  0  0  0  0  0  0  0
    0.8763    2.0708    3.5656 H   0  0  0  0  0  0  0  0  0  0  0  0
  1  2  1  0  0  0  0
  2  3  1  0  0  0  0
  2  4  1  0  0  0  0
  2  5  1  0  0  0  0
  5  6  2  0  0  0  0
  5  7  1  0  0  0  0
  7  8  1  0  0  0  0
  7 17  1  0  0  0  0
  8  9  1  0  0  0  0
  8 10  1  0  0  0  0
  8 11  1  0  0  0  0
 11 12  1  0  0  0  0
 11 13  1  0  0  0  0
 11 14  1  0  0  0  0
 14 15  1  0  0  0  0
 14 16  1  0  0  0  0
 14 17  1  0  0  0  0
 17 18  1  0  0  0  0
 17 19  1  0  0  0  0
 19 20  2  0  0  0  0
 19 21  1  0  0  0  0
 21 22  1  0  0  0  0
 21 23  1  0  0  0  0
 23 24  1  0  0  0  0
 23 25  1  0  0  0  0
 23 26  1  0  0  0  0
M  END
$$$$

  -OEChem-11182114133D

 26 26  0     1  0  0  0  0  0999 V2000
   -1.6271   -4.1435    0.6442 H   0  0  0  0  0  0  0  0  0  0  0  0
   -1.7735   -3.2349    0.0530 C   0  0  0  0  0  0  0  0  0  0  0  0
   -2.6514   -2.7116    0.4398 H   0  0  0  0  0  0  0  0  0  0  0  0
   -1.9533   -3.5223   -0.9856 H   0  0  0  0  0  0  0  0  0  0  0  0
   -0.5373   -2.3428    0.1499 C   0  0  0  0  0  0  0  0  0  0  0  0
    0.4910   -2.8850    0.5289 O   0  0  0  0  0  0  0  0  0  0  0  0
   -0.6105   -0.9451    0.0727 N   0  0  0  0  0  0  0  0  0  0  0  0
   -1.5416   -0.5556   -0.9989 C   0  0  0  0  0  0  0  0  0  0  0  0
   -2.5098   -0.2443   -0.5924 H   0  0  0  0  0  0  0  0  0  0  0  0
   -1.7112   -1.3529   -1.7312 H   0  0  0  0  0  0  0  0  0  0  0  0
   -0.8610    0.5815   -1.7063 C   0  0  0  0  0  0  0  0  0  0  0  0
   -1.1945    1.5331   -1.2785 H   0  0  0  0  0  0  0  0  0  0  0  0
   -1.0873    0.5896   -2.7770 H   0  0  0  0  0  0  0  0  0  0  0  0
    0.6270    0.4007   -1.4453 C   0  0  0  0  0  0  0  0  0  0  0  0
    1.1927    1.3288   -1.5752 H   0  0  0  0  0  0  0  0  0  0  0  0
    1.0335   -0.3257   -2.1563 H   0  0  0  0  0  0  0  0  0  0  0  0
    0.6867   -0.2083   -0.0302 C   0  0  1  0  0  0  0  0  0  0  0  0
    1.5924   -0.8032    0.1225 H   0  0  0  0  0  0  0  0  0  0  0  0
    0.6592    0.9881    0.9640 C   0  0  0  0  0  0  0  0  0  0  0  0
    1.0986    2.1037    0.7045 O   0  0  0  0  0  0  0  0  0  0  0  0
    0.1872    0.7632    2.2447 N   0  0  0  0  0  0  0  0  0  0  0  0
   -0.1489   -0.1751    2.4452 H   0  0  0  0  0  0  0  0  0  0  0  0
    0.1544    1.7740    3.2940 C   0  0  0  0  0  0  0  0  0  0  0  0
   -0.5004    2.6028    3.0059 H   0  0  0  0  0  0  0  0  0  0  0  0
   -0.2244    1.3401    4.2243 H   0  0  0  0  0  0  0  0  0  0  0  0
    1.1597    2.1660    3.4810 H   0  0  0  0  0  0  0  0  0  0  0  0
  1  2  1  0  0  0  0
  2  3  1  0  0  0  0
  2  4  1  0  0  0  0
  2  5  1  0  0  0  0
  5  6  2  0  0  0  0
  5  7  1  0  0  0  0
  7  8  1  0  0  0  0
  7 17  1  0  0  0  0
  8  9  1  0  0  0  0
  8 10  1  0  0  0  0
  8 11  1  0  0  0  0
 11 12  1  0  0  0  0
 11 13  1  0  0  0  0
 11 14  1  0  0  0  0
 14 15  1  0  0  0  0
 14 16  1  0  0  0  0
 14 17  1  0  0  0  0
 17 18  1  0  0  0  0
 17 19  1  0  0  0  0
 19 20  2  0  0  0  0
 19 21  1  0  0  0  0
 21 22  1  0  0  0  0
 21 23  1  0  0  0  0
 23 24  1  0  0  0  0
 23 25  1  0  0  0  0
 23 26  1  0  0  0  0
M  END
$$$$

  -OEChem-11182114133D

 26 26  0     1  0  0  0  0  0999 V2000
   -1.6358   -4.1160    0.6789 H   0  0  0  0  0  0  0  0  0  0  0  0
   -1.7804   -3.2119    0.0804 C   0  0  0  0  0  0  0  0  0  0  0  0
   -2.6518   -2.6791    0.4691 H   0  0  0  0  0  0  0  0  0  0  0  0
   -1.9701   -3.5076   -0.9542 H   0  0  0  0  0  0  0  0  0  0  0  0
   -0.5374   -2.3274    0.1594 C   0  0  0  0  0  0  0  0  0  0  0  0
    0.4918   -2.8745    0.5304 O   0  0  0  0  0  0  0  0  0  0  0  0
   -0.6022   -0.9295    0.0826 N   0  0  0  0  0  0  0  0  0  0  0  0
   -1.5373   -0.5391   -0.9862 C   0  0  0  0  0  0  0  0  0  0  0  0
   -2.4995   -0.2163   -0.5748 H   0  0  0  0  0  0  0  0  0  0  0  0
   -1.7198   -1.3393   -1.7123 H   0  0  0  0  0  0  0  0  0  0  0  0
   -0.8525    0.5878   -1.7066 C   0  0  0  0  0  0  0  0  0  0  0  0
   -1.1763    1.5452   -1.2840 H   0  0  0  0  0  0  0  0  0  0  0  0
   -1.0866    0.5901   -2.7758 H   0  0  0  0  0  0  0  0  0  0  0  0
    0.6366    0.3966   -1.4551 C   0  0  0  0  0  0  0  0  0  0  0  0
    1.2117    1.3188   -1.5886 H   0  0  0  0  0  0  0  0  0  0  0  0
    1.0326   -0.3364   -2.1654 H   0  0  0  0  0  0  0  0  0  0  0  0
    0.6980   -0.2034   -0.0373 C   0  0  1  0  0  0  0  0  0  0  0  0
    1.6017   -0.8028    0.1102 H   0  0  0  0  0  0  0  0  0  0  0  0
    0.6782    0.9888    0.9619 C   0  0  0  0  0  0  0  0  0  0  0  0
    0.8226    2.1662    0.6465 O   0  0  0  0  0  0  0  0  0  0  0  0
    0.5232    0.6950    2.3045 N   0  0  0  0  0  0  0  0  0  0  0  0
    0.3801   -0.2833    2.5429 H   0  0  0  0  0  0  0  0  0  0  0  0
    0.4763    1.7001    3.3590 C   0  0  0  0  0  0  0  0  0  0  0  0
   -0.3833    2.3633    3.2169 H   0  0  0  0  0  0  0  0  0  0  0  0
    0.3844    1.2176    4.3368 H   0  0  0  0  0  0  0  0  0  0  0  0
    1.3912    2.3018    3.3562 H   0  0  0  0  0  0  0  0  0  0  0  0
  1  2  1  0  0  0  0
  2  3  1  0  0  0  0
  2  4  1  0  0  0  0
  2  5  1  0  0  0  0
  5  6  2  0  0  0  0
  5  7  1  0  0  0  0
  7  8  1  0  0  0  0
  7 17  1  0  0  0  0
  8  9  1  0  0  0  0
  8 10  1  0  0  0  0
  8 11  1  0  0  0  0
 11 12  1  0  0  0  0
 11 13  1  0  0  0  0
 11 14  1  0  0  0  0
 14 15  1  0  0  0  0
 14 16  1  0  0  0  0
 14 17  1  0  0  0  0
 17 18  1  0  0  0  0
 17 19  1  0  0  0  0
 19 20  2  0  0  0  0
 19 21  1  0  0  0  0
 21 22  1  0  0  0  0
 21 23  1  0  0  0  0
 23 24  1  0  0  0  0
 23 25  1  0  0  0  0
 23 26  1  0  0  0  0
M  END
$$$$

  -OEChem-11182114133D

 26 26  0     1  0  0  0  0  0999 V2000
   -1.6378   -4.0999    0.7076 H   0  0  0  0  0  0  0  0  0  0  0  0
   -1.7832   -3.2012    0.1015 C   0  0  0  0  0  0  0  0  0  0  0  0
   -2.6506   -2.6620    0.4906 H   0  0  0  0  0  0  0  0  0  0  0  0
   -1.9803   -3.5049   -0.9293 H   0  0  0  0  0  0  0  0  0  0  0  0
   -0.5374   -2.3194    0.1655 C   0  0  0  0  0  0  0  0  0  0  0  0
    0.4958   -2.8666    0.5269 O   0  0  0  0  0  0  0  0  0  0  0  0
   -0.6040   -0.9220    0.0870 N   0  0  0  0  0  0  0  0  0  0  0  0
   -1.5362   -0.5389   -0.9880 C   0  0  0  0  0  0  0  0  0  0  0  0
   -2.5002   -0.2154   -0.5813 H   0  0  0  0  0  0  0  0  0  0  0  0
   -1.7156   -1.3430   -1.7107 H   0  0  0  0  0  0  0  0  0  0  0  0
   -0.8525    0.5863   -1.7122 C   0  0  0  0  0  0  0  0  0  0  0  0
   -1.1841    1.5453   -1.2999 H   0  0  0  0  0  0  0  0  0  0  0  0
   -1.0809    0.5797   -2.7825 H   0  0  0  0  0  0  0  0  0  0  0  0
    0.6364    0.3976   -1.4530 C   0  0  0  0  0  0  0  0  0  0  0  0
    1.2082    1.3235   -1.5778 H   0  0  0  0  0  0  0  0  0  0  0  0
    1.0392   -0.3339   -2.1608 H   0  0  0  0  0  0  0  0  0  0  0  0
    0.6946   -0.1957   -0.0334 C   0  0  1  0  0  0  0  0  0  0  0  0
    1.5984   -0.7954    0.1121 H   0  0  0  0  0  0  0  0  0  0  0  0
    0.6849    0.9996    0.9606 C   0  0  0  0  0  0  0  0  0  0  0  0
    0.5547    2.1780    0.6408 O   0  0  0  0  0  0  0  0  0  0  0  0
    0.8554    0.7059    2.3012 N   0  0  0  0  0  0  0  0  0  0  0  0
    0.9002   -0.2794    2.5500 H   0  0  0  0  0  0  0  0  0  0  0  0
    0.8300    1.7047    3.3623 C   0  0  0  0  0  0  0  0  0  0  0  0
   -0.1510    2.1887    3.4089 H   0  0  0  0  0  0  0  0  0  0  0  0
    1.0306    1.2331    4.3290 H   0  0  0  0  0  0  0  0  0  0  0  0
    1.5937    2.4699    3.1877 H   0  0  0  0  0  0  0  0  0  0  0  0
  1  2  1  0  0  0  0
  2  3  1  0  0  0  0
  2  4  1  0  0  0  0
  2  5  1  0  0  0  0
  5  6  2  0  0  0  0
  5  7  1  0  0  0  0
  7  8  1  0  0  0  0
  7 17  1  0  0  0  0
  8  9  1  0  0  0  0
  8 10  1  0  0  0  0
  8 11  1  0  0  0  0
 11 12  1  0  0  0  0
 11 13  1  0  0  0  0
 11 14  1  0  0  0  0
 14 15  1  0  0  0  0
 14 16  1  0  0  0  0
 14 17  1  0  0  0  0
 17 18  1  0  0  0  0
 17 19  1  0  0  0  0
 19 20  2  0  0  0  0
 19 21  1  0  0  0  0
 21 22  1  0  0  0  0
 21 23  1  0  0  0  0
 23 24  1  0  0  0  0
 23 25  1  0  0  0  0
 23 26  1  0  0  0  0
M  END
$$$$

  -OEChem-11182114133D

 26 26  0     1  0  0  0  0  0999 V2000
   -1.6295   -4.1059    0.7079 H   0  0  0  0  0  0  0  0  0  0  0  0
   -1.7816   -3.2061    0.1051 C   0  0  0  0  0  0  0  0  0  0  0  0
   -2.6488   -2.6708    0.5000 H   0  0  0  0  0  0  0  0  0  0  0  0
   -1.9824   -3.5074   -0.9255 H   0  0  0  0  0  0  0  0  0  0  0  0
   -0.5389   -2.3203    0.1653 C   0  0  0  0  0  0  0  0  0  0  0  0
    0.4998   -2.8675    0.5119 O   0  0  0  0  0  0  0  0  0  0  0  0
   -0.6121   -0.9230    0.0892 N   0  0  0  0  0  0  0  0  0  0  0  0
   -1.5411   -0.5450   -0.9909 C   0  0  0  0  0  0  0  0  0  0  0  0
   -2.5099   -0.2298   -0.5888 H   0  0  0  0  0  0  0  0  0  0  0  0
   -1.7101   -1.3498   -1.7154 H   0  0  0  0  0  0  0  0  0  0  0  0
   -0.8624    0.5864   -1.7100 C   0  0  0  0  0  0  0  0  0  0  0  0
   -1.2080    1.5429   -1.3048 H   0  0  0  0  0  0  0  0  0  0  0  0
   -1.0816    0.5753   -2.7821 H   0  0  0  0  0  0  0  0  0  0  0  0
    0.6265    0.4048   -1.4392 C   0  0  0  0  0  0  0  0  0  0  0  0
    1.1890    1.3385   -1.5487 H   0  0  0  0  0  0  0  0  0  0  0  0
    1.0415   -0.3186   -2.1484 H   0  0  0  0  0  0  0  0  0  0  0  0
    0.6834   -0.1906   -0.0208 C   0  0  1  0  0  0  0  0  0  0  0  0
    1.5876   -0.7911    0.1180 H   0  0  0  0  0  0  0  0  0  0  0  0
    0.6904    1.0102    0.9660 C   0  0  0  0  0  0  0  0  0  0  0  0
    0.3200    2.1471    0.6868 O   0  0  0  0  0  0  0  0  0  0  0  0
    1.1736    0.7796    2.2413 N   0  0  0  0  0  0  0  0  0  0  0  0
    1.3901   -0.1852    2.4798 H   0  0  0  0  0  0  0  0  0  0  0  0
    1.1853    1.7863    3.2956 C   0  0  0  0  0  0  0  0  0  0  0  0
    0.1644    2.1018    3.5348 H   0  0  0  0  0  0  0  0  0  0  0  0
    1.6438    1.3786    4.2015 H   0  0  0  0  0  0  0  0  0  0  0  0
    1.7621    2.6630    2.9827 H   0  0  0  0  0  0  0  0  0  0  0  0
  1  2  1  0  0  0  0
  2  3  1  0  0  0  0
  2  4  1  0  0  0  0
  2  5  1  0  0  0  0
  5  6  2  0  0  0  0
  5  7  1  0  0  0  0
  7  8  1  0  0  0  0
  7 17  1  0  0  0  0
  8  9  1  0  0  0  0
  8 10  1  0  0  0  0
  8 11  1  0  0  0  0
 11 12  1  0  0  0  0
 11 13  1  0  0  0  0
 11 14  1  0  0  0  0
 14 15  1  0  0  0  0
 14 16  1  0  0  0  0
 14 17  1  0  0  0  0
 17 18  1  0  0  0  0
 17 19  1  0  0  0  0
 19 20  2  0  0  0  0
 19 21  1  0  0  0  0
 21 22  1  0  0  0  0
 21 23  1  0  0  0  0
 23 24  1  0  0  0  0
 23 25  1  0  0  0  0
 23 26  1  0  0  0  0
M  END
$$$$

  -OEChem-11182114133D

 26 26  0     1  0  0  0  0  0999 V2000
   -1.6223   -4.1118    0.7181 H   0  0  0  0  0  0  0  0  0  0  0  0
   -1.7824   -3.2119    0.1175 C   0  0  0  0  0  0  0  0  0  0  0  0
   -2.6437   -2.6761    0.5245 H   0  0  0  0  0  0  0  0  0  0  0  0
   -1.9979   -3.5123   -0.9105 H   0  0  0  0  0  0  0  0  0  0  0  0
   -0.5393   -2.3261    0.1611 C   0  0  0  0  0  0  0  0  0  0  0  0
    0.5079   -2.8750    0.4795 O   0  0  0  0  0  0  0  0  0  0  0  0
   -0.6200   -0.9294    0.0875 N   0  0  0  0  0  0  0  0  0  0  0  0
   -1.5430   -0.5569   -1.0001 C   0  0  0  0  0  0  0  0  0  0  0  0
   -2.5180   -0.2520   -0.6053 H   0  0  0  0  0  0  0  0  0  0  0  0
   -1.6979   -1.3618   -1.7277 H   0  0  0  0  0  0  0  0  0  0  0  0
   -0.8700    0.5847   -1.7089 C   0  0  0  0  0  0  0  0  0  0  0  0
   -1.2332    1.5368   -1.3099 H   0  0  0  0  0  0  0  0  0  0  0  0
   -1.0762    0.5708   -2.7834 H   0  0  0  0  0  0  0  0  0  0  0  0
    0.6177    0.4149   -1.4221 C   0  0  0  0  0  0  0  0  0  0  0  0
    1.1672    1.3584   -1.5140 H   0  0  0  0  0  0  0  0  0  0  0  0
    1.0501   -0.2973   -2.1321 H   0  0  0  0  0  0  0  0  0  0  0  0
    0.6701   -0.1858   -0.0065 C   0  0  1  0  0  0  0  0  0  0  0  0
    1.5750   -0.7860    0.1291 H   0  0  0  0  0  0  0  0  0  0  0  0
    0.6895    1.0213    0.9713 C   0  0  0  0  0  0  0  0  0  0  0  0
    0.0895    2.0751    0.7814 O   0  0  0  0  0  0  0  0  0  0  0  0
    1.4490    0.9042    2.1217 N   0  0  0  0  0  0  0  0  0  0  0  0
    1.8531   -0.0091    2.3128 H   0  0  0  0  0  0  0  0  0  0  0  0
    1.5040    1.9264    3.1596 C   0  0  0  0  0  0  0  0  0  0  0  0
    0.5140    2.0757    3.6033 H   0  0  0  0  0  0  0  0  0  0  0  0
    2.1965    1.6235    3.9508 H   0  0  0  0  0  0  0  0  0  0  0  0
    1.8518    2.8779    2.7437 H   0  0  0  0  0  0  0  0  0  0  0  0
  1  2  1  0  0  0  0
  2  3  1  0  0  0  0
  2  4  1  0  0  0  0
  2  5  1  0  0  0  0
  5  6  2  0  0  0  0
  5  7  1  0  0  0  0
  7  8  1  0  0  0  0
  7 17  1  0  0  0  0
  8  9  1  0  0  0  0
  8 10  1  0  0  0  0
  8 11  1  0  0  0  0
 11 12  1  0  0  0  0
 11 13  1  0  0  0  0
 11 14  1  0  0  0  0
 14 15  1  0  0  0  0
 14 16  1  0  0  0  0
 14 17  1  0  0  0  0
 17 18  1  0  0  0  0
 17 19  1  0  0  0  0
 19 20  2  0  0  0  0
 19 21  1  0  0  0  0
 21 22  1  0  0  0  0
 21 23  1  0  0  0  0
 23 24  1  0  0  0  0
 23 25  1  0  0  0  0
 23 26  1  0  0  0  0
M  END
$$$$

  -OEChem-11182114133D

 26 26  0     1  0  0  0  0  0999 V2000
   -1.6138   -4.1232    0.7189 H   0  0  0  0  0  0  0  0  0  0  0  0
   -1.7816   -3.2182    0.1282 C   0  0  0  0  0  0  0  0  0  0  0  0
   -2.6372   -2.6854    0.5509 H   0  0  0  0  0  0  0  0  0  0  0  0
   -2.0106   -3.5098   -0.8994 H   0  0  0  0  0  0  0  0  0  0  0  0
   -0.5380   -2.3329    0.1640 C   0  0  0  0  0  0  0  0  0  0  0  0
    0.5144   -2.8837    0.4610 O   0  0  0  0  0  0  0  0  0  0  0  0
   -0.6207   -0.9367    0.0871 N   0  0  0  0  0  0  0  0  0  0  0  0
   -1.5434   -0.5635   -0.9999 C   0  0  0  0  0  0  0  0  0  0  0  0
   -2.5211   -0.2672   -0.6053 H   0  0  0  0  0  0  0  0  0  0  0  0
   -1.6910   -1.3660   -1.7317 H   0  0  0  0  0  0  0  0  0  0  0  0
   -0.8754    0.5880   -1.6993 C   0  0  0  0  0  0  0  0  0  0  0  0
   -1.2450    1.5355   -1.2952 H   0  0  0  0  0  0  0  0  0  0  0  0
   -1.0789    0.5804   -2.7744 H   0  0  0  0  0  0  0  0  0  0  0  0
    0.6124    0.4246   -1.4094 C   0  0  0  0  0  0  0  0  0  0  0  0
    1.1537    1.3739   -1.4902 H   0  0  0  0  0  0  0  0  0  0  0  0
    1.0518   -0.2785   -2.1244 H   0  0  0  0  0  0  0  0  0  0  0  0
    0.6653   -0.1857    0.0008 C   0  0  1  0  0  0  0  0  0  0  0  0
    1.5700   -0.7863    0.1339 H   0  0  0  0  0  0  0  0  0  0  0  0
    0.6941    1.0295    0.9673 C   0  0  0  0  0  0  0  0  0  0  0  0
   -0.1078    1.9569    0.9182 O   0  0  0  0  0  0  0  0  0  0  0  0
    1.6762    1.0697    1.9414 N   0  0  0  0  0  0  0  0  0  0  0  0
    2.2592    0.2431    2.0413 H   0  0  0  0  0  0  0  0  0  0  0  0
    1.7528    2.1076    2.9626 C   0  0  0  0  0  0  0  0  0  0  0  0
    0.8563    2.0928    3.5913 H   0  0  0  0  0  0  0  0  0  0  0  0
    2.6268    1.9453    3.6007 H   0  0  0  0  0  0  0  0  0  0  0  0
    1.8433    3.0962    2.5001 H   0  0  0  0  0  0  0  0  0  0  0  0
  1  2  1  0  0  0  0
  2  3  1  0  0  0  0
  2  4  1  0  0  0  0
  2  5  1  0  0  0  0
  5  6  2  0  0  0  0
  5  7  1  0  0  0  0
  7  8  1  0  0  0  0
  7 17  1  0  0  0  0
  8  9  1  0  0  0  0
  8 10  1  0  0  0  0
  8 11  1  0  0  0  0
 11 12  1  0  0  0  0
 11 13  1  0  0  0  0
 11 14  1  0  0  0  0
 14 15  1  0  0  0  0
 14 16  1  0  0  0  0
 14 17  1  0  0  0  0
 17 18  1  0  0  0  0
 17 19  1  0  0  0  0
 19 20  2  0  0  0  0
 19 21  1  0  0  0  0
 21 22  1  0  0  0  0
 21 23  1  0  0  0  0
 23 24  1  0  0  0  0
 23 25  1  0  0  0  0
 23 26  1  0  0  0  0
M  END
$$$$

  -OEChem-11182114133D

 26 26  0     1  0  0  0  0  0999 V2000
   -1.6093   -4.1308    0.7270 H   0  0  0  0  0  0  0  0  0  0  0  0
   -1.7799   -3.2242    0.1398 C   0  0  0  0  0  0  0  0  0  0  0  0
   -2.6302   -2.6898    0.5711 H   0  0  0  0  0  0  0  0  0  0  0  0
   -2.0190   -3.5129   -0.8862 H   0  0  0  0  0  0  0  0  0  0  0  0
   -0.5339   -2.3423    0.1662 C   0  0  0  0  0  0  0  0  0  0  0  0
    0.5228   -2.8958    0.4428 O   0  0  0  0  0  0  0  0  0  0  0  0
   -0.6163   -0.9472    0.0843 N   0  0  0  0  0  0  0  0  0  0  0  0
   -1.5406   -0.5686   -0.9980 C   0  0  0  0  0  0  0  0  0  0  0  0
   -2.5201   -0.2816   -0.6007 H   0  0  0  0  0  0  0  0  0  0  0  0
   -1.6824   -1.3665   -1.7361 H   0  0  0  0  0  0  0  0  0  0  0  0
   -0.8774    0.5945   -1.6848 C   0  0  0  0  0  0  0  0  0  0  0  0
   -1.2480    1.5351   -1.2648 H   0  0  0  0  0  0  0  0  0  0  0  0
   -1.0836    0.6007   -2.7596 H   0  0  0  0  0  0  0  0  0  0  0  0
    0.6112    0.4352   -1.3983 C   0  0  0  0  0  0  0  0  0  0  0  0
    1.1474    1.3882   -1.4696 H   0  0  0  0  0  0  0  0  0  0  0  0
    1.0536   -0.2583   -2.1208 H   0  0  0  0  0  0  0  0  0  0  0  0
    0.6654   -0.1896    0.0045 C   0  0  1  0  0  0  0  0  0  0  0  0
    1.5708   -0.7884    0.1395 H   0  0  0  0  0  0  0  0  0  0  0  0
    0.6900    1.0310    0.9626 C   0  0  0  0  0  0  0  0  0  0  0  0
   -0.2528    1.8070    1.0822 O   0  0  0  0  0  0  0  0  0  0  0  0
    1.8225    1.2565    1.7258 N   0  0  0  0  0  0  0  0  0  0  0  0
    2.5500    0.5479    1.6963 H   0  0  0  0  0  0  0  0  0  0  0  0
    1.9218    2.3210    2.7172 C   0  0  0  0  0  0  0  0  0  0  0  0
    1.1762    2.1792    3.5066 H   0  0  0  0  0  0  0  0  0  0  0  0
    2.9159    2.3201    3.1745 H   0  0  0  0  0  0  0  0  0  0  0  0
    1.7592    3.2979    2.2496 H   0  0  0  0  0  0  0  0  0  0  0  0
  1  2  1  0  0  0  0
  2  3  1  0  0  0  0
  2  4  1  0  0  0  0
  2  5  1  0  0  0  0
  5  6  2  0  0  0  0
  5  7  1  0  0  0  0
  7  8  1  0  0  0  0
  7 17  1  0  0  0  0
  8  9  1  0  0  0  0
  8 10  1  0  0  0  0
  8 11  1  0  0  0  0
 11 12  1  0  0  0  0
 11 13  1  0  0  0  0
 11 14  1  0  0  0  0
 14 15  1  0  0  0  0
 14 16  1  0  0  0  0
 14 17  1  0  0  0  0
 17 18  1  0  0  0  0
 17 19  1  0  0  0  0
 19 20  2  0  0  0  0
 19 21  1  0  0  0  0
 21 22  1  0  0  0  0
 21 23  1  0  0  0  0
 23 24  1  0  0  0  0
 23 25  1  0  0  0  0
 23 26  1  0  0  0  0
M  END
$$$$

  -OEChem-11182114133D

 26 26  0     1  0  0  0  0  0999 V2000
   -1.5899   -4.1536    0.7044 H   0  0  0  0  0  0  0  0  0  0  0  0
   -1.7712   -3.2357    0.1383 C   0  0  0  0  0  0  0  0  0  0  0  0
   -2.6141   -2.7108    0.5950 H   0  0  0  0  0  0  0  0  0  0  0  0
   -2.0273   -3.5035   -0.8893 H   0  0  0  0  0  0  0  0  0  0  0  0
   -0.5262   -2.3532    0.1619 C   0  0  0  0  0  0  0  0  0  0  0  0
    0.5349   -2.9062    0.4219 O   0  0  0  0  0  0  0  0  0  0  0  0
   -0.6120   -0.9588    0.0802 N   0  0  0  0  0  0  0  0  0  0  0  0
   -1.5408   -0.5717   -0.9928 C   0  0  0  0  0  0  0  0  0  0  0  0
   -2.5213   -0.2965   -0.5901 H   0  0  0  0  0  0  0  0  0  0  0  0
   -1.6775   -1.3616   -1.7402 H   0  0  0  0  0  0  0  0  0  0  0  0
   -0.8842    0.6051   -1.6631 C   0  0  0  0  0  0  0  0  0  0  0  0
   -1.2553    1.5360   -1.2213 H   0  0  0  0  0  0  0  0  0  0  0  0
   -1.0957    0.6303   -2.7364 H   0  0  0  0  0  0  0  0  0  0  0  0
    0.6059    0.4511   -1.3840 C   0  0  0  0  0  0  0  0  0  0  0  0
    1.1369    1.4077   -1.4469 H   0  0  0  0  0  0  0  0  0  0  0  0
    1.0495   -0.2315   -2.1163 H   0  0  0  0  0  0  0  0  0  0  0  0
    0.6651   -0.1933    0.0093 C   0  0  1  0  0  0  0  0  0  0  0  0
    1.5738   -0.7872    0.1446 H   0  0  0  0  0  0  0  0  0  0  0  0
    0.6817    1.0284    0.9648 C   0  0  0  0  0  0  0  0  0  0  0  0
   -0.3324    1.6526    1.2599 O   0  0  0  0  0  0  0  0  0  0  0  0
    1.8895    1.4501    1.4938 N   0  0  0  0  0  0  0  0  0  0  0  0
    2.7055    0.8744    1.3079 H   0  0  0  0  0  0  0  0  0  0  0  0
    2.0083    2.5490    2.4446 C   0  0  0  0  0  0  0  0  0  0  0  0
    1.4592    2.3208    3.3642 H   0  0  0  0  0  0  0  0  0  0  0  0
    3.0591    2.7156    2.7005 H   0  0  0  0  0  0  0  0  0  0  0  0
    1.6082    3.4733    2.0149 H   0  0  0  0  0  0  0  0  0  0  0  0
  1  2  1  0  0  0  0
  2  3  1  0  0  0  0
  2  4  1  0  0  0  0
  2  5  1  0  0  0  0
  5  6  2  0  0  0  0
  5  7  1  0  0  0  0
  7  8  1  0  0  0  0
  7 17  1  0  0  0  0
  8  9  1  0  0  0  0
  8 10  1  0  0  0  0
  8 11  1  0  0  0  0
 11 12  1  0  0  0  0
 11 13  1  0  0  0  0
 11 14  1  0  0  0  0
 14 15  1  0  0  0  0
 14 16  1  0  0  0  0
 14 17  1  0  0  0  0
 17 18  1  0  0  0  0
 17 19  1  0  0  0  0
 19 20  2  0  0  0  0
 19 21  1  0  0  0  0
 21 22  1  0  0  0  0
 21 23  1  0  0  0  0
 23 24  1  0  0  0  0
 23 25  1  0  0  0  0
 23 26  1  0  0  0  0
M  END
$$$$

  -OEChem-11182114133D

 26 26  0     1  0  0  0  0  0999 V2000
   -1.5749   -4.1641    0.6999 H   0  0  0  0  0  0  0  0  0  0  0  0
   -1.7601   -3.2440    0.1386 C   0  0  0  0  0  0  0  0  0  0  0  0
   -2.6002   -2.7211    0.6025 H   0  0  0  0  0  0  0  0  0  0  0  0
   -2.0224   -3.5076   -0.8884 H   0  0  0  0  0  0  0  0  0  0  0  0
   -0.5159   -2.3608    0.1579 C   0  0  0  0  0  0  0  0  0  0  0  0
    0.5488   -2.9146    0.4007 O   0  0  0  0  0  0  0  0  0  0  0  0
   -0.6038   -0.9669    0.0768 N   0  0  0  0  0  0  0  0  0  0  0  0
   -1.5434   -0.5730   -0.9819 C   0  0  0  0  0  0  0  0  0  0  0  0
   -2.5209   -0.3039   -0.5673 H   0  0  0  0  0  0  0  0  0  0  0  0
   -1.6848   -1.3566   -1.7350 H   0  0  0  0  0  0  0  0  0  0  0  0
   -0.8929    0.6111   -1.6439 C   0  0  0  0  0  0  0  0  0  0  0  0
   -1.2606    1.5348   -1.1840 H   0  0  0  0  0  0  0  0  0  0  0  0
   -1.1142    0.6503   -2.7149 H   0  0  0  0  0  0  0  0  0  0  0  0
    0.5999    0.4601   -1.3783 C   0  0  0  0  0  0  0  0  0  0  0  0
    1.1270    1.4186   -1.4420 H   0  0  0  0  0  0  0  0  0  0  0  0
    1.0386   -0.2160   -2.1194 H   0  0  0  0  0  0  0  0  0  0  0  0
    0.6712   -0.1976    0.0092 C   0  0  1  0  0  0  0  0  0  0  0  0
    1.5833   -0.7872    0.1412 H   0  0  0  0  0  0  0  0  0  0  0  0
    0.6815    1.0242    0.9651 C   0  0  0  0  0  0  0  0  0  0  0  0
   -0.3460    1.4952    1.4418 O   0  0  0  0  0  0  0  0  0  0  0  0
    1.8840    1.6477    1.2533 N   0  0  0  0  0  0  0  0  0  0  0  0
    2.7322    1.2093    0.9068 H   0  0  0  0  0  0  0  0  0  0  0  0
    2.0001    2.7815    2.1627 C   0  0  0  0  0  0  0  0  0  0  0  0
    1.6693    2.5009    3.1683 H   0  0  0  0  0  0  0  0  0  0  0  0
    3.0407    3.1149    2.2204 H   0  0  0  0  0  0  0  0  0  0  0  0
    1.3889    3.6195    1.8111 H   0  0  0  0  0  0  0  0  0  0  0  0
  1  2  1  0  0  0  0
  2  3  1  0  0  0  0
  2  4  1  0  0  0  0
  2  5  1  0  0  0  0
  5  6  2  0  0  0  0
  5  7  1  0  0  0  0
  7  8  1  0  0  0  0
  7 17  1  0  0  0  0
  8  9  1  0  0  0  0
  8 10  1  0  0  0  0
  8 11  1  0  0  0  0
 11 12  1  0  0  0  0
 11 13  1  0  0  0  0
 11 14  1  0  0  0  0
 14 15  1  0  0  0  0
 14 16  1  0  0  0  0
 14 17  1  0  0  0  0
 17 18  1  0  0  0  0
 17 19  1  0  0  0  0
 19 20  2  0  0  0  0
 19 21  1  0  0  0  0
 21 22  1  0  0  0  0
 21 23  1  0  0  0  0
 23 24  1  0  0  0  0
 23 25  1  0  0  0  0
 23 26  1  0  0  0  0
M  END
$$$$

  -OEChem-11182114133D

 26 26  0     1  0  0  0  0  0999 V2000
   -1.5641   -4.2040    0.4269 H   0  0  0  0  0  0  0  0  0  0  0  0
   -1.7612   -3.2201   -0.0078 C   0  0  0  0  0  0  0  0  0  0  0  0
   -2.5843   -2.7579    0.5429 H   0  0  0  0  0  0  0  0  0  0  0  0
   -2.0539   -3.3510   -1.0519 H   0  0  0  0  0  0  0  0  0  0  0  0
   -0.5141   -2.3479    0.0866 C   0  0  0  0  0  0  0  0  0  0  0  0
    0.5471   -2.9098    0.3251 O   0  0  0  0  0  0  0  0  0  0  0  0
   -0.5819   -0.9555    0.0117 N   0  0  0  0  0  0  0  0  0  0  0  0
   -1.6229   -0.4279   -0.8688 C   0  0  0  0  0  0  0  0  0  0  0  0
   -2.5626   -0.2622   -0.3310 H   0  0  0  0  0  0  0  0  0  0  0  0
   -1.8105   -1.0942   -1.7178 H   0  0  0  0  0  0  0  0  0  0  0  0
   -1.0503    0.8722   -1.3776 C   0  0  0  0  0  0  0  0  0  0  0  0
   -1.3700    1.6921   -0.7253 H   0  0  0  0  0  0  0  0  0  0  0  0
   -1.3797    1.0923   -2.3976 H   0  0  0  0  0  0  0  0  0  0  0  0
    0.4615    0.7046   -1.2886 C   0  0  0  0  0  0  0  0  0  0  0  0
    0.9746    1.6705   -1.2398 H   0  0  0  0  0  0  0  0  0  0  0  0
    0.8244    0.1737   -2.1749 H   0  0  0  0  0  0  0  0  0  0  0  0
    0.6801   -0.1767   -0.0479 C   0  0  1  0  0  0  0  0  0  0  0  0
    1.5845   -0.7846   -0.1480 H   0  0  0  0  0  0  0  0  0  0  0  0
    0.8354    0.8034    1.1444 C   0  0  0  0  0  0  0  0  0  0  0  0
   -0.0479    0.9545    1.9812 O   0  0  0  0  0  0  0  0  0  0  0  0
    1.9635    1.6029    1.2361 N   0  0  0  0  0  0  0  0  0  0  0  0
    2.7138    1.4301    0.5742 H   0  0  0  0  0  0  0  0  0  0  0  0
    2.1951    2.5355    2.3328 C   0  0  0  0  0  0  0  0  0  0  0  0
    2.2405    2.0002    3.2871 H   0  0  0  0  0  0  0  0  0  0  0  0
    3.1418    3.0641    2.1866 H   0  0  0  0  0  0  0  0  0  0  0  0
    1.3905    3.2768    2.3822 H   0  0  0  0  0  0  0  0  0  0  0  0
  1  2  1  0  0  0  0
  2  3  1  0  0  0  0
  2  4  1  0  0  0  0
  2  5  1  0  0  0  0
  5  6  2  0  0  0  0
  5  7  1  0  0  0  0
  7  8  1  0  0  0  0
  7 17  1  0  0  0  0
  8  9  1  0  0  0  0
  8 10  1  0  0  0  0
  8 11  1  0  0  0  0
 11 12  1  0  0  0  0
 11 13  1  0  0  0  0
 11 14  1  0  0  0  0
 14 15  1  0  0  0  0
 14 16  1  0  0  0  0
 14 17  1  0  0  0  0
 17 18  1  0  0  0  0
 17 19  1  0  0  0  0
 19 20  2  0  0  0  0
 19 21  1  0  0  0  0
 21 22  1  0  0  0  0
 21 23  1  0  0  0  0
 23 24  1  0  0  0  0
 23 25  1  0  0  0  0
 23 26  1  0  0  0  0
M  END
$$$$

  -OEChem-11182114133D

 26 26  0     1  0  0  0  0  0999 V2000
   -1.5450   -4.1914    0.4603 H   0  0  0  0  0  0  0  0  0  0  0  0
   -1.7540   -3.2105    0.0244 C   0  0  0  0  0  0  0  0  0  0  0  0
   -2.5595   -2.7434    0.5965 H   0  0  0  0  0  0  0  0  0  0  0  0
   -2.0787   -3.3486   -1.0092 H   0  0  0  0  0  0  0  0  0  0  0  0
   -0.5041   -2.3391    0.0752 C   0  0  0  0  0  0  0  0  0  0  0  0
    0.5642   -2.9034    0.2721 O   0  0  0  0  0  0  0  0  0  0  0  0
   -0.5770   -0.9463    0.0032 N   0  0  0  0  0  0  0  0  0  0  0  0
   -1.6261   -0.4328   -0.8754 C   0  0  0  0  0  0  0  0  0  0  0  0
   -2.5620   -0.2627   -0.3326 H   0  0  0  0  0  0  0  0  0  0  0  0
   -1.8195   -1.1103   -1.7145 H   0  0  0  0  0  0  0  0  0  0  0  0
   -1.0593    0.8598   -1.4053 C   0  0  0  0  0  0  0  0  0  0  0  0
   -1.3780    1.6884   -0.7635 H   0  0  0  0  0  0  0  0  0  0  0  0
   -1.3944    1.0645   -2.4270 H   0  0  0  0  0  0  0  0  0  0  0  0
    0.4530    0.6976   -1.3215 C   0  0  0  0  0  0  0  0  0  0  0  0
    0.9633    1.6649   -1.3060 H   0  0  0  0  0  0  0  0  0  0  0  0
    0.8085    0.1486   -2.1997 H   0  0  0  0  0  0  0  0  0  0  0  0
    0.6850   -0.1665   -0.0676 C   0  0  1  0  0  0  0  0  0  0  0  0
    1.5919   -0.7708   -0.1670 H   0  0  0  0  0  0  0  0  0  0  0  0
    0.8387    0.8088    1.1327 C   0  0  0  0  0  0  0  0  0  0  0  0
    0.1063    0.7404    2.1132 O   0  0  0  0  0  0  0  0  0  0  0  0
    1.7756    1.8308    1.1019 N   0  0  0  0  0  0  0  0  0  0  0  0
    2.4216    1.8485    0.3191 H   0  0  0  0  0  0  0  0  0  0  0  0
    1.9843    2.7615    2.2053 C   0  0  0  0  0  0  0  0  0  0  0  0
    2.2810    2.2213    3.1107 H   0  0  0  0  0  0  0  0  0  0  0  0
    2.7742    3.4758    1.9538 H   0  0  0  0  0  0  0  0  0  0  0  0
    1.0664    3.3214    2.4134 H   0  0  0  0  0  0  0  0  0  0  0  0
  1  2  1  0  0  0  0
  2  3  1  0  0  0  0
  2  4  1  0  0  0  0
  2  5  1  0  0  0  0
  5  6  2  0  0  0  0
  5  7  1  0  0  0  0
  7  8  1  0  0  0  0
  7 17  1  0  0  0  0
  8  9  1  0  0  0  0
  8 10  1  0  0  0  0
  8 11  1  0  0  0  0
 11 12  1  0  0  0  0
 11 13  1  0  0  0  0
 11 14  1  0  0  0  0
 14 15  1  0  0  0  0
 14 16  1  0  0  0  0
 14 17  1  0  0  0  0
 17 18  1  0  0  0  0
 17 19  1  0  0  0  0
 19 20  2  0  0  0  0
 19 21  1  0  0  0  0
 21 22  1  0  0  0  0
 21 23  1  0  0  0  0
 23 24  1  0  0  0  0
 23 25  1  0  0  0  0
 23 26  1  0  0  0  0
M  END
$$$$

  -OEChem-11182114133D

 26 26  0     1  0  0  0  0  0999 V2000
   -1.5286   -4.1748    0.4977 H   0  0  0  0  0  0  0  0  0  0  0  0
   -1.7511   -3.1946    0.0669 C   0  0  0  0  0  0  0  0  0  0  0  0
   -2.5308   -2.7219    0.6694 H   0  0  0  0  0  0  0  0  0  0  0  0
   -2.1182   -3.3358   -0.9520 H   0  0  0  0  0  0  0  0  0  0  0  0
   -0.4963   -2.3282    0.0648 C   0  0  0  0  0  0  0  0  0  0  0  0
    0.5764   -2.8988    0.2124 O   0  0  0  0  0  0  0  0  0  0  0  0
   -0.5699   -0.9347   -0.0059 N   0  0  0  0  0  0  0  0  0  0  0  0
   -1.6247   -0.4345   -0.8857 C   0  0  0  0  0  0  0  0  0  0  0  0
   -2.5560   -0.2525   -0.3390 H   0  0  0  0  0  0  0  0  0  0  0  0
   -1.8266   -1.1257   -1.7117 H   0  0  0  0  0  0  0  0  0  0  0  0
   -1.0595    0.8462   -1.4439 C   0  0  0  0  0  0  0  0  0  0  0  0
   -1.3724    1.6877   -0.8164 H   0  0  0  0  0  0  0  0  0  0  0  0
   -1.4011    1.0315   -2.4671 H   0  0  0  0  0  0  0  0  0  0  0  0
    0.4530    0.6836   -1.3672 C   0  0  0  0  0  0  0  0  0  0  0  0
    0.9689    1.6468   -1.3875 H   0  0  0  0  0  0  0  0  0  0  0  0
    0.7977    0.1112   -2.2348 H   0  0  0  0  0  0  0  0  0  0  0  0
    0.6932   -0.1575   -0.0976 C   0  0  1  0  0  0  0  0  0  0  0  0
    1.6007   -0.7612   -0.1945 H   0  0  0  0  0  0  0  0  0  0  0  0
    0.8443    0.8097    1.1130 C   0  0  0  0  0  0  0  0  0  0  0  0
    0.3278    0.5483    2.1931 O   0  0  0  0  0  0  0  0  0  0  0  0
    1.5275    2.0133    1.0148 N   0  0  0  0  0  0  0  0  0  0  0  0
    2.0095    2.2081    0.1434 H   0  0  0  0  0  0  0  0  0  0  0  0
    1.6960    2.9370    2.1311 C   0  0  0  0  0  0  0  0  0  0  0  0
    2.2354    2.4523    2.9517 H   0  0  0  0  0  0  0  0  0  0  0  0
    2.2664    3.8149    1.8131 H   0  0  0  0  0  0  0  0  0  0  0  0
    0.7215    3.2741    2.4998 H   0  0  0  0  0  0  0  0  0  0  0  0
  1  2  1  0  0  0  0
  2  3  1  0  0  0  0
  2  4  1  0  0  0  0
  2  5  1  0  0  0  0
  5  6  2  0  0  0  0
  5  7  1  0  0  0  0
  7  8  1  0  0  0  0
  7 17  1  0  0  0  0
  8  9  1  0  0  0  0
  8 10  1  0  0  0  0
  8 11  1  0  0  0  0
 11 12  1  0  0  0  0
 11 13  1  0  0  0  0
 11 14  1  0  0  0  0
 14 15  1  0  0  0  0
 14 16  1  0  0  0  0
 14 17  1  0  0  0  0
 17 18  1  0  0  0  0
 17 19  1  0  0  0  0
 19 20  2  0  0  0  0
 19 21  1  0  0  0  0
 21 22  1  0  0  0  0
 21 23  1  0  0  0  0
 23 24  1  0  0  0  0
 23 25  1  0  0  0  0
 23 26  1  0  0  0  0
M  END
$$$$

  -OEChem-11182114133D

 26 26  0     1  0  0  0  0  0999 V2000
   -1.5225   -4.1484    0.5576 H   0  0  0  0  0  0  0  0  0  0  0  0
   -1.7496   -3.1776    0.1083 C   0  0  0  0  0  0  0  0  0  0  0  0
   -2.5170   -2.6884    0.7134 H   0  0  0  0  0  0  0  0  0  0  0  0
   -2.1345   -3.3401   -0.9008 H   0  0  0  0  0  0  0  0  0  0  0  0
   -0.4920   -2.3167    0.0642 C   0  0  0  0  0  0  0  0  0  0  0  0
    0.5820   -2.8924    0.1763 O   0  0  0  0  0  0  0  0  0  0  0  0
   -0.5656   -0.9230   -0.0120 N   0  0  0  0  0  0  0  0  0  0  0  0
   -1.6193   -0.4373   -0.9025 C   0  0  0  0  0  0  0  0  0  0  0  0
   -2.5496   -0.2417   -0.3586 H   0  0  0  0  0  0  0  0  0  0  0  0
   -1.8247   -1.1448   -1.7136 H   0  0  0  0  0  0  0  0  0  0  0  0
   -1.0514    0.8306   -1.4883 C   0  0  0  0  0  0  0  0  0  0  0  0
   -1.3629    1.6866   -0.8803 H   0  0  0  0  0  0  0  0  0  0  0  0
   -1.3927    0.9933   -2.5155 H   0  0  0  0  0  0  0  0  0  0  0  0
    0.4610    0.6668   -1.4098 C   0  0  0  0  0  0  0  0  0  0  0  0
    0.9887    1.6222   -1.4560 H   0  0  0  0  0  0  0  0  0  0  0  0
    0.7999    0.0704   -2.2637 H   0  0  0  0  0  0  0  0  0  0  0  0
    0.6970   -0.1480   -0.1236 C   0  0  1  0  0  0  0  0  0  0  0  0
    1.6053   -0.7524   -0.2095 H   0  0  0  0  0  0  0  0  0  0  0  0
    0.8379    0.8151    1.0924 C   0  0  0  0  0  0  0  0  0  0  0  0
    0.5815    0.4155    2.2216 O   0  0  0  0  0  0  0  0  0  0  0  0
    1.2276    2.1416    0.9703 N   0  0  0  0  0  0  0  0  0  0  0  0
    1.4746    2.4763    0.0454 H   0  0  0  0  0  0  0  0  0  0  0  0
    1.3635    3.0495    2.1040 C   0  0  0  0  0  0  0  0  0  0  0  0
    2.1092    2.6710    2.8111 H   0  0  0  0  0  0  0  0  0  0  0  0
    1.6828    4.0382    1.7611 H   0  0  0  0  0  0  0  0  0  0  0  0
    0.4063    3.1572    2.6251 H   0  0  0  0  0  0  0  0  0  0  0  0
  1  2  1  0  0  0  0
  2  3  1  0  0  0  0
  2  4  1  0  0  0  0
  2  5  1  0  0  0  0
  5  6  2  0  0  0  0
  5  7  1  0  0  0  0
  7  8  1  0  0  0  0
  7 17  1  0  0  0  0
  8  9  1  0  0  0  0
  8 10  1  0  0  0  0
  8 11  1  0  0  0  0
 11 12  1  0  0  0  0
 11 13  1  0  0  0  0
 11 14  1  0  0  0  0
 14 15  1  0  0  0  0
 14 16  1  0  0  0  0
 14 17  1  0  0  0  0
 17 18  1  0  0  0  0
 17 19  1  0  0  0  0
 19 20  2  0  0  0  0
 19 21  1  0  0  0  0
 21 22  1  0  0  0  0
 21 23  1  0  0  0  0
 23 24  1  0  0  0  0
 23 25  1  0  0  0  0
 23 26  1  0  0  0  0
M  END
$$$$

  -OEChem-11182114133D

 26 26  0     1  0  0  0  0  0999 V2000
   -1.5257   -4.1405    0.5770 H   0  0  0  0  0  0  0  0  0  0  0  0
   -1.7507   -3.1730    0.1189 C   0  0  0  0  0  0  0  0  0  0  0  0
   -2.5209   -2.6791    0.7166 H   0  0  0  0  0  0  0  0  0  0  0  0
   -2.1313   -3.3436   -0.8906 H   0  0  0  0  0  0  0  0  0  0  0  0
   -0.4927   -2.3124    0.0721 C   0  0  0  0  0  0  0  0  0  0  0  0
    0.5802   -2.8895    0.1811 O   0  0  0  0  0  0  0  0  0  0  0  0
   -0.5663   -0.9186   -0.0098 N   0  0  0  0  0  0  0  0  0  0  0  0
   -1.6124   -0.4414   -0.9153 C   0  0  0  0  0  0  0  0  0  0  0  0
   -2.5481   -0.2409   -0.3827 H   0  0  0  0  0  0  0  0  0  0  0  0
   -1.8102   -1.1571   -1.7214 H   0  0  0  0  0  0  0  0  0  0  0  0
   -1.0417    0.8216   -1.5122 C   0  0  0  0  0  0  0  0  0  0  0  0
   -1.3584    1.6836   -0.9160 H   0  0  0  0  0  0  0  0  0  0  0  0
   -1.3780    0.9719   -2.5429 H   0  0  0  0  0  0  0  0  0  0  0  0
    0.4707    0.6568   -1.4251 C   0  0  0  0  0  0  0  0  0  0  0  0
    1.0080    1.6074   -1.4730 H   0  0  0  0  0  0  0  0  0  0  0  0
    0.8133    0.0516   -2.2712 H   0  0  0  0  0  0  0  0  0  0  0  0
    0.6948   -0.1442   -0.1306 C   0  0  1  0  0  0  0  0  0  0  0  0
    1.6035   -0.7498   -0.2067 H   0  0  0  0  0  0  0  0  0  0  0  0
    0.8296    0.8188    1.0840 C   0  0  0  0  0  0  0  0  0  0  0  0
    0.8571    0.3573    2.2174 O   0  0  0  0  0  0  0  0  0  0  0  0
    0.9136    2.1991    0.9635 N   0  0  0  0  0  0  0  0  0  0  0  0
    0.8614    2.5936    0.0309 H   0  0  0  0  0  0  0  0  0  0  0  0
    1.0159    3.1029    2.1036 C   0  0  0  0  0  0  0  0  0  0  0  0
    1.9165    2.8839    2.6868 H   0  0  0  0  0  0  0  0  0  0  0  0
    1.0709    4.1404    1.7606 H   0  0  0  0  0  0  0  0  0  0  0  0
    0.1410    2.9994    2.7538 H   0  0  0  0  0  0  0  0  0  0  0  0
  1  2  1  0  0  0  0
  2  3  1  0  0  0  0
  2  4  1  0  0  0  0
  2  5  1  0  0  0  0
  5  6  2  0  0  0  0
  5  7  1  0  0  0  0
  7  8  1  0  0  0  0
  7 17  1  0  0  0  0
  8  9  1  0  0  0  0
  8 10  1  0  0  0  0
  8 11  1  0  0  0  0
 11 12  1  0  0  0  0
 11 13  1  0  0  0  0
 11 14  1  0  0  0  0
 14 15  1  0  0  0  0
 14 16  1  0  0  0  0
 14 17  1  0  0  0  0
 17 18  1  0  0  0  0
 17 19  1  0  0  0  0
 19 20  2  0  0  0  0
 19 21  1  0  0  0  0
 21 22  1  0  0  0  0
 21 23  1  0  0  0  0
 23 24  1  0  0  0  0
 23 25  1  0  0  0  0
 23 26  1  0  0  0  0
M  END
$$$$

  -OEChem-11182114133D

 26 26  0     1  0  0  0  0  0999 V2000
   -1.5303   -4.1460    0.5743 H   0  0  0  0  0  0  0  0  0  0  0  0
   -1.7509   -3.1849    0.1013 C   0  0  0  0  0  0  0  0  0  0  0  0
   -2.5383   -2.6907    0.6755 H   0  0  0  0  0  0  0  0  0  0  0  0
   -2.1064   -3.3686   -0.9149 H   0  0  0  0  0  0  0  0  0  0  0  0
   -0.4973   -2.3171    0.0753 C   0  0  0  0  0  0  0  0  0  0  0  0
    0.5756   -2.8885    0.2068 O   0  0  0  0  0  0  0  0  0  0  0  0
   -0.5771   -0.9233   -0.0074 N   0  0  0  0  0  0  0  0  0  0  0  0
   -1.6121   -0.4540   -0.9311 C   0  0  0  0  0  0  0  0  0  0  0  0
   -2.5575   -0.2596   -0.4136 H   0  0  0  0  0  0  0  0  0  0  0  0
   -1.7923   -1.1729   -1.7385 H   0  0  0  0  0  0  0  0  0  0  0  0
   -1.0429    0.8130   -1.5229 C   0  0  0  0  0  0  0  0  0  0  0  0
   -1.3783    1.6747   -0.9375 H   0  0  0  0  0  0  0  0  0  0  0  0
   -1.3636    0.9561   -2.5597 H   0  0  0  0  0  0  0  0  0  0  0  0
    0.4699    0.6559   -1.4140 C   0  0  0  0  0  0  0  0  0  0  0  0
    1.0029    1.6111   -1.4427 H   0  0  0  0  0  0  0  0  0  0  0  0
    0.8311    0.0565   -2.2565 H   0  0  0  0  0  0  0  0  0  0  0  0
    0.6803   -0.1418   -0.1164 C   0  0  1  0  0  0  0  0  0  0  0  0
    1.5913   -0.7452   -0.1837 H   0  0  0  0  0  0  0  0  0  0  0  0
    0.8084    0.8248    1.0933 C   0  0  0  0  0  0  0  0  0  0  0  0
    1.1139    0.3756    2.1895 O   0  0  0  0  0  0  0  0  0  0  0  0
    0.5899    2.1923    1.0038 N   0  0  0  0  0  0  0  0  0  0  0  0
    0.2973    2.5604    0.1054 H   0  0  0  0  0  0  0  0  0  0  0  0
    0.6860    3.1008    2.1404 C   0  0  0  0  0  0  0  0  0  0  0  0
    1.6898    3.0637    2.5768 H   0  0  0  0  0  0  0  0  0  0  0  0
    0.4867    4.1282    1.8213 H   0  0  0  0  0  0  0  0  0  0  0  0
   -0.0436    2.8291    2.9105 H   0  0  0  0  0  0  0  0  0  0  0  0
  1  2  1  0  0  0  0
  2  3  1  0  0  0  0
  2  4  1  0  0  0  0
  2  5  1  0  0  0  0
  5  6  2  0  0  0  0
  5  7  1  0  0  0  0
  7  8  1  0  0  0  0
  7 17  1  0  0  0  0
  8  9  1  0  0  0  0
  8 10  1  0  0  0  0
  8 11  1  0  0  0  0
 11 12  1  0  0  0  0
 11 13  1  0  0  0  0
 11 14  1  0  0  0  0
 14 15  1  0  0  0  0
 14 16  1  0  0  0  0
 14 17  1  0  0  0  0
 17 18  1  0  0  0  0
 17 19  1  0  0  0  0
 19 20  2  0  0  0  0
 19 21  1  0  0  0  0
 21 22  1  0  0  0  0
 21 23  1  0  0  0  0
 23 24  1  0  0  0  0
 23 25  1  0  0  0  0
 23 26  1  0  0  0  0
M  END
$$$$

  -OEChem-11182114133D

 26 26  0     1  0  0  0  0  0999 V2000
   -1.5362   -4.1679    0.5414 H   0  0  0  0  0  0  0  0  0  0  0  0
   -1.7528   -3.2080    0.0639 C   0  0  0  0  0  0  0  0  0  0  0  0
   -2.5616   -2.7232    0.6160 H   0  0  0  0  0  0  0  0  0  0  0  0
   -2.0769   -3.3937   -0.9623 H   0  0  0  0  0  0  0  0  0  0  0  0
   -0.5075   -2.3277    0.0755 C   0  0  0  0  0  0  0  0  0  0  0  0
    0.5644   -2.8892    0.2480 O   0  0  0  0  0  0  0  0  0  0  0  0
   -0.5968   -0.9339   -0.0039 N   0  0  0  0  0  0  0  0  0  0  0  0
   -1.6166   -0.4727   -0.9502 C   0  0  0  0  0  0  0  0  0  0  0  0
   -2.5760   -0.2915   -0.4541 H   0  0  0  0  0  0  0  0  0  0  0  0
   -1.7701   -1.1915   -1.7632 H   0  0  0  0  0  0  0  0  0  0  0  0
   -1.0515    0.8028   -1.5287 C   0  0  0  0  0  0  0  0  0  0  0  0
   -1.4145    1.6613   -0.9569 H   0  0  0  0  0  0  0  0  0  0  0  0
   -1.3492    0.9391   -2.5732 H   0  0  0  0  0  0  0  0  0  0  0  0
    0.4605    0.6565   -1.3882 C   0  0  0  0  0  0  0  0  0  0  0  0
    0.9801    1.6203   -1.3888 H   0  0  0  0  0  0  0  0  0  0  0  0
    0.8488    0.0698   -2.2276 H   0  0  0  0  0  0  0  0  0  0  0  0
    0.6564   -0.1422   -0.0902 C   0  0  1  0  0  0  0  0  0  0  0  0
    1.5691   -0.7439   -0.1524 H   0  0  0  0  0  0  0  0  0  0  0  0
    0.7857    0.8303    1.1124 C   0  0  0  0  0  0  0  0  0  0  0  0
    1.3657    0.4584    2.1230 O   0  0  0  0  0  0  0  0  0  0  0  0
    0.2890    2.1253    1.0982 N   0  0  0  0  0  0  0  0  0  0  0  0
   -0.2173    2.4211    0.2711 H   0  0  0  0  0  0  0  0  0  0  0  0
    0.3944    3.0411    2.2279 C   0  0  0  0  0  0  0  0  0  0  0  0
    1.4445    3.2036    2.4931 H   0  0  0  0  0  0  0  0  0  0  0  0
   -0.0503    4.0079    1.9741 H   0  0  0  0  0  0  0  0  0  0  0  0
   -0.1307    2.6360    3.0992 H   0  0  0  0  0  0  0  0  0  0  0  0
  1  2  1  0  0  0  0
  2  3  1  0  0  0  0
  2  4  1  0  0  0  0
  2  5  1  0  0  0  0
  5  6  2  0  0  0  0
  5  7  1  0  0  0  0
  7  8  1  0  0  0  0
  7 17  1  0  0  0  0
  8  9  1  0  0  0  0
  8 10  1  0  0  0  0
  8 11  1  0  0  0  0
 11 12  1  0  0  0  0
 11 13  1  0  0  0  0
 11 14  1  0  0  0  0
 14 15  1  0  0  0  0
 14 16  1  0  0  0  0
 14 17  1  0  0  0  0
 17 18  1  0  0  0  0
 17 19  1  0  0  0  0
 19 20  2  0  0  0  0
 19 21  1  0  0  0  0
 21 22  1  0  0  0  0
 21 23  1  0  0  0  0
 23 24  1  0  0  0  0
 23 25  1  0  0  0  0
 23 26  1  0  0  0  0
M  END
$$$$

  -OEChem-11182114133D

 26 26  0     1  0  0  0  0  0999 V2000
   -1.5531   -4.1946    0.4790 H   0  0  0  0  0  0  0  0  0  0  0  0
   -1.7558   -3.2307    0.0033 C   0  0  0  0  0  0  0  0  0  0  0  0
   -2.5966   -2.7616    0.5200 H   0  0  0  0  0  0  0  0  0  0  0  0
   -2.0262   -3.4069   -1.0403 H   0  0  0  0  0  0  0  0  0  0  0  0
   -0.5217   -2.3379    0.0873 C   0  0  0  0  0  0  0  0  0  0  0  0
    0.5407   -2.8887    0.3343 O   0  0  0  0  0  0  0  0  0  0  0  0
   -0.6147   -0.9438    0.0079 N   0  0  0  0  0  0  0  0  0  0  0  0
   -1.6216   -0.4830   -0.9546 C   0  0  0  0  0  0  0  0  0  0  0  0
   -2.5891   -0.3068   -0.4728 H   0  0  0  0  0  0  0  0  0  0  0  0
   -1.7604   -1.1994   -1.7723 H   0  0  0  0  0  0  0  0  0  0  0  0
   -1.0548    0.7965   -1.5245 C   0  0  0  0  0  0  0  0  0  0  0  0
   -1.4308    1.6573   -0.9661 H   0  0  0  0  0  0  0  0  0  0  0  0
   -1.3357    0.9275   -2.5742 H   0  0  0  0  0  0  0  0  0  0  0  0
    0.4550    0.6520   -1.3631 C   0  0  0  0  0  0  0  0  0  0  0  0
    0.9667    1.6204   -1.3426 H   0  0  0  0  0  0  0  0  0  0  0  0
    0.8609    0.0744   -2.2004 H   0  0  0  0  0  0  0  0  0  0  0  0
    0.6380   -0.1481   -0.0658 C   0  0  1  0  0  0  0  0  0  0  0  0
    1.5491   -0.7531   -0.1270 H   0  0  0  0  0  0  0  0  0  0  0  0
    0.7762    0.8310    1.1279 C   0  0  0  0  0  0  0  0  0  0  0  0
    1.6165    0.6113    1.9890 O   0  0  0  0  0  0  0  0  0  0  0  0
    0.0397    2.0007    1.2295 N   0  0  0  0  0  0  0  0  0  0  0  0
   -0.7042    2.1358    0.5550 H   0  0  0  0  0  0  0  0  0  0  0  0
    0.1418    2.9183    2.3580 C   0  0  0  0  0  0  0  0  0  0  0  0
    1.1671    3.2897    2.4592 H   0  0  0  0  0  0  0  0  0  0  0  0
   -0.5213    3.7758    2.2097 H   0  0  0  0  0  0  0  0  0  0  0  0
   -0.1443    2.4151    3.2875 H   0  0  0  0  0  0  0  0  0  0  0  0
  1  2  1  0  0  0  0
  2  3  1  0  0  0  0
  2  4  1  0  0  0  0
  2  5  1  0  0  0  0
  5  6  2  0  0  0  0
  5  7  1  0  0  0  0
  7  8  1  0  0  0  0
  7 17  1  0  0  0  0
  8  9  1  0  0  0  0
  8 10  1  0  0  0  0
  8 11  1  0  0  0  0
 11 12  1  0  0  0  0
 11 13  1  0  0  0  0
 11 14  1  0  0  0  0
 14 15  1  0  0  0  0
 14 16  1  0  0  0  0
 14 17  1  0  0  0  0
 17 18  1  0  0  0  0
 17 19  1  0  0  0  0
 19 20  2  0  0  0  0
 19 21  1  0  0  0  0
 21 22  1  0  0  0  0
 21 23  1  0  0  0  0
 23 24  1  0  0  0  0
 23 25  1  0  0  0  0
 23 26  1  0  0  0  0
M  END
$$$$

  -OEChem-11182114133D

 26 26  0     1  0  0  0  0  0999 V2000
   -1.5715   -4.2161    0.4279 H   0  0  0  0  0  0  0  0  0  0  0  0
   -1.7565   -3.2523   -0.0551 C   0  0  0  0  0  0  0  0  0  0  0  0
   -2.6220   -2.7878    0.4237 H   0  0  0  0  0  0  0  0  0  0  0  0
   -1.9784   -3.4287   -1.1101 H   0  0  0  0  0  0  0  0  0  0  0  0
   -0.5309   -2.3546    0.0849 C   0  0  0  0  0  0  0  0  0  0  0  0
    0.5212   -2.8998    0.3820 O   0  0  0  0  0  0  0  0  0  0  0  0
   -0.6232   -0.9602    0.0141 N   0  0  0  0  0  0  0  0  0  0  0  0
   -1.6227   -0.4832   -0.9492 C   0  0  0  0  0  0  0  0  0  0  0  0
   -2.5943   -0.3154   -0.4725 H   0  0  0  0  0  0  0  0  0  0  0  0
   -1.7542   -1.1874   -1.7785 H   0  0  0  0  0  0  0  0  0  0  0  0
   -1.0530    0.8068   -1.4969 C   0  0  0  0  0  0  0  0  0  0  0  0
   -1.4246    1.6619   -0.9258 H   0  0  0  0  0  0  0  0  0  0  0  0
   -1.3300    0.9564   -2.5454 H   0  0  0  0  0  0  0  0  0  0  0  0
    0.4547    0.6574   -1.3325 C   0  0  0  0  0  0  0  0  0  0  0  0
    0.9637    1.6265   -1.2882 H   0  0  0  0  0  0  0  0  0  0  0  0
    0.8654    0.0965   -2.1786 H   0  0  0  0  0  0  0  0  0  0  0  0
    0.6290   -0.1635   -0.0485 C   0  0  1  0  0  0  0  0  0  0  0  0
    1.5389   -0.7702   -0.1126 H   0  0  0  0  0  0  0  0  0  0  0  0
    0.7665    0.8086    1.1480 C   0  0  0  0  0  0  0  0  0  0  0  0
    1.7926    0.8043    1.8142 O   0  0  0  0  0  0  0  0  0  0  0  0
   -0.1706    1.7972    1.3984 N   0  0  0  0  0  0  0  0  0  0  0  0
   -1.0556    1.7122    0.9103 H   0  0  0  0  0  0  0  0  0  0  0  0
   -0.0663    2.7378    2.5071 C   0  0  0  0  0  0  0  0  0  0  0  0
    0.8677    3.3059    2.4412 H   0  0  0  0  0  0  0  0  0  0  0  0
   -0.9007    3.4450    2.4819 H   0  0  0  0  0  0  0  0  0  0  0  0
   -0.0889    2.2059    3.4639 H   0  0  0  0  0  0  0  0  0  0  0  0
  1  2  1  0  0  0  0
  2  3  1  0  0  0  0
  2  4  1  0  0  0  0
  2  5  1  0  0  0  0
  5  6  2  0  0  0  0
  5  7  1  0  0  0  0
  7  8  1  0  0  0  0
  7 17  1  0  0  0  0
  8  9  1  0  0  0  0
  8 10  1  0  0  0  0
  8 11  1  0  0  0  0
 11 12  1  0  0  0  0
 11 13  1  0  0  0  0
 11 14  1  0  0  0  0
 14 15  1  0  0  0  0
 14 16  1  0  0  0  0
 14 17  1  0  0  0  0
 17 18  1  0  0  0  0
 17 19  1  0  0  0  0
 19 20  2  0  0  0  0
 19 21  1  0  0  0  0
 21 22  1  0  0  0  0
 21 23  1  0  0  0  0
 23 24  1  0  0  0  0
 23 25  1  0  0  0  0
 23 26  1  0  0  0  0
M  END
$$$$

  -OEChem-11182114133D

 26 26  0     1  0  0  0  0  0999 V2000
   -1.5802   -4.2405    0.3669 H   0  0  0  0  0  0  0  0  0  0  0  0
   -1.7592   -3.2670   -0.0986 C   0  0  0  0  0  0  0  0  0  0  0  0
   -2.6367   -2.8166    0.3714 H   0  0  0  0  0  0  0  0  0  0  0  0
   -1.9576   -3.4210   -1.1617 H   0  0  0  0  0  0  0  0  0  0  0  0
   -0.5407   -2.3682    0.0871 C   0  0  0  0  0  0  0  0  0  0  0  0
    0.4996   -2.9102    0.4286 O   0  0  0  0  0  0  0  0  0  0  0  0
   -0.6271   -0.9738    0.0165 N   0  0  0  0  0  0  0  0  0  0  0  0
   -1.6263   -0.4765   -0.9363 C   0  0  0  0  0  0  0  0  0  0  0  0
   -2.5961   -0.3094   -0.4556 H   0  0  0  0  0  0  0  0  0  0  0  0
   -1.7639   -1.1670   -1.7758 H   0  0  0  0  0  0  0  0  0  0  0  0
   -1.0489    0.8187   -1.4653 C   0  0  0  0  0  0  0  0  0  0  0  0
   -1.4057    1.6649   -0.8707 H   0  0  0  0  0  0  0  0  0  0  0  0
   -1.3328    0.9924   -2.5081 H   0  0  0  0  0  0  0  0  0  0  0  0
    0.4581    0.6579   -1.3118 C   0  0  0  0  0  0  0  0  0  0  0  0
    0.9731    1.6234   -1.2532 H   0  0  0  0  0  0  0  0  0  0  0  0
    0.8625    0.1080   -2.1681 H   0  0  0  0  0  0  0  0  0  0  0  0
    0.6295   -0.1835   -0.0422 C   0  0  1  0  0  0  0  0  0  0  0  0
    1.5365   -0.7940   -0.1117 H   0  0  0  0  0  0  0  0  0  0  0  0
    0.7702    0.7870    1.1524 C   0  0  0  0  0  0  0  0  0  0  0  0
    1.8749    0.9990    1.6338 O   0  0  0  0  0  0  0  0  0  0  0  0
   -0.2951    1.5641    1.5743 N   0  0  0  0  0  0  0  0  0  0  0  0
   -1.2097    1.2925    1.2280 H   0  0  0  0  0  0  0  0  0  0  0  0
   -0.2107    2.5022    2.6869 C   0  0  0  0  0  0  0  0  0  0  0  0
    0.5580    3.2580    2.4941 H   0  0  0  0  0  0  0  0  0  0  0  0
   -1.1684    3.0133    2.8235 H   0  0  0  0  0  0  0  0  0  0  0  0
    0.0382    1.9755    3.6142 H   0  0  0  0  0  0  0  0  0  0  0  0
  1  2  1  0  0  0  0
  2  3  1  0  0  0  0
  2  4  1  0  0  0  0
  2  5  1  0  0  0  0
  5  6  2  0  0  0  0
  5  7  1  0  0  0  0
  7  8  1  0  0  0  0
  7 17  1  0  0  0  0
  8  9  1  0  0  0  0
  8 10  1  0  0  0  0
  8 11  1  0  0  0  0
 11 12  1  0  0  0  0
 11 13  1  0  0  0  0
 11 14  1  0  0  0  0
 14 15  1  0  0  0  0
 14 16  1  0  0  0  0
 14 17  1  0  0  0  0
 17 18  1  0  0  0  0
 17 19  1  0  0  0  0
 19 20  2  0  0  0  0
 19 21  1  0  0  0  0
 21 22  1  0  0  0  0
 21 23  1  0  0  0  0
 23 24  1  0  0  0  0
 23 25  1  0  0  0  0
 23 26  1  0  0  0  0
M  END
$$$$

  -OEChem-11182114133D

 26 26  0     1  0  0  0  0  0999 V2000
   -1.5935   -4.2547    0.3187 H   0  0  0  0  0  0  0  0  0  0  0  0
   -1.7636   -3.2737   -0.1340 C   0  0  0  0  0  0  0  0  0  0  0  0
   -2.6482   -2.8294    0.3285 H   0  0  0  0  0  0  0  0  0  0  0  0
   -1.9445   -3.4106   -1.2026 H   0  0  0  0  0  0  0  0  0  0  0  0
   -0.5475   -2.3795    0.0853 C   0  0  0  0  0  0  0  0  0  0  0  0
    0.4820   -2.9226    0.4562 O   0  0  0  0  0  0  0  0  0  0  0  0
   -0.6247   -0.9850    0.0147 N   0  0  0  0  0  0  0  0  0  0  0  0
   -1.6277   -0.4668   -0.9211 C   0  0  0  0  0  0  0  0  0  0  0  0
   -2.5927   -0.3004   -0.4308 H   0  0  0  0  0  0  0  0  0  0  0  0
   -1.7754   -1.1434   -1.7700 H   0  0  0  0  0  0  0  0  0  0  0  0
   -1.0438    0.8322   -1.4327 C   0  0  0  0  0  0  0  0  0  0  0  0
   -1.3847    1.6672   -0.8121 H   0  0  0  0  0  0  0  0  0  0  0  0
   -1.3384    1.0316   -2.4677 H   0  0  0  0  0  0  0  0  0  0  0  0
    0.4631    0.6597   -1.2961 C   0  0  0  0  0  0  0  0  0  0  0  0
    0.9845    1.6213   -1.2293 H   0  0  0  0  0  0  0  0  0  0  0  0
    0.8559    0.1199   -2.1640 H   0  0  0  0  0  0  0  0  0  0  0  0
    0.6374   -0.2029   -0.0415 C   0  0  1  0  0  0  0  0  0  0  0  0
    1.5419   -0.8162   -0.1169 H   0  0  0  0  0  0  0  0  0  0  0  0
    0.7808    0.7658    1.1525 C   0  0  0  0  0  0  0  0  0  0  0  0
    1.8866    1.1833    1.4702 O   0  0  0  0  0  0  0  0  0  0  0  0
   -0.3385    1.3094    1.7581 N   0  0  0  0  0  0  0  0  0  0  0  0
   -1.2248    0.8699    1.5286 H   0  0  0  0  0  0  0  0  0  0  0  0
   -0.2735    2.2321    2.8839 C   0  0  0  0  0  0  0  0  0  0  0  0
    0.2862    3.1325    2.6097 H   0  0  0  0  0  0  0  0  0  0  0  0
   -1.2818    2.5319    3.1849 H   0  0  0  0  0  0  0  0  0  0  0  0
    0.2184    1.7580    3.7398 H   0  0  0  0  0  0  0  0  0  0  0  0
  1  2  1  0  0  0  0
  2  3  1  0  0  0  0
  2  4  1  0  0  0  0
  2  5  1  0  0  0  0
  5  6  2  0  0  0  0
  5  7  1  0  0  0  0
  7  8  1  0  0  0  0
  7 17  1  0  0  0  0
  8  9  1  0  0  0  0
  8 10  1  0  0  0  0
  8 11  1  0  0  0  0
 11 12  1  0  0  0  0
 11 13  1  0  0  0  0
 11 14  1  0  0  0  0
 14 15  1  0  0  0  0
 14 16  1  0  0  0  0
 14 17  1  0  0  0  0
 17 18  1  0  0  0  0
 17 19  1  0  0  0  0
 19 20  2  0  0  0  0
 19 21  1  0  0  0  0
 21 22  1  0  0  0  0
 21 23  1  0  0  0  0
 23 24  1  0  0  0  0
 23 25  1  0  0  0  0
 23 26  1  0  0  0  0
M  END
$$$$

  -OEChem-11182114133D

 26 26  0     1  0  0  0  0  0999 V2000
   -1.5980   -4.2637    0.2774 H   0  0  0  0  0  0  0  0  0  0  0  0
   -1.7691   -3.2742   -0.1563 C   0  0  0  0  0  0  0  0  0  0  0  0
   -2.6534   -2.8393    0.3154 H   0  0  0  0  0  0  0  0  0  0  0  0
   -1.9514   -3.3918   -1.2269 H   0  0  0  0  0  0  0  0  0  0  0  0
   -0.5534   -2.3836    0.0781 C   0  0  0  0  0  0  0  0  0  0  0  0
    0.4687   -2.9282    0.4673 O   0  0  0  0  0  0  0  0  0  0  0  0
   -0.6233   -0.9890    0.0074 N   0  0  0  0  0  0  0  0  0  0  0  0
   -1.6289   -0.4562   -0.9155 C   0  0  0  0  0  0  0  0  0  0  0  0
   -2.5890   -0.2868   -0.4168 H   0  0  0  0  0  0  0  0  0  0  0  0
   -1.7870   -1.1241   -1.7695 H   0  0  0  0  0  0  0  0  0  0  0  0
   -1.0380    0.8426   -1.4170 C   0  0  0  0  0  0  0  0  0  0  0  0
   -1.3662    1.6709   -0.7802 H   0  0  0  0  0  0  0  0  0  0  0  0
   -1.3392    1.0584   -2.4468 H   0  0  0  0  0  0  0  0  0  0  0  0
    0.4685    0.6614   -1.2914 C   0  0  0  0  0  0  0  0  0  0  0  0
    0.9951    1.6201   -1.2230 H   0  0  0  0  0  0  0  0  0  0  0  0
    0.8523    0.1271   -2.1667 H   0  0  0  0  0  0  0  0  0  0  0  0
    0.6445   -0.2144   -0.0447 C   0  0  1  0  0  0  0  0  0  0  0  0
    1.5468   -0.8302   -0.1237 H   0  0  0  0  0  0  0  0  0  0  0  0
    0.7878    0.7532    1.1514 C   0  0  0  0  0  0  0  0  0  0  0  0
    1.8428    1.3447    1.3419 O   0  0  0  0  0  0  0  0  0  0  0  0
   -0.3053    1.0594    1.9424 N   0  0  0  0  0  0  0  0  0  0  0  0
   -1.1319    0.4863    1.7995 H   0  0  0  0  0  0  0  0  0  0  0  0
   -0.2410    1.9441    3.0983 C   0  0  0  0  0  0  0  0  0  0  0  0
    0.0692    2.9493    2.7943 H   0  0  0  0  0  0  0  0  0  0  0  0
   -1.2234    2.0155    3.5746 H   0  0  0  0  0  0  0  0  0  0  0  0
    0.4743    1.5618    3.8341 H   0  0  0  0  0  0  0  0  0  0  0  0
  1  2  1  0  0  0  0
  2  3  1  0  0  0  0
  2  4  1  0  0  0  0
  2  5  1  0  0  0  0
  5  6  2  0  0  0  0
  5  7  1  0  0  0  0
  7  8  1  0  0  0  0
  7 17  1  0  0  0  0
  8  9  1  0  0  0  0
  8 10  1  0  0  0  0
  8 11  1  0  0  0  0
 11 12  1  0  0  0  0
 11 13  1  0  0  0  0
 11 14  1  0  0  0  0
 14 15  1  0  0  0  0
 14 16  1  0  0  0  0
 14 17  1  0  0  0  0
 17 18  1  0  0  0  0
 17 19  1  0  0  0  0
 19 20  2  0  0  0  0
 19 21  1  0  0  0  0
 21 22  1  0  0  0  0
 21 23  1  0  0  0  0
 23 24  1  0  0  0  0
 23 25  1  0  0  0  0
 23 26  1  0  0  0  0
M  END
$$$$

  -OEChem-11182114133D

 26 26  0     1  0  0  0  0  0999 V2000
   -1.6078   -4.2553    0.2768 H   0  0  0  0  0  0  0  0  0  0  0  0
   -1.7643   -3.2727   -0.1775 C   0  0  0  0  0  0  0  0  0  0  0  0
   -2.6632   -2.8307    0.2588 H   0  0  0  0  0  0  0  0  0  0  0  0
   -1.9120   -3.4061   -1.2517 H   0  0  0  0  0  0  0  0  0  0  0  0
   -0.5557   -2.3788    0.0806 C   0  0  0  0  0  0  0  0  0  0  0  0
    0.4593   -2.9194    0.4934 O   0  0  0  0  0  0  0  0  0  0  0  0
   -0.6246   -0.9844    0.0095 N   0  0  0  0  0  0  0  0  0  0  0  0
   -1.6352   -0.4499   -0.9062 C   0  0  0  0  0  0  0  0  0  0  0  0
   -2.5908   -0.2769   -0.4000 H   0  0  0  0  0  0  0  0  0  0  0  0
   -1.8020   -1.1176   -1.7587 H   0  0  0  0  0  0  0  0  0  0  0  0
   -1.0438    0.8451   -1.4129 C   0  0  0  0  0  0  0  0  0  0  0  0
   -1.3652    1.6741   -0.7734 H   0  0  0  0  0  0  0  0  0  0  0  0
   -1.3516    1.0617   -2.4407 H   0  0  0  0  0  0  0  0  0  0  0  0
    0.4626    0.6611   -1.2958 C   0  0  0  0  0  0  0  0  0  0  0  0
    0.9906    1.6195   -1.2399 H   0  0  0  0  0  0  0  0  0  0  0  0
    0.8381    0.1218   -2.1714 H   0  0  0  0  0  0  0  0  0  0  0  0
    0.6464   -0.2137   -0.0469 C   0  0  1  0  0  0  0  0  0  0  0  0
    1.5470   -0.8313   -0.1286 H   0  0  0  0  0  0  0  0  0  0  0  0
    0.7927    0.7534    1.1513 C   0  0  0  0  0  0  0  0  0  0  0  0
    1.7605    1.4995    1.2355 O   0  0  0  0  0  0  0  0  0  0  0  0
   -0.1951    0.8260    2.1170 N   0  0  0  0  0  0  0  0  0  0  0  0
   -0.9349    0.1326    2.0509 H   0  0  0  0  0  0  0  0  0  0  0  0
   -0.1075    1.6683    3.3023 C   0  0  0  0  0  0  0  0  0  0  0  0
   -0.0301    2.7227    3.0172 H   0  0  0  0  0  0  0  0  0  0  0  0
   -1.0006    1.5429    3.9216 H   0  0  0  0  0  0  0  0  0  0  0  0
    0.7696    1.3986    3.8998 H   0  0  0  0  0  0  0  0  0  0  0  0
  1  2  1  0  0  0  0
  2  3  1  0  0  0  0
  2  4  1  0  0  0  0
  2  5  1  0  0  0  0
  5  6  2  0  0  0  0
  5  7  1  0  0  0  0
  7  8  1  0  0  0  0
  7 17  1  0  0  0  0
  8  9  1  0  0  0  0
  8 10  1  0  0  0  0
  8 11  1  0  0  0  0
 11 12  1  0  0  0  0
 11 13  1  0  0  0  0
 11 14  1  0  0  0  0
 14 15  1  0  0  0  0
 14 16  1  0  0  0  0
 14 17  1  0  0  0  0
 17 18  1  0  0  0  0
 17 19  1  0  0  0  0
 19 20  2  0  0  0  0
 19 21  1  0  0  0  0
 21 22  1  0  0  0  0
 21 23  1  0  0  0  0
 23 24  1  0  0  0  0
 23 25  1  0  0  0  0
 23 26  1  0  0  0  0
M  END
$$$$

  -OEChem-11182114133D

 26 26  0     1  0  0  0  0  0999 V2000
   -1.6099   -4.2433    0.2798 H   0  0  0  0  0  0  0  0  0  0  0  0
   -1.7660   -3.2617   -0.1770 C   0  0  0  0  0  0  0  0  0  0  0  0
   -2.6675   -2.8204    0.2547 H   0  0  0  0  0  0  0  0  0  0  0  0
   -1.9098   -3.3978   -1.2513 H   0  0  0  0  0  0  0  0  0  0  0  0
   -0.5589   -2.3660    0.0838 C   0  0  0  0  0  0  0  0  0  0  0  0
    0.4521   -2.9042    0.5099 O   0  0  0  0  0  0  0  0  0  0  0  0
   -0.6251   -0.9713    0.0136 N   0  0  0  0  0  0  0  0  0  0  0  0
   -1.6387   -0.4378   -0.8992 C   0  0  0  0  0  0  0  0  0  0  0  0
   -2.5894   -0.2557   -0.3872 H   0  0  0  0  0  0  0  0  0  0  0  0
   -1.8163   -1.1091   -1.7464 H   0  0  0  0  0  0  0  0  0  0  0  0
   -1.0436    0.8492   -1.4185 C   0  0  0  0  0  0  0  0  0  0  0  0
   -1.3578    1.6844   -0.7834 H   0  0  0  0  0  0  0  0  0  0  0  0
   -1.3554    1.0601   -2.4463 H   0  0  0  0  0  0  0  0  0  0  0  0
    0.4623    0.6603   -1.3072 C   0  0  0  0  0  0  0  0  0  0  0  0
    0.9945    1.6168   -1.2710 H   0  0  0  0  0  0  0  0  0  0  0  0
    0.8291    0.1094   -2.1790 H   0  0  0  0  0  0  0  0  0  0  0  0
    0.6499   -0.2062   -0.0509 C   0  0  1  0  0  0  0  0  0  0  0  0
    1.5482   -0.8269   -0.1325 H   0  0  0  0  0  0  0  0  0  0  0  0
    0.7964    0.7566    1.1537 C   0  0  0  0  0  0  0  0  0  0  0  0
    1.6357    1.6497    1.1564 O   0  0  0  0  0  0  0  0  0  0  0  0
   -0.0179    0.6082    2.2617 N   0  0  0  0  0  0  0  0  0  0  0  0
   -0.6388   -0.1963    2.2558 H   0  0  0  0  0  0  0  0  0  0  0  0
    0.1034    1.4103    3.4719 C   0  0  0  0  0  0  0  0  0  0  0  0
   -0.0521    2.4703    3.2457 H   0  0  0  0  0  0  0  0  0  0  0  0
   -0.6460    1.1004    4.2064 H   0  0  0  0  0  0  0  0  0  0  0  0
    1.0966    1.2862    3.9160 H   0  0  0  0  0  0  0  0  0  0  0  0
  1  2  1  0  0  0  0
  2  3  1  0  0  0  0
  2  4  1  0  0  0  0
  2  5  1  0  0  0  0
  5  6  2  0  0  0  0
  5  7  1  0  0  0  0
  7  8  1  0  0  0  0
  7 17  1  0  0  0  0
  8  9  1  0  0  0  0
  8 10  1  0  0  0  0
  8 11  1  0  0  0  0
 11 12  1  0  0  0  0
 11 13  1  0  0  0  0
 11 14  1  0  0  0  0
 14 15  1  0  0  0  0
 14 16  1  0  0  0  0
 14 17  1  0  0  0  0
 17 18  1  0  0  0  0
 17 19  1  0  0  0  0
 19 20  2  0  0  0  0
 19 21  1  0  0  0  0
 21 22  1  0  0  0  0
 21 23  1  0  0  0  0
 23 24  1  0  0  0  0
 23 25  1  0  0  0  0
 23 26  1  0  0  0  0
M  END
$$$$

  -OEChem-11182114133D

 26 26  0     1  0  0  0  0  0999 V2000
   -1.6139   -4.2248    0.2858 H   0  0  0  0  0  0  0  0  0  0  0  0
   -1.7684   -3.2424   -0.1695 C   0  0  0  0  0  0  0  0  0  0  0  0
   -2.6729   -2.8028    0.2578 H   0  0  0  0  0  0  0  0  0  0  0  0
   -1.9055   -3.3763   -1.2450 H   0  0  0  0  0  0  0  0  0  0  0  0
   -0.5643   -2.3450    0.1005 C   0  0  0  0  0  0  0  0  0  0  0  0
    0.4385   -2.8782    0.5525 O   0  0  0  0  0  0  0  0  0  0  0  0
   -0.6264   -0.9507    0.0277 N   0  0  0  0  0  0  0  0  0  0  0  0
   -1.6422   -0.4211   -0.8855 C   0  0  0  0  0  0  0  0  0  0  0  0
   -2.5870   -0.2238   -0.3683 H   0  0  0  0  0  0  0  0  0  0  0  0
   -1.8326   -1.1007   -1.7231 H   0  0  0  0  0  0  0  0  0  0  0  0
   -1.0417    0.8526   -1.4275 C   0  0  0  0  0  0  0  0  0  0  0  0
   -1.3455    1.6996   -0.8029 H   0  0  0  0  0  0  0  0  0  0  0  0
   -1.3591    1.0499   -2.4561 H   0  0  0  0  0  0  0  0  0  0  0  0
    0.4633    0.6558   -1.3239 C   0  0  0  0  0  0  0  0  0  0  0  0
    1.0033    1.6081   -1.3128 H   0  0  0  0  0  0  0  0  0  0  0  0
    0.8181    0.0868   -2.1894 H   0  0  0  0  0  0  0  0  0  0  0  0
    0.6528   -0.1947   -0.0548 C   0  0  1  0  0  0  0  0  0  0  0  0
    1.5474   -0.8208   -0.1346 H   0  0  0  0  0  0  0  0  0  0  0  0
    0.7991    0.7625    1.1567 C   0  0  0  0  0  0  0  0  0  0  0  0
    1.4524    1.7982    1.0966 O   0  0  0  0  0  0  0  0  0  0  0  0
    0.2188    0.4208    2.3649 N   0  0  0  0  0  0  0  0  0  0  0  0
   -0.2259   -0.4927    2.4057 H   0  0  0  0  0  0  0  0  0  0  0  0
    0.3801    1.1916    3.5909 C   0  0  0  0  0  0  0  0  0  0  0  0
    0.0235    2.2171    3.4481 H   0  0  0  0  0  0  0  0  0  0  0  0
   -0.1963    0.7363    4.4020 H   0  0  0  0  0  0  0  0  0  0  0  0
    1.4335    1.2222    3.8881 H   0  0  0  0  0  0  0  0  0  0  0  0
  1  2  1  0  0  0  0
  2  3  1  0  0  0  0
  2  4  1  0  0  0  0
  2  5  1  0  0  0  0
  5  6  2  0  0  0  0
  5  7  1  0  0  0  0
  7  8  1  0  0  0  0
  7 17  1  0  0  0  0
  8  9  1  0  0  0  0
  8 10  1  0  0  0  0
  8 11  1  0  0  0  0
 11 12  1  0  0  0  0
 11 13  1  0  0  0  0
 11 14  1  0  0  0  0
 14 15  1  0  0  0  0
 14 16  1  0  0  0  0
 14 17  1  0  0  0  0
 17 18  1  0  0  0  0
 17 19  1  0  0  0  0
 19 20  2  0  0  0  0
 19 21  1  0  0  0  0
 21 22  1  0  0  0  0
 21 23  1  0  0  0  0
 23 24  1  0  0  0  0
 23 25  1  0  0  0  0
 23 26  1  0  0  0  0
M  END
$$$$

  -OEChem-11182114133D

 26 26  0     1  0  0  0  0  0999 V2000
   -1.6171   -4.2002    0.3195 H   0  0  0  0  0  0  0  0  0  0  0  0
   -1.7709   -3.2199   -0.1407 C   0  0  0  0  0  0  0  0  0  0  0  0
   -2.6722   -2.7752    0.2882 H   0  0  0  0  0  0  0  0  0  0  0  0
   -1.9135   -3.3598   -1.2148 H   0  0  0  0  0  0  0  0  0  0  0  0
   -0.5634   -2.3242    0.1197 C   0  0  0  0  0  0  0  0  0  0  0  0
    0.4360   -2.8546    0.5840 O   0  0  0  0  0  0  0  0  0  0  0  0
   -0.6191   -0.9303    0.0432 N   0  0  0  0  0  0  0  0  0  0  0  0
   -1.6388   -0.4013   -0.8669 C   0  0  0  0  0  0  0  0  0  0  0  0
   -2.5765   -0.1890   -0.3425 H   0  0  0  0  0  0  0  0  0  0  0  0
   -1.8446   -1.0879   -1.6951 H   0  0  0  0  0  0  0  0  0  0  0  0
   -1.0322    0.8603   -1.4304 C   0  0  0  0  0  0  0  0  0  0  0  0
   -1.3213    1.7171   -0.8124 H   0  0  0  0  0  0  0  0  0  0  0  0
   -1.3588    1.0489   -2.4578 H   0  0  0  0  0  0  0  0  0  0  0  0
    0.4720    0.6512   -1.3405 C   0  0  0  0  0  0  0  0  0  0  0  0
    1.0249    1.5960   -1.3495 H   0  0  0  0  0  0  0  0  0  0  0  0
    0.8102    0.0663   -2.2018 H   0  0  0  0  0  0  0  0  0  0  0  0
    0.6641   -0.1861   -0.0629 C   0  0  1  0  0  0  0  0  0  0  0  0
    1.5545   -0.8179   -0.1444 H   0  0  0  0  0  0  0  0  0  0  0  0
    0.8131    0.7640    1.1544 C   0  0  0  0  0  0  0  0  0  0  0  0
    1.2148    1.9190    1.0613 O   0  0  0  0  0  0  0  0  0  0  0  0
    0.5163    0.2718    2.4122 N   0  0  0  0  0  0  0  0  0  0  0  0
    0.2568   -0.7112    2.4621 H   0  0  0  0  0  0  0  0  0  0  0  0
    0.6837    1.0304    3.6448 C   0  0  0  0  0  0  0  0  0  0  0  0
    0.0844    1.9465    3.6150 H   0  0  0  0  0  0  0  0  0  0  0  0
    0.3590    0.4334    4.5024 H   0  0  0  0  0  0  0  0  0  0  0  0
    1.7350    1.3007    3.7884 H   0  0  0  0  0  0  0  0  0  0  0  0
  1  2  1  0  0  0  0
  2  3  1  0  0  0  0
  2  4  1  0  0  0  0
  2  5  1  0  0  0  0
  5  6  2  0  0  0  0
  5  7  1  0  0  0  0
  7  8  1  0  0  0  0
  7 17  1  0  0  0  0
  8  9  1  0  0  0  0
  8 10  1  0  0  0  0
  8 11  1  0  0  0  0
 11 12  1  0  0  0  0
 11 13  1  0  0  0  0
 11 14  1  0  0  0  0
 14 15  1  0  0  0  0
 14 16  1  0  0  0  0
 14 17  1  0  0  0  0
 17 18  1  0  0  0  0
 17 19  1  0  0  0  0
 19 20  2  0  0  0  0
 19 21  1  0  0  0  0
 21 22  1  0  0  0  0
 21 23  1  0  0  0  0
 23 24  1  0  0  0  0
 23 25  1  0  0  0  0
 23 26  1  0  0  0  0
M  END
$$$$

  -OEChem-11182114133D

 26 26  0     1  0  0  0  0  0999 V2000
   -1.6310   -4.1685    0.3764 H   0  0  0  0  0  0  0  0  0  0  0  0
   -1.7759   -3.1952   -0.1010 C   0  0  0  0  0  0  0  0  0  0  0  0
   -2.6719   -2.7342    0.3218 H   0  0  0  0  0  0  0  0  0  0  0  0
   -1.9214   -3.3520   -1.1723 H   0  0  0  0  0  0  0  0  0  0  0  0
   -0.5595   -2.3068    0.1406 C   0  0  0  0  0  0  0  0  0  0  0  0
    0.4420   -2.8406    0.5984 O   0  0  0  0  0  0  0  0  0  0  0  0
   -0.6057   -0.9133    0.0576 N   0  0  0  0  0  0  0  0  0  0  0  0
   -1.6307   -0.3810   -0.8454 C   0  0  0  0  0  0  0  0  0  0  0  0
   -2.5589   -0.1527   -0.3110 H   0  0  0  0  0  0  0  0  0  0  0  0
   -1.8554   -1.0729   -1.6641 H   0  0  0  0  0  0  0  0  0  0  0  0
   -1.0175    0.8694   -1.4282 C   0  0  0  0  0  0  0  0  0  0  0  0
   -1.2890    1.7353   -0.8146 H   0  0  0  0  0  0  0  0  0  0  0  0
   -1.3555    1.0526   -2.4528 H   0  0  0  0  0  0  0  0  0  0  0  0
    0.4856    0.6440   -1.3561 C   0  0  0  0  0  0  0  0  0  0  0  0
    1.0513    1.5813   -1.3747 H   0  0  0  0  0  0  0  0  0  0  0  0
    0.8069    0.0497   -2.2175 H   0  0  0  0  0  0  0  0  0  0  0  0
    0.6817   -0.1842   -0.0742 C   0  0  1  0  0  0  0  0  0  0  0  0
    1.5660   -0.8235   -0.1622 H   0  0  0  0  0  0  0  0  0  0  0  0
    0.8442    0.7633    1.1418 C   0  0  0  0  0  0  0  0  0  0  0  0
    0.9669    1.9804    1.0496 O   0  0  0  0  0  0  0  0  0  0  0  0
    0.8644    0.1895    2.3994 N   0  0  0  0  0  0  0  0  0  0  0  0
    0.7493   -0.8218    2.4387 H   0  0  0  0  0  0  0  0  0  0  0  0
    0.9997    0.9428    3.6389 C   0  0  0  0  0  0  0  0  0  0  0  0
    0.1405    1.6069    3.7784 H   0  0  0  0  0  0  0  0  0  0  0  0
    1.0522    0.2591    4.4917 H   0  0  0  0  0  0  0  0  0  0  0  0
    1.9136    1.5458    3.6240 H   0  0  0  0  0  0  0  0  0  0  0  0
  1  2  1  0  0  0  0
  2  3  1  0  0  0  0
  2  4  1  0  0  0  0
  2  5  1  0  0  0  0
  5  6  2  0  0  0  0
  5  7  1  0  0  0  0
  7  8  1  0  0  0  0
  7 17  1  0  0  0  0
  8  9  1  0  0  0  0
  8 10  1  0  0  0  0
  8 11  1  0  0  0  0
 11 12  1  0  0  0  0
 11 13  1  0  0  0  0
 11 14  1  0  0  0  0
 14 15  1  0  0  0  0
 14 16  1  0  0  0  0
 14 17  1  0  0  0  0
 17 18  1  0  0  0  0
 17 19  1  0  0  0  0
 19 20  2  0  0  0  0
 19 21  1  0  0  0  0
 21 22  1  0  0  0  0
 21 23  1  0  0  0  0
 23 24  1  0  0  0  0
 23 25  1  0  0  0  0
 23 26  1  0  0  0  0
M  END
$$$$

  -OEChem-11182114133D

 26 26  0     1  0  0  0  0  0999 V2000
   -1.6260   -4.1558    0.4103 H   0  0  0  0  0  0  0  0  0  0  0  0
   -1.7769   -3.1841   -0.0681 C   0  0  0  0  0  0  0  0  0  0  0  0
   -2.6611   -2.7170    0.3724 H   0  0  0  0  0  0  0  0  0  0  0  0
   -1.9471   -3.3448   -1.1351 H   0  0  0  0  0  0  0  0  0  0  0  0
   -0.5517   -2.3005    0.1433 C   0  0  0  0  0  0  0  0  0  0  0  0
    0.4609   -2.8393    0.5713 O   0  0  0  0  0  0  0  0  0  0  0  0
   -0.5981   -0.9070    0.0592 N   0  0  0  0  0  0  0  0  0  0  0  0
   -1.6261   -0.3773   -0.8421 C   0  0  0  0  0  0  0  0  0  0  0  0
   -2.5538   -0.1498   -0.3064 H   0  0  0  0  0  0  0  0  0  0  0  0
   -1.8507   -1.0710   -1.6592 H   0  0  0  0  0  0  0  0  0  0  0  0
   -1.0157    0.8734   -1.4278 C   0  0  0  0  0  0  0  0  0  0  0  0
   -1.2889    1.7396   -0.8156 H   0  0  0  0  0  0  0  0  0  0  0  0
   -1.3558    1.0545   -2.4521 H   0  0  0  0  0  0  0  0  0  0  0  0
    0.4885    0.6475   -1.3579 C   0  0  0  0  0  0  0  0  0  0  0  0
    1.0531    1.5859   -1.3695 H   0  0  0  0  0  0  0  0  0  0  0  0
    0.8099    0.0560   -2.2210 H   0  0  0  0  0  0  0  0  0  0  0  0
    0.6882   -0.1793   -0.0764 C   0  0  1  0  0  0  0  0  0  0  0  0
    1.5721   -0.8182   -0.1720 H   0  0  0  0  0  0  0  0  0  0  0  0
    0.8608    0.7710    1.1350 C   0  0  0  0  0  0  0  0  0  0  0  0
    0.7258    1.9894    1.0759 O   0  0  0  0  0  0  0  0  0  0  0  0
    1.2030    0.1984    2.3458 N   0  0  0  0  0  0  0  0  0  0  0  0
    1.2304   -0.8196    2.3742 H   0  0  0  0  0  0  0  0  0  0  0  0
    1.3372    0.9475    3.5883 C   0  0  0  0  0  0  0  0  0  0  0  0
    0.3770    1.3891    3.8744 H   0  0  0  0  0  0  0  0  0  0  0  0
    1.6686    0.2852    4.3938 H   0  0  0  0  0  0  0  0  0  0  0  0
    2.0753    1.7485    3.4762 H   0  0  0  0  0  0  0  0  0  0  0  0
  1  2  1  0  0  0  0
  2  3  1  0  0  0  0
  2  4  1  0  0  0  0
  2  5  1  0  0  0  0
  5  6  2  0  0  0  0
  5  7  1  0  0  0  0
  7  8  1  0  0  0  0
  7 17  1  0  0  0  0
  8  9  1  0  0  0  0
  8 10  1  0  0  0  0
  8 11  1  0  0  0  0
 11 12  1  0  0  0  0
 11 13  1  0  0  0  0
 11 14  1  0  0  0  0
 14 15  1  0  0  0  0
 14 16  1  0  0  0  0
 14 17  1  0  0  0  0
 17 18  1  0  0  0  0
 17 19  1  0  0  0  0
 19 20  2  0  0  0  0
 19 21  1  0  0  0  0
 21 22  1  0  0  0  0
 21 23  1  0  0  0  0
 23 24  1  0  0  0  0
 23 25  1  0  0  0  0
 23 26  1  0  0  0  0
M  END
$$$$

  -OEChem-11182114133D

 26 26  0     1  0  0  0  0  0999 V2000
   -1.6219   -4.1581    0.4232 H   0  0  0  0  0  0  0  0  0  0  0  0
   -1.7767   -3.1876   -0.0568 C   0  0  0  0  0  0  0  0  0  0  0  0
   -2.6569   -2.7184    0.3898 H   0  0  0  0  0  0  0  0  0  0  0  0
   -1.9568   -3.3512   -1.1217 H   0  0  0  0  0  0  0  0  0  0  0  0
   -0.5492   -2.3037    0.1412 C   0  0  0  0  0  0  0  0  0  0  0  0
    0.4735   -2.8463    0.5404 O   0  0  0  0  0  0  0  0  0  0  0  0
   -0.6004   -0.9099    0.0578 N   0  0  0  0  0  0  0  0  0  0  0  0
   -1.6267   -0.3839   -0.8477 C   0  0  0  0  0  0  0  0  0  0  0  0
   -2.5578   -0.1620   -0.3156 H   0  0  0  0  0  0  0  0  0  0  0  0
   -1.8438   -1.0778   -1.6668 H   0  0  0  0  0  0  0  0  0  0  0  0
   -1.0202    0.8719   -1.4264 C   0  0  0  0  0  0  0  0  0  0  0  0
   -1.3059    1.7363   -0.8176 H   0  0  0  0  0  0  0  0  0  0  0  0
   -1.3526    1.0509   -2.4535 H   0  0  0  0  0  0  0  0  0  0  0  0
    0.4852    0.6527   -1.3459 C   0  0  0  0  0  0  0  0  0  0  0  0
    1.0423    1.5960   -1.3419 H   0  0  0  0  0  0  0  0  0  0  0  0
    0.8182    0.0695   -2.2103 H   0  0  0  0  0  0  0  0  0  0  0  0
    0.6830   -0.1765   -0.0664 C   0  0  1  0  0  0  0  0  0  0  0  0
    1.5683   -0.8123   -0.1652 H   0  0  0  0  0  0  0  0  0  0  0  0
    0.8619    0.7814    1.1379 C   0  0  0  0  0  0  0  0  0  0  0  0
    0.4951    1.9527    1.1373 O   0  0  0  0  0  0  0  0  0  0  0  0
    1.5031    0.2875    2.2587 N   0  0  0  0  0  0  0  0  0  0  0  0
    1.6868   -0.7140    2.2700 H   0  0  0  0  0  0  0  0  0  0  0  0
    1.6734    1.0488    3.4897 C   0  0  0  0  0  0  0  0  0  0  0  0
    0.6994    1.2863    3.9299 H   0  0  0  0  0  0  0  0  0  0  0  0
    2.2510    0.4681    4.2154 H   0  0  0  0  0  0  0  0  0  0  0  0
    2.2092    1.9833    3.2924 H   0  0  0  0  0  0  0  0  0  0  0  0
  1  2  1  0  0  0  0
  2  3  1  0  0  0  0
  2  4  1  0  0  0  0
  2  5  1  0  0  0  0
  5  6  2  0  0  0  0
  5  7  1  0  0  0  0
  7  8  1  0  0  0  0
  7 17  1  0  0  0  0
  8  9  1  0  0  0  0
  8 10  1  0  0  0  0
  8 11  1  0  0  0  0
 11 12  1  0  0  0  0
 11 13  1  0  0  0  0
 11 14  1  0  0  0  0
 14 15  1  0  0  0  0
 14 16  1  0  0  0  0
 14 17  1  0  0  0  0
 17 18  1  0  0  0  0
 17 19  1  0  0  0  0
 19 20  2  0  0  0  0
 19 21  1  0  0  0  0
 21 22  1  0  0  0  0
 21 23  1  0  0  0  0
 23 24  1  0  0  0  0
 23 25  1  0  0  0  0
 23 26  1  0  0  0  0
M  END
$$$$

  -OEChem-11182114133D

 26 26  0     1  0  0  0  0  0999 V2000
   -1.6165   -4.1653    0.4244 H   0  0  0  0  0  0  0  0  0  0  0  0
   -1.7786   -3.1930   -0.0492 C   0  0  0  0  0  0  0  0  0  0  0  0
   -2.6494   -2.7238    0.4153 H   0  0  0  0  0  0  0  0  0  0  0  0
   -1.9782   -3.3518   -1.1114 H   0  0  0  0  0  0  0  0  0  0  0  0
   -0.5466   -2.3117    0.1304 C   0  0  0  0  0  0  0  0  0  0  0  0
    0.4857   -2.8595    0.4964 O   0  0  0  0  0  0  0  0  0  0  0  0
   -0.6030   -0.9180    0.0521 N   0  0  0  0  0  0  0  0  0  0  0  0
   -1.6267   -0.3945   -0.8579 C   0  0  0  0  0  0  0  0  0  0  0  0
   -2.5640   -0.1851   -0.3318 H   0  0  0  0  0  0  0  0  0  0  0  0
   -1.8308   -1.0849   -1.6835 H   0  0  0  0  0  0  0  0  0  0  0  0
   -1.0268    0.8715   -1.4218 C   0  0  0  0  0  0  0  0  0  0  0  0
   -1.3292    1.7299   -0.8130 H   0  0  0  0  0  0  0  0  0  0  0  0
   -1.3498    1.0527   -2.4514 H   0  0  0  0  0  0  0  0  0  0  0  0
    0.4801    0.6632   -1.3279 C   0  0  0  0  0  0  0  0  0  0  0  0
    1.0261    1.6127   -1.3043 H   0  0  0  0  0  0  0  0  0  0  0  0
    0.8283    0.0930   -2.1952 H   0  0  0  0  0  0  0  0  0  0  0  0
    0.6757   -0.1741   -0.0540 C   0  0  1  0  0  0  0  0  0  0  0  0
    1.5635   -0.8060   -0.1572 H   0  0  0  0  0  0  0  0  0  0  0  0
    0.8588    0.7893    1.1451 C   0  0  0  0  0  0  0  0  0  0  0  0
    0.2779    1.8664    1.2377 O   0  0  0  0  0  0  0  0  0  0  0  0
    1.7583    0.4356    2.1341 N   0  0  0  0  0  0  0  0  0  0  0  0
    2.1217   -0.5140    2.0979 H   0  0  0  0  0  0  0  0  0  0  0  0
    1.9659    1.2193    3.3453 C   0  0  0  0  0  0  0  0  0  0  0  0
    1.0461    1.2583    3.9381 H   0  0  0  0  0  0  0  0  0  0  0  0
    2.7542    0.7689    3.9559 H   0  0  0  0  0  0  0  0  0  0  0  0
    2.2676    2.2415    3.0943 H   0  0  0  0  0  0  0  0  0  0  0  0
  1  2  1  0  0  0  0
  2  3  1  0  0  0  0
  2  4  1  0  0  0  0
  2  5  1  0  0  0  0
  5  6  2  0  0  0  0
  5  7  1  0  0  0  0
  7  8  1  0  0  0  0
  7 17  1  0  0  0  0
  8  9  1  0  0  0  0
  8 10  1  0  0  0  0
  8 11  1  0  0  0  0
 11 12  1  0  0  0  0
 11 13  1  0  0  0  0
 11 14  1  0  0  0  0
 14 15  1  0  0  0  0
 14 16  1  0  0  0  0
 14 17  1  0  0  0  0
 17 18  1  0  0  0  0
 17 19  1  0  0  0  0
 19 20  2  0  0  0  0
 19 21  1  0  0  0  0
 21 22  1  0  0  0  0
 21 23  1  0  0  0  0
 23 24  1  0  0  0  0
 23 25  1  0  0  0  0
 23 26  1  0  0  0  0
M  END
$$$$

  -OEChem-11182114133D

 26 26  0     1  0  0  0  0  0999 V2000
   -1.6142   -4.1731    0.4295 H   0  0  0  0  0  0  0  0  0  0  0  0
   -1.7818   -3.1982   -0.0370 C   0  0  0  0  0  0  0  0  0  0  0  0
   -2.6432   -2.7289    0.4447 H   0  0  0  0  0  0  0  0  0  0  0  0
   -1.9999   -3.3512   -1.0964 H   0  0  0  0  0  0  0  0  0  0  0  0
   -0.5451   -2.3206    0.1260 C   0  0  0  0  0  0  0  0  0  0  0  0
    0.4937   -2.8739    0.4641 O   0  0  0  0  0  0  0  0  0  0  0  0
   -0.6016   -0.9272    0.0463 N   0  0  0  0  0  0  0  0  0  0  0  0
   -1.6242   -0.4037   -0.8645 C   0  0  0  0  0  0  0  0  0  0  0  0
   -2.5655   -0.2048   -0.3417 H   0  0  0  0  0  0  0  0  0  0  0  0
   -1.8184   -1.0902   -1.6957 H   0  0  0  0  0  0  0  0  0  0  0  0
   -1.0296    0.8709   -1.4151 C   0  0  0  0  0  0  0  0  0  0  0  0
   -1.3412    1.7223   -0.8014 H   0  0  0  0  0  0  0  0  0  0  0  0
   -1.3487    1.0579   -2.4450 H   0  0  0  0  0  0  0  0  0  0  0  0
    0.4781    0.6706   -1.3143 C   0  0  0  0  0  0  0  0  0  0  0  0
    1.0159    1.6244   -1.2770 H   0  0  0  0  0  0  0  0  0  0  0  0
    0.8353    0.1110   -2.1848 H   0  0  0  0  0  0  0  0  0  0  0  0
    0.6734   -0.1753   -0.0472 C   0  0  1  0  0  0  0  0  0  0  0  0
    1.5624   -0.8050   -0.1513 H   0  0  0  0  0  0  0  0  0  0  0  0
    0.8582    0.7974    1.1442 C   0  0  0  0  0  0  0  0  0  0  0  0
    0.0943    1.7323    1.3623 O   0  0  0  0  0  0  0  0  0  0  0  0
    1.9563    0.6363    1.9703 N   0  0  0  0  0  0  0  0  0  0  0  0
    2.4961   -0.2170    1.8508 H   0  0  0  0  0  0  0  0  0  0  0  0
    2.1845    1.4455    3.1614 C   0  0  0  0  0  0  0  0  0  0  0  0
    1.3782    1.2949    3.8869 H   0  0  0  0  0  0  0  0  0  0  0  0
    3.1321    1.1661    3.6318 H   0  0  0  0  0  0  0  0  0  0  0  0
    2.2305    2.5082    2.9011 H   0  0  0  0  0  0  0  0  0  0  0  0
  1  2  1  0  0  0  0
  2  3  1  0  0  0  0
  2  4  1  0  0  0  0
  2  5  1  0  0  0  0
  5  6  2  0  0  0  0
  5  7  1  0  0  0  0
  7  8  1  0  0  0  0
  7 17  1  0  0  0  0
  8  9  1  0  0  0  0
  8 10  1  0  0  0  0
  8 11  1  0  0  0  0
 11 12  1  0  0  0  0
 11 13  1  0  0  0  0
 11 14  1  0  0  0  0
 14 15  1  0  0  0  0
 14 16  1  0  0  0  0
 14 17  1  0  0  0  0
 17 18  1  0  0  0  0
 17 19  1  0  0  0  0
 19 20  2  0  0  0  0
 19 21  1  0  0  0  0
 21 22  1  0  0  0  0
 21 23  1  0  0  0  0
 23 24  1  0  0  0  0
 23 25  1  0  0  0  0
 23 26  1  0  0  0  0
M  END
$$$$

  -OEChem-11182114133D

 26 26  0     1  0  0  0  0  0999 V2000
   -1.6068   -4.1830    0.4281 H   0  0  0  0  0  0  0  0  0  0  0  0
   -1.7788   -3.2061   -0.0323 C   0  0  0  0  0  0  0  0  0  0  0  0
   -2.6340   -2.7379    0.4614 H   0  0  0  0  0  0  0  0  0  0  0  0
   -2.0092   -3.3539   -1.0897 H   0  0  0  0  0  0  0  0  0  0  0  0
   -0.5399   -2.3303    0.1210 C   0  0  0  0  0  0  0  0  0  0  0  0
    0.5039   -2.8856    0.4394 O   0  0  0  0  0  0  0  0  0  0  0  0
   -0.5987   -0.9376    0.0396 N   0  0  0  0  0  0  0  0  0  0  0  0
   -1.6226   -0.4114   -0.8669 C   0  0  0  0  0  0  0  0  0  0  0  0
   -2.5659   -0.2226   -0.3434 H   0  0  0  0  0  0  0  0  0  0  0  0
   -1.8113   -1.0915   -1.7047 H   0  0  0  0  0  0  0  0  0  0  0  0
   -1.0324    0.8728   -1.4015 C   0  0  0  0  0  0  0  0  0  0  0  0
   -1.3484    1.7146   -0.7763 H   0  0  0  0  0  0  0  0  0  0  0  0
   -1.3511    1.0713   -2.4292 H   0  0  0  0  0  0  0  0  0  0  0  0
    0.4760    0.6813   -1.2997 C   0  0  0  0  0  0  0  0  0  0  0  0
    1.0073    1.6382   -1.2507 H   0  0  0  0  0  0  0  0  0  0  0  0
    0.8386    0.1332   -2.1753 H   0  0  0  0  0  0  0  0  0  0  0  0
    0.6714   -0.1769   -0.0421 C   0  0  1  0  0  0  0  0  0  0  0  0
    1.5632   -0.8029   -0.1435 H   0  0  0  0  0  0  0  0  0  0  0  0
    0.8495    0.8024    1.1445 C   0  0  0  0  0  0  0  0  0  0  0  0
   -0.0426    1.5616    1.5089 O   0  0  0  0  0  0  0  0  0  0  0  0
    2.0743    0.8663    1.7853 N   0  0  0  0  0  0  0  0  0  0  0  0
    2.7563    0.1520    1.5464 H   0  0  0  0  0  0  0  0  0  0  0  0
    2.3221    1.7074    2.9502 C   0  0  0  0  0  0  0  0  0  0  0  0
    1.6816    1.4033    3.7847 H   0  0  0  0  0  0  0  0  0  0  0  0
    3.3665    1.6199    3.2641 H   0  0  0  0  0  0  0  0  0  0  0  0
    2.1206    2.7578    2.7152 H   0  0  0  0  0  0  0  0  0  0  0  0
  1  2  1  0  0  0  0
  2  3  1  0  0  0  0
  2  4  1  0  0  0  0
  2  5  1  0  0  0  0
  5  6  2  0  0  0  0
  5  7  1  0  0  0  0
  7  8  1  0  0  0  0
  7 17  1  0  0  0  0
  8  9  1  0  0  0  0
  8 10  1  0  0  0  0
  8 11  1  0  0  0  0
 11 12  1  0  0  0  0
 11 13  1  0  0  0  0
 11 14  1  0  0  0  0
 14 15  1  0  0  0  0
 14 16  1  0  0  0  0
 14 17  1  0  0  0  0
 17 18  1  0  0  0  0
 17 19  1  0  0  0  0
 19 20  2  0  0  0  0
 19 21  1  0  0  0  0
 21 22  1  0  0  0  0
 21 23  1  0  0  0  0
 23 24  1  0  0  0  0
 23 25  1  0  0  0  0
 23 26  1  0  0  0  0
M  END
$$$$

  -OEChem-11182114133D

 26 26  0     1  0  0  0  0  0999 V2000
   -1.5891   -4.2017    0.4036 H   0  0  0  0  0  0  0  0  0  0  0  0
   -1.7745   -3.2137   -0.0273 C   0  0  0  0  0  0  0  0  0  0  0  0
   -2.6173   -2.7593    0.4997 H   0  0  0  0  0  0  0  0  0  0  0  0
   -2.0318   -3.3357   -1.0818 H   0  0  0  0  0  0  0  0  0  0  0  0
   -0.5343   -2.3385    0.1175 C   0  0  0  0  0  0  0  0  0  0  0  0
    0.5131   -2.8943    0.4227 O   0  0  0  0  0  0  0  0  0  0  0  0
   -0.5952   -0.9463    0.0323 N   0  0  0  0  0  0  0  0  0  0  0  0
   -1.6212   -0.4179   -0.8686 C   0  0  0  0  0  0  0  0  0  0  0  0
   -2.5659   -0.2393   -0.3442 H   0  0  0  0  0  0  0  0  0  0  0  0
   -1.8045   -1.0914   -1.7127 H   0  0  0  0  0  0  0  0  0  0  0  0
   -1.0352    0.8740   -1.3888 C   0  0  0  0  0  0  0  0  0  0  0  0
   -1.3539    1.7061   -0.7517 H   0  0  0  0  0  0  0  0  0  0  0  0
   -1.3543    1.0840   -2.4142 H   0  0  0  0  0  0  0  0  0  0  0  0
    0.4744    0.6905   -1.2875 C   0  0  0  0  0  0  0  0  0  0  0  0
    1.0000    1.6502   -1.2313 H   0  0  0  0  0  0  0  0  0  0  0  0
    0.8409    0.1515   -2.1672 H   0  0  0  0  0  0  0  0  0  0  0  0
    0.6713   -0.1786   -0.0380 C   0  0  1  0  0  0  0  0  0  0  0  0
    1.5667   -0.8001   -0.1349 H   0  0  0  0  0  0  0  0  0  0  0  0
    0.8394    0.8073    1.1440 C   0  0  0  0  0  0  0  0  0  0  0  0
   -0.1158    1.3798    1.6585 O   0  0  0  0  0  0  0  0  0  0  0  0
    2.1132    1.1140    1.5900 N   0  0  0  0  0  0  0  0  0  0  0  0
    2.8794    0.5612    1.2170 H   0  0  0  0  0  0  0  0  0  0  0  0
    2.3707    1.9886    2.7277 C   0  0  0  0  0  0  0  0  0  0  0  0
    1.9363    1.5666    3.6400 H   0  0  0  0  0  0  0  0  0  0  0  0
    3.4481    2.1056    2.8785 H   0  0  0  0  0  0  0  0  0  0  0  0
    1.9379    2.9798    2.5562 H   0  0  0  0  0  0  0  0  0  0  0  0
  1  2  1  0  0  0  0
  2  3  1  0  0  0  0
  2  4  1  0  0  0  0
  2  5  1  0  0  0  0
  5  6  2  0  0  0  0
  5  7  1  0  0  0  0
  7  8  1  0  0  0  0
  7 17  1  0  0  0  0
  8  9  1  0  0  0  0
  8 10  1  0  0  0  0
  8 11  1  0  0  0  0
 11 12  1  0  0  0  0
 11 13  1  0  0  0  0
 11 14  1  0  0  0  0
 14 15  1  0  0  0  0
 14 16  1  0  0  0  0
 14 17  1  0  0  0  0
 17 18  1  0  0  0  0
 17 19  1  0  0  0  0
 19 20  2  0  0  0  0
 19 21  1  0  0  0  0
 21 22  1  0  0  0  0
 21 23  1  0  0  0  0
 23 24  1  0  0  0  0
 23 25  1  0  0  0  0
 23 26  1  0  0  0  0
M  END
$$$$

  -OEChem-11182114133D

 26 26  0     1  0  0  0  0  0999 V2000
   -1.5857   -4.2031    0.4201 H   0  0  0  0  0  0  0  0  0  0  0  0
   -1.7683   -3.2223   -0.0278 C   0  0  0  0  0  0  0  0  0  0  0  0
   -2.6099   -2.7572    0.4914 H   0  0  0  0  0  0  0  0  0  0  0  0
   -2.0258   -3.3607   -1.0802 H   0  0  0  0  0  0  0  0  0  0  0  0
   -0.5257   -2.3486    0.1022 C   0  0  0  0  0  0  0  0  0  0  0  0
    0.5276   -2.9077    0.3795 O   0  0  0  0  0  0  0  0  0  0  0  0
   -0.5891   -0.9563    0.0230 N   0  0  0  0  0  0  0  0  0  0  0  0
   -1.6214   -0.4235   -0.8659 C   0  0  0  0  0  0  0  0  0  0  0  0
   -2.5647   -0.2555   -0.3353 H   0  0  0  0  0  0  0  0  0  0  0  0
   -1.8050   -1.0887   -1.7167 H   0  0  0  0  0  0  0  0  0  0  0  0
   -1.0418    0.8770   -1.3707 C   0  0  0  0  0  0  0  0  0  0  0  0
   -1.3613    1.6973   -0.7189 H   0  0  0  0  0  0  0  0  0  0  0  0
   -1.3656    1.1006   -2.3918 H   0  0  0  0  0  0  0  0  0  0  0  0
    0.4689    0.7017   -1.2754 C   0  0  0  0  0  0  0  0  0  0  0  0
    0.9884    1.6643   -1.2137 H   0  0  0  0  0  0  0  0  0  0  0  0
    0.8350    0.1739   -2.1619 H   0  0  0  0  0  0  0  0  0  0  0  0
    0.6743   -0.1818   -0.0366 C   0  0  1  0  0  0  0  0  0  0  0  0
    1.5744   -0.7963   -0.1354 H   0  0  0  0  0  0  0  0  0  0  0  0
    0.8344    0.8014    1.1495 C   0  0  0  0  0  0  0  0  0  0  0  0
   -0.1214    1.1746    1.8214 O   0  0  0  0  0  0  0  0  0  0  0  0
    2.0769    1.3561    1.4059 N   0  0  0  0  0  0  0  0  0  0  0  0
    2.8682    0.9848    0.8887 H   0  0  0  0  0  0  0  0  0  0  0  0
    2.3284    2.2762    2.5086 C   0  0  0  0  0  0  0  0  0  0  0  0
    2.1225    1.7891    3.4675 H   0  0  0  0  0  0  0  0  0  0  0  0
    3.3738    2.5992    2.5009 H   0  0  0  0  0  0  0  0  0  0  0  0
    1.6932    3.1640    2.4202 H   0  0  0  0  0  0  0  0  0  0  0  0
  1  2  1  0  0  0  0
  2  3  1  0  0  0  0
  2  4  1  0  0  0  0
  2  5  1  0  0  0  0
  5  6  2  0  0  0  0
  5  7  1  0  0  0  0
  7  8  1  0  0  0  0
  7 17  1  0  0  0  0
  8  9  1  0  0  0  0
  8 10  1  0  0  0  0
  8 11  1  0  0  0  0
 11 12  1  0  0  0  0
 11 13  1  0  0  0  0
 11 14  1  0  0  0  0
 14 15  1  0  0  0  0
 14 16  1  0  0  0  0
 14 17  1  0  0  0  0
 17 18  1  0  0  0  0
 17 19  1  0  0  0  0
 19 20  2  0  0  0  0
 19 21  1  0  0  0  0
 21 22  1  0  0  0  0
 21 23  1  0  0  0  0
 23 24  1  0  0  0  0
 23 25  1  0  0  0  0
 23 26  1  0  0  0  0
M  END
$$$$

  -OEChem-11182114133D

 26 26  0     1  0  0  0  0  0999 V2000
   -1.5523   -4.2199    0.1977 H   0  0  0  0  0  0  0  0  0  0  0  0
   -1.7674   -3.1897   -0.0996 C   0  0  0  0  0  0  0  0  0  0  0  0
   -2.5556   -2.7987    0.5486 H   0  0  0  0  0  0  0  0  0  0  0  0
   -2.1178   -3.1894   -1.1341 H   0  0  0  0  0  0  0  0  0  0  0  0
   -0.5138   -2.3349    0.0321 C   0  0  0  0  0  0  0  0  0  0  0  0
    0.5502   -2.9048    0.2365 O   0  0  0  0  0  0  0  0  0  0  0  0
   -0.5627   -0.9445   -0.0391 N   0  0  0  0  0  0  0  0  0  0  0  0
   -1.6808   -0.3050   -0.7204 C   0  0  0  0  0  0  0  0  0  0  0  0
   -2.5730   -0.2582   -0.0870 H   0  0  0  0  0  0  0  0  0  0  0  0
   -1.9270   -0.8292   -1.6501 H   0  0  0  0  0  0  0  0  0  0  0  0
   -1.1609    1.0818   -1.0362 C   0  0  0  0  0  0  0  0  0  0  0  0
   -1.4195    1.7640   -0.2191 H   0  0  0  0  0  0  0  0  0  0  0  0
   -1.5835    1.4761   -1.9654 H   0  0  0  0  0  0  0  0  0  0  0  0
    0.3539    0.9242   -1.1138 C   0  0  0  0  0  0  0  0  0  0  0  0
    0.8696    1.8729   -0.9333 H   0  0  0  0  0  0  0  0  0  0  0  0
    0.6357    0.5681   -2.1101 H   0  0  0  0  0  0  0  0  0  0  0  0
    0.6868   -0.1579   -0.0757 C   0  0  1  0  0  0  0  0  0  0  0  0
    1.5546   -0.7435   -0.3952 H   0  0  0  0  0  0  0  0  0  0  0  0
    1.0065    0.5430    1.2686 C   0  0  0  0  0  0  0  0  0  0  0  0
    0.2268    0.5190    2.2144 O   0  0  0  0  0  0  0  0  0  0  0  0
    2.1512    1.3149    1.3825 N   0  0  0  0  0  0  0  0  0  0  0  0
    2.8171    1.2758    0.6171 H   0  0  0  0  0  0  0  0  0  0  0  0
    2.5354    1.9973    2.6124 C   0  0  0  0  0  0  0  0  0  0  0  0
    2.6967    1.2728    3.4175 H   0  0  0  0  0  0  0  0  0  0  0  0
    3.4624    2.5583    2.4600 H   0  0  0  0  0  0  0  0  0  0  0  0
    1.7546    2.7001    2.9216 H   0  0  0  0  0  0  0  0  0  0  0  0
  1  2  1  0  0  0  0
  2  3  1  0  0  0  0
  2  4  1  0  0  0  0
  2  5  1  0  0  0  0
  5  6  2  0  0  0  0
  5  7  1  0  0  0  0
  7  8  1  0  0  0  0
  7 17  1  0  0  0  0
  8  9  1  0  0  0  0
  8 10  1  0  0  0  0
  8 11  1  0  0  0  0
 11 12  1  0  0  0  0
 11 13  1  0  0  0  0
 11 14  1  0  0  0  0
 14 15  1  0  0  0  0
 14 16  1  0  0  0  0
 14 17  1  0  0  0  0
 17 18  1  0  0  0  0
 17 19  1  0  0  0  0
 19 20  2  0  0  0  0
 19 21  1  0  0  0  0
 21 22  1  0  0  0  0
 21 23  1  0  0  0  0
 23 24  1  0  0  0  0
 23 25  1  0  0  0  0
 23 26  1  0  0  0  0
M  END
$$$$

  -OEChem-11182114133D

 26 26  0     1  0  0  0  0  0999 V2000
   -1.5327   -4.2149    0.2159 H   0  0  0  0  0  0  0  0  0  0  0  0
   -1.7596   -3.1843   -0.0709 C   0  0  0  0  0  0  0  0  0  0  0  0
   -2.5256   -2.7963    0.6052 H   0  0  0  0  0  0  0  0  0  0  0  0
   -2.1457   -3.1828   -1.0924 H   0  0  0  0  0  0  0  0  0  0  0  0
   -0.5036   -2.3271    0.0205 C   0  0  0  0  0  0  0  0  0  0  0  0
    0.5667   -2.8978    0.1853 O   0  0  0  0  0  0  0  0  0  0  0  0
   -0.5594   -0.9360   -0.0465 N   0  0  0  0  0  0  0  0  0  0  0  0
   -1.6837   -0.3092   -0.7288 C   0  0  0  0  0  0  0  0  0  0  0  0
   -2.5731   -0.2585   -0.0917 H   0  0  0  0  0  0  0  0  0  0  0  0
   -1.9325   -0.8447   -1.6515 H   0  0  0  0  0  0  0  0  0  0  0  0
   -1.1710    1.0746   -1.0622 C   0  0  0  0  0  0  0  0  0  0  0  0
   -1.4312    1.7656   -0.2534 H   0  0  0  0  0  0  0  0  0  0  0  0
   -1.5966    1.4552   -1.9958 H   0  0  0  0  0  0  0  0  0  0  0  0
    0.3436    0.9237   -1.1415 C   0  0  0  0  0  0  0  0  0  0  0  0
    0.8519    1.8798   -0.9856 H   0  0  0  0  0  0  0  0  0  0  0  0
    0.6218    0.5534   -2.1336 H   0  0  0  0  0  0  0  0  0  0  0  0
    0.6890   -0.1459   -0.0904 C   0  0  1  0  0  0  0  0  0  0  0  0
    1.5602   -0.7273   -0.4090 H   0  0  0  0  0  0  0  0  0  0  0  0
    1.0058    0.5476    1.2617 C   0  0  0  0  0  0  0  0  0  0  0  0
    0.3838    0.2804    2.2835 O   0  0  0  0  0  0  0  0  0  0  0  0
    1.9493    1.5611    1.3273 N   0  0  0  0  0  0  0  0  0  0  0  0
    2.5003    1.7402    0.4938 H   0  0  0  0  0  0  0  0  0  0  0  0
    2.3089    2.2417    2.5658 C   0  0  0  0  0  0  0  0  0  0  0  0
    2.7174    1.5284    3.2895 H   0  0  0  0  0  0  0  0  0  0  0  0
    3.0647    3.0083    2.3705 H   0  0  0  0  0  0  0  0  0  0  0  0
    1.4314    2.7271    3.0057 H   0  0  0  0  0  0  0  0  0  0  0  0
  1  2  1  0  0  0  0
  2  3  1  0  0  0  0
  2  4  1  0  0  0  0
  2  5  1  0  0  0  0
  5  6  2  0  0  0  0
  5  7  1  0  0  0  0
  7  8  1  0  0  0  0
  7 17  1  0  0  0  0
  8  9  1  0  0  0  0
  8 10  1  0  0  0  0
  8 11  1  0  0  0  0
 11 12  1  0  0  0  0
 11 13  1  0  0  0  0
 11 14  1  0  0  0  0
 14 15  1  0  0  0  0
 14 16  1  0  0  0  0
 14 17  1  0  0  0  0
 17 18  1  0  0  0  0
 17 19  1  0  0  0  0
 19 20  2  0  0  0  0
 19 21  1  0  0  0  0
 21 22  1  0  0  0  0
 21 23  1  0  0  0  0
 23 24  1  0  0  0  0
 23 25  1  0  0  0  0
 23 26  1  0  0  0  0
M  END
$$$$

  -OEChem-11182114133D

 26 26  0     1  0  0  0  0  0999 V2000
   -1.5170   -4.2008    0.2609 H   0  0  0  0  0  0  0  0  0  0  0  0
   -1.7523   -3.1739   -0.0324 C   0  0  0  0  0  0  0  0  0  0  0  0
   -2.4971   -2.7774    0.6618 H   0  0  0  0  0  0  0  0  0  0  0  0
   -2.1694   -3.1852   -1.0416 H   0  0  0  0  0  0  0  0  0  0  0  0
   -0.4939   -2.3163    0.0109 C   0  0  0  0  0  0  0  0  0  0  0  0
    0.5810   -2.8889    0.1316 O   0  0  0  0  0  0  0  0  0  0  0  0
   -0.5554   -0.9246   -0.0532 N   0  0  0  0  0  0  0  0  0  0  0  0
   -1.6848   -0.3111   -0.7398 C   0  0  0  0  0  0  0  0  0  0  0  0
   -2.5710   -0.2522   -0.0992 H   0  0  0  0  0  0  0  0  0  0  0  0
   -1.9376   -0.8618   -1.6523 H   0  0  0  0  0  0  0  0  0  0  0  0
   -1.1776    1.0675   -1.0995 C   0  0  0  0  0  0  0  0  0  0  0  0
   -1.4366    1.7727   -0.3025 H   0  0  0  0  0  0  0  0  0  0  0  0
   -1.6081    1.4297   -2.0383 H   0  0  0  0  0  0  0  0  0  0  0  0
    0.3369    0.9194   -1.1824 C   0  0  0  0  0  0  0  0  0  0  0  0
    0.8459    1.8787   -1.0595 H   0  0  0  0  0  0  0  0  0  0  0  0
    0.6078    0.5261   -2.1679 H   0  0  0  0  0  0  0  0  0  0  0  0
    0.6914   -0.1320   -0.1137 C   0  0  1  0  0  0  0  0  0  0  0  0
    1.5644   -0.7116   -0.4301 H   0  0  0  0  0  0  0  0  0  0  0  0
    1.0061    0.5514    1.2472 C   0  0  0  0  0  0  0  0  0  0  0  0
    0.6001    0.0770    2.3015 O   0  0  0  0  0  0  0  0  0  0  0  0
    1.6924    1.7546    1.3150 N   0  0  0  0  0  0  0  0  0  0  0  0
    2.0763    2.1233    0.4512 H   0  0  0  0  0  0  0  0  0  0  0  0
    2.0169    2.4247    2.5691 C   0  0  0  0  0  0  0  0  0  0  0  0
    2.6512    1.7851    3.1920 H   0  0  0  0  0  0  0  0  0  0  0  0
    2.5534    3.3577    2.3717 H   0  0  0  0  0  0  0  0  0  0  0  0
    1.1033    2.6632    3.1239 H   0  0  0  0  0  0  0  0  0  0  0  0
  1  2  1  0  0  0  0
  2  3  1  0  0  0  0
  2  4  1  0  0  0  0
  2  5  1  0  0  0  0
  5  6  2  0  0  0  0
  5  7  1  0  0  0  0
  7  8  1  0  0  0  0
  7 17  1  0  0  0  0
  8  9  1  0  0  0  0
  8 10  1  0  0  0  0
  8 11  1  0  0  0  0
 11 12  1  0  0  0  0
 11 13  1  0  0  0  0
 11 14  1  0  0  0  0
 14 15  1  0  0  0  0
 14 16  1  0  0  0  0
 14 17  1  0  0  0  0
 17 18  1  0  0  0  0
 17 19  1  0  0  0  0
 19 20  2  0  0  0  0
 19 21  1  0  0  0  0
 21 22  1  0  0  0  0
 21 23  1  0  0  0  0
 23 24  1  0  0  0  0
 23 25  1  0  0  0  0
 23 26  1  0  0  0  0
M  END
$$$$

  -OEChem-11182114133D

 26 26  0     1  0  0  0  0  0999 V2000
   -1.5137   -4.1854    0.3060 H   0  0  0  0  0  0  0  0  0  0  0  0
   -1.7477   -3.1662   -0.0139 C   0  0  0  0  0  0  0  0  0  0  0  0
   -2.4970   -2.7530    0.6656 H   0  0  0  0  0  0  0  0  0  0  0  0
   -2.1579   -3.2014   -1.0255 H   0  0  0  0  0  0  0  0  0  0  0  0
   -0.4890   -2.3083    0.0152 C   0  0  0  0  0  0  0  0  0  0  0  0
    0.5866   -2.8835    0.1097 O   0  0  0  0  0  0  0  0  0  0  0  0
   -0.5536   -0.9161   -0.0501 N   0  0  0  0  0  0  0  0  0  0  0  0
   -1.6839   -0.3146   -0.7469 C   0  0  0  0  0  0  0  0  0  0  0  0
   -2.5703   -0.2471   -0.1073 H   0  0  0  0  0  0  0  0  0  0  0  0
   -1.9368   -0.8807   -1.6502 H   0  0  0  0  0  0  0  0  0  0  0  0
   -1.1794    1.0588   -1.1315 C   0  0  0  0  0  0  0  0  0  0  0  0
   -1.4393    1.7781   -0.3477 H   0  0  0  0  0  0  0  0  0  0  0  0
   -1.6119    1.4024   -2.0763 H   0  0  0  0  0  0  0  0  0  0  0  0
    0.3355    0.9115   -1.2139 C   0  0  0  0  0  0  0  0  0  0  0  0
    0.8510    1.8699   -1.1177 H   0  0  0  0  0  0  0  0  0  0  0  0
    0.6023    0.4954   -2.1913 H   0  0  0  0  0  0  0  0  0  0  0  0
    0.6906   -0.1207   -0.1274 C   0  0  1  0  0  0  0  0  0  0  0  0
    1.5644   -0.7023   -0.4376 H   0  0  0  0  0  0  0  0  0  0  0  0
    1.0028    0.5570    1.2376 C   0  0  0  0  0  0  0  0  0  0  0  0
    0.8586   -0.0616    2.2846 O   0  0  0  0  0  0  0  0  0  0  0  0
    1.3981    1.8830    1.3379 N   0  0  0  0  0  0  0  0  0  0  0  0
    1.5438    2.3965    0.4757 H   0  0  0  0  0  0  0  0  0  0  0  0
    1.6891    2.5442    2.6050 C   0  0  0  0  0  0  0  0  0  0  0  0
    2.5101    2.0366    3.1223 H   0  0  0  0  0  0  0  0  0  0  0  0
    1.9806    3.5843    2.4306 H   0  0  0  0  0  0  0  0  0  0  0  0
    0.8061    2.5372    3.2527 H   0  0  0  0  0  0  0  0  0  0  0  0
  1  2  1  0  0  0  0
  2  3  1  0  0  0  0
  2  4  1  0  0  0  0
  2  5  1  0  0  0  0
  5  6  2  0  0  0  0
  5  7  1  0  0  0  0
  7  8  1  0  0  0  0
  7 17  1  0  0  0  0
  8  9  1  0  0  0  0
  8 10  1  0  0  0  0
  8 11  1  0  0  0  0
 11 12  1  0  0  0  0
 11 13  1  0  0  0  0
 11 14  1  0  0  0  0
 14 15  1  0  0  0  0
 14 16  1  0  0  0  0
 14 17  1  0  0  0  0
 17 18  1  0  0  0  0
 17 19  1  0  0  0  0
 19 20  2  0  0  0  0
 19 21  1  0  0  0  0
 21 22  1  0  0  0  0
 21 23  1  0  0  0  0
 23 24  1  0  0  0  0
 23 25  1  0  0  0  0
 23 26  1  0  0  0  0
M  END
$$$$

  -OEChem-11182114133D

 26 26  0     1  0  0  0  0  0999 V2000
   -1.5151   -4.1809    0.3202 H   0  0  0  0  0  0  0  0  0  0  0  0
   -1.7480   -3.1628   -0.0040 C   0  0  0  0  0  0  0  0  0  0  0  0
   -2.4971   -2.7463    0.6738 H   0  0  0  0  0  0  0  0  0  0  0  0
   -2.1587   -3.2027   -1.0153 H   0  0  0  0  0  0  0  0  0  0  0  0
   -0.4881   -2.3062    0.0205 C   0  0  0  0  0  0  0  0  0  0  0  0
    0.5859   -2.8835    0.1128 O   0  0  0  0  0  0  0  0  0  0  0  0
   -0.5520   -0.9136   -0.0480 N   0  0  0  0  0  0  0  0  0  0  0  0
   -1.6774   -0.3162   -0.7580 C   0  0  0  0  0  0  0  0  0  0  0  0
   -2.5684   -0.2429   -0.1256 H   0  0  0  0  0  0  0  0  0  0  0  0
   -1.9241   -0.8902   -1.6580 H   0  0  0  0  0  0  0  0  0  0  0  0
   -1.1714    1.0552   -1.1529 C   0  0  0  0  0  0  0  0  0  0  0  0
   -1.4354    1.7820   -0.3776 H   0  0  0  0  0  0  0  0  0  0  0  0
   -1.6000    1.3897   -2.1029 H   0  0  0  0  0  0  0  0  0  0  0  0
    0.3439    0.9060   -1.2295 C   0  0  0  0  0  0  0  0  0  0  0  0
    0.8684    1.8606   -1.1375 H   0  0  0  0  0  0  0  0  0  0  0  0
    0.6128    0.4806   -2.2023 H   0  0  0  0  0  0  0  0  0  0  0  0
    0.6900   -0.1166   -0.1334 C   0  0  1  0  0  0  0  0  0  0  0  0
    1.5655   -0.7005   -0.4362 H   0  0  0  0  0  0  0  0  0  0  0  0
    0.9967    0.5592    1.2322 C   0  0  0  0  0  0  0  0  0  0  0  0
    1.1408   -0.1249    2.2366 O   0  0  0  0  0  0  0  0  0  0  0  0
    1.0874    1.9352    1.3846 N   0  0  0  0  0  0  0  0  0  0  0  0
    0.9295    2.5100    0.5644 H   0  0  0  0  0  0  0  0  0  0  0  0
    1.3407    2.5896    2.6631 C   0  0  0  0  0  0  0  0  0  0  0  0
    2.3005    2.2635    3.0774 H   0  0  0  0  0  0  0  0  0  0  0  0
    1.3727    3.6754    2.5322 H   0  0  0  0  0  0  0  0  0  0  0  0
    0.5479    2.3504    3.3797 H   0  0  0  0  0  0  0  0  0  0  0  0
  1  2  1  0  0  0  0
  2  3  1  0  0  0  0
  2  4  1  0  0  0  0
  2  5  1  0  0  0  0
  5  6  2  0  0  0  0
  5  7  1  0  0  0  0
  7  8  1  0  0  0  0
  7 17  1  0  0  0  0
  8  9  1  0  0  0  0
  8 10  1  0  0  0  0
  8 11  1  0  0  0  0
 11 12  1  0  0  0  0
 11 13  1  0  0  0  0
 11 14  1  0  0  0  0
 14 15  1  0  0  0  0
 14 16  1  0  0  0  0
 14 17  1  0  0  0  0
 17 18  1  0  0  0  0
 17 19  1  0  0  0  0
 19 20  2  0  0  0  0
 19 21  1  0  0  0  0
 21 22  1  0  0  0  0
 21 23  1  0  0  0  0
 23 24  1  0  0  0  0
 23 25  1  0  0  0  0
 23 26  1  0  0  0  0
M  END
$$$$

  -OEChem-11182114133D

 26 26  0     1  0  0  0  0  0999 V2000
   -1.5252   -4.1881    0.3033 H   0  0  0  0  0  0  0  0  0  0  0  0
   -1.7536   -3.1695   -0.0227 C   0  0  0  0  0  0  0  0  0  0  0  0
   -2.5145   -2.7552    0.6432 H   0  0  0  0  0  0  0  0  0  0  0  0
   -2.1477   -3.2086   -1.0405 H   0  0  0  0  0  0  0  0  0  0  0  0
   -0.4947   -2.3119    0.0242 C   0  0  0  0  0  0  0  0  0  0  0  0
    0.5762   -2.8879    0.1452 O   0  0  0  0  0  0  0  0  0  0  0  0
   -0.5584   -0.9191   -0.0446 N   0  0  0  0  0  0  0  0  0  0  0  0
   -1.6751   -0.3240   -0.7715 C   0  0  0  0  0  0  0  0  0  0  0  0
   -2.5757   -0.2551   -0.1524 H   0  0  0  0  0  0  0  0  0  0  0  0
   -1.9064   -0.8983   -1.6755 H   0  0  0  0  0  0  0  0  0  0  0  0
   -1.1703    1.0508   -1.1596 C   0  0  0  0  0  0  0  0  0  0  0  0
   -1.4504    1.7761   -0.3890 H   0  0  0  0  0  0  0  0  0  0  0  0
   -1.5870    1.3830   -2.1157 H   0  0  0  0  0  0  0  0  0  0  0  0
    0.3468    0.9041   -1.2187 C   0  0  0  0  0  0  0  0  0  0  0  0
    0.8702    1.8586   -1.1085 H   0  0  0  0  0  0  0  0  0  0  0  0
    0.6314    0.4842   -2.1896 H   0  0  0  0  0  0  0  0  0  0  0  0
    0.6812   -0.1180   -0.1204 C   0  0  1  0  0  0  0  0  0  0  0  0
    1.5586   -0.7027   -0.4170 H   0  0  0  0  0  0  0  0  0  0  0  0
    0.9831    0.5617    1.2417 C   0  0  0  0  0  0  0  0  0  0  0  0
    1.4192   -0.1007    2.1728 O   0  0  0  0  0  0  0  0  0  0  0  0
    0.7743    1.9155    1.4610 N   0  0  0  0  0  0  0  0  0  0  0  0
    0.3649    2.4529    0.7047 H   0  0  0  0  0  0  0  0  0  0  0  0
    1.0131    2.5696    2.7422 C   0  0  0  0  0  0  0  0  0  0  0  0
    2.0625    2.4631    3.0369 H   0  0  0  0  0  0  0  0  0  0  0  0
    0.7813    3.6366    2.6716 H   0  0  0  0  0  0  0  0  0  0  0  0
    0.3815    2.1287    3.5208 H   0  0  0  0  0  0  0  0  0  0  0  0
  1  2  1  0  0  0  0
  2  3  1  0  0  0  0
  2  4  1  0  0  0  0
  2  5  1  0  0  0  0
  5  6  2  0  0  0  0
  5  7  1  0  0  0  0
  7  8  1  0  0  0  0
  7 17  1  0  0  0  0
  8  9  1  0  0  0  0
  8 10  1  0  0  0  0
  8 11  1  0  0  0  0
 11 12  1  0  0  0  0
 11 13  1  0  0  0  0
 11 14  1  0  0  0  0
 14 15  1  0  0  0  0
 14 16  1  0  0  0  0
 14 17  1  0  0  0  0
 17 18  1  0  0  0  0
 17 19  1  0  0  0  0
 19 20  2  0  0  0  0
 19 21  1  0  0  0  0
 21 22  1  0  0  0  0
 21 23  1  0  0  0  0
 23 24  1  0  0  0  0
 23 25  1  0  0  0  0
 23 26  1  0  0  0  0
M  END
$$$$

  -OEChem-11182114133D

 26 26  0     1  0  0  0  0  0999 V2000
   -1.5364   -4.2086    0.2527 H   0  0  0  0  0  0  0  0  0  0  0  0
   -1.7571   -3.1906   -0.0804 C   0  0  0  0  0  0  0  0  0  0  0  0
   -2.5539   -2.7860    0.5483 H   0  0  0  0  0  0  0  0  0  0  0  0
   -2.0992   -3.2292   -1.1170 H   0  0  0  0  0  0  0  0  0  0  0  0
   -0.5092   -2.3229    0.0319 C   0  0  0  0  0  0  0  0  0  0  0  0
    0.5569   -2.8910    0.2135 O   0  0  0  0  0  0  0  0  0  0  0  0
   -0.5770   -0.9300   -0.0336 N   0  0  0  0  0  0  0  0  0  0  0  0
   -1.6829   -0.3351   -0.7788 C   0  0  0  0  0  0  0  0  0  0  0  0
   -2.5947   -0.2719   -0.1756 H   0  0  0  0  0  0  0  0  0  0  0  0
   -1.8962   -0.9068   -1.6887 H   0  0  0  0  0  0  0  0  0  0  0  0
   -1.1786    1.0438   -1.1544 C   0  0  0  0  0  0  0  0  0  0  0  0
   -1.4785    1.7683   -0.3917 H   0  0  0  0  0  0  0  0  0  0  0  0
   -1.5786    1.3737   -2.1186 H   0  0  0  0  0  0  0  0  0  0  0  0
    0.3401    0.8988   -1.1894 C   0  0  0  0  0  0  0  0  0  0  0  0
    0.8567    1.8545   -1.0527 H   0  0  0  0  0  0  0  0  0  0  0  0
    0.6449    0.4903   -2.1587 H   0  0  0  0  0  0  0  0  0  0  0  0
    0.6619   -0.1255   -0.0913 C   0  0  1  0  0  0  0  0  0  0  0  0
    1.5401   -0.7113   -0.3840 H   0  0  0  0  0  0  0  0  0  0  0  0
    0.9652    0.5600    1.2652 C   0  0  0  0  0  0  0  0  0  0  0  0
    1.6790    0.0030    2.0870 O   0  0  0  0  0  0  0  0  0  0  0  0
    0.4842    1.8225    1.5765 N   0  0  0  0  0  0  0  0  0  0  0  0
   -0.1373    2.2608    0.9060 H   0  0  0  0  0  0  0  0  0  0  0  0
    0.7362    2.4899    2.8481 C   0  0  0  0  0  0  0  0  0  0  0  0
    1.8121    2.6154    3.0093 H   0  0  0  0  0  0  0  0  0  0  0  0
    0.2692    3.4793    2.8545 H   0  0  0  0  0  0  0  0  0  0  0  0
    0.3215    1.9050    3.6757 H   0  0  0  0  0  0  0  0  0  0  0  0
  1  2  1  0  0  0  0
  2  3  1  0  0  0  0
  2  4  1  0  0  0  0
  2  5  1  0  0  0  0
  5  6  2  0  0  0  0
  5  7  1  0  0  0  0
  7  8  1  0  0  0  0
  7 17  1  0  0  0  0
  8  9  1  0  0  0  0
  8 10  1  0  0  0  0
  8 11  1  0  0  0  0
 11 12  1  0  0  0  0
 11 13  1  0  0  0  0
 11 14  1  0  0  0  0
 14 15  1  0  0  0  0
 14 16  1  0  0  0  0
 14 17  1  0  0  0  0
 17 18  1  0  0  0  0
 17 19  1  0  0  0  0
 19 20  2  0  0  0  0
 19 21  1  0  0  0  0
 21 22  1  0  0  0  0
 21 23  1  0  0  0  0
 23 24  1  0  0  0  0
 23 25  1  0  0  0  0
 23 26  1  0  0  0  0
M  END
$$$$

  -OEChem-11182114133D

 26 26  0     1  0  0  0  0  0999 V2000
   -1.5494   -4.2272    0.1964 H   0  0  0  0  0  0  0  0  0  0  0  0
   -1.7626   -3.2069   -0.1354 C   0  0  0  0  0  0  0  0  0  0  0  0
   -2.5880   -2.8138    0.4629 H   0  0  0  0  0  0  0  0  0  0  0  0
   -2.0602   -3.2369   -1.1859 H   0  0  0  0  0  0  0  0  0  0  0  0
   -0.5261   -2.3330    0.0373 C   0  0  0  0  0  0  0  0  0  0  0  0
    0.5298   -2.8943    0.2849 O   0  0  0  0  0  0  0  0  0  0  0  0
   -0.5946   -0.9401   -0.0244 N   0  0  0  0  0  0  0  0  0  0  0  0
   -1.6877   -0.3407   -0.7872 C   0  0  0  0  0  0  0  0  0  0  0  0
   -2.6103   -0.2802   -0.2002 H   0  0  0  0  0  0  0  0  0  0  0  0
   -1.8854   -0.9083   -1.7033 H   0  0  0  0  0  0  0  0  0  0  0  0
   -1.1786    1.0413   -1.1510 C   0  0  0  0  0  0  0  0  0  0  0  0
   -1.4902    1.7685   -0.3962 H   0  0  0  0  0  0  0  0  0  0  0  0
   -1.5626    1.3714   -2.1215 H   0  0  0  0  0  0  0  0  0  0  0  0
    0.3396    0.8926   -1.1651 C   0  0  0  0  0  0  0  0  0  0  0  0
    0.8517    1.8471   -1.0034 H   0  0  0  0  0  0  0  0  0  0  0  0
    0.6624    0.4948   -2.1330 H   0  0  0  0  0  0  0  0  0  0  0  0
    0.6450   -0.1356   -0.0683 C   0  0  1  0  0  0  0  0  0  0  0  0
    1.5210   -0.7260   -0.3592 H   0  0  0  0  0  0  0  0  0  0  0  0
    0.9539    0.5530    1.2829 C   0  0  0  0  0  0  0  0  0  0  0  0
    1.9109    0.1865    1.9504 O   0  0  0  0  0  0  0  0  0  0  0  0
    0.2441    1.6617    1.7149 N   0  0  0  0  0  0  0  0  0  0  0  0
   -0.5870    1.9075    1.1894 H   0  0  0  0  0  0  0  0  0  0  0  0
    0.5012    2.3337    2.9828 C   0  0  0  0  0  0  0  0  0  0  0  0
    1.5326    2.6999    3.0208 H   0  0  0  0  0  0  0  0  0  0  0  0
   -0.1717    3.1882    3.1017 H   0  0  0  0  0  0  0  0  0  0  0  0
    0.3404    1.6459    3.8196 H   0  0  0  0  0  0  0  0  0  0  0  0
  1  2  1  0  0  0  0
  2  3  1  0  0  0  0
  2  4  1  0  0  0  0
  2  5  1  0  0  0  0
  5  6  2  0  0  0  0
  5  7  1  0  0  0  0
  7  8  1  0  0  0  0
  7 17  1  0  0  0  0
  8  9  1  0  0  0  0
  8 10  1  0  0  0  0
  8 11  1  0  0  0  0
 11 12  1  0  0  0  0
 11 13  1  0  0  0  0
 11 14  1  0  0  0  0
 14 15  1  0  0  0  0
 14 16  1  0  0  0  0
 14 17  1  0  0  0  0
 17 18  1  0  0  0  0
 17 19  1  0  0  0  0
 19 20  2  0  0  0  0
 19 21  1  0  0  0  0
 21 22  1  0  0  0  0
 21 23  1  0  0  0  0
 23 24  1  0  0  0  0
 23 25  1  0  0  0  0
 23 26  1  0  0  0  0
M  END
$$$$

  -OEChem-11182114133D

 26 26  0     1  0  0  0  0  0999 V2000
   -1.5654   -4.2436    0.1391 H   0  0  0  0  0  0  0  0  0  0  0  0
   -1.7683   -3.2197   -0.1876 C   0  0  0  0  0  0  0  0  0  0  0  0
   -2.6141   -2.8345    0.3866 H   0  0  0  0  0  0  0  0  0  0  0  0
   -2.0298   -3.2379   -1.2480 H   0  0  0  0  0  0  0  0  0  0  0  0
   -0.5396   -2.3465    0.0369 C   0  0  0  0  0  0  0  0  0  0  0  0
    0.5042   -2.9046    0.3372 O   0  0  0  0  0  0  0  0  0  0  0  0
   -0.6027   -0.9534   -0.0203 N   0  0  0  0  0  0  0  0  0  0  0  0
   -1.6887   -0.3386   -0.7815 C   0  0  0  0  0  0  0  0  0  0  0  0
   -2.6143   -0.2816   -0.1992 H   0  0  0  0  0  0  0  0  0  0  0  0
   -1.8836   -0.8939   -1.7055 H   0  0  0  0  0  0  0  0  0  0  0  0
   -1.1720    1.0468   -1.1264 C   0  0  0  0  0  0  0  0  0  0  0  0
   -1.4765    1.7666   -0.3613 H   0  0  0  0  0  0  0  0  0  0  0  0
   -1.5528    1.3935   -2.0922 H   0  0  0  0  0  0  0  0  0  0  0  0
    0.3444    0.8901   -1.1399 C   0  0  0  0  0  0  0  0  0  0  0  0
    0.8590    1.8401   -0.9595 H   0  0  0  0  0  0  0  0  0  0  0  0
    0.6692    0.5056   -2.1125 H   0  0  0  0  0  0  0  0  0  0  0  0
    0.6396   -0.1528   -0.0566 C   0  0  1  0  0  0  0  0  0  0  0  0
    1.5126   -0.7464   -0.3510 H   0  0  0  0  0  0  0  0  0  0  0  0
    0.9503    0.5311    1.2935 C   0  0  0  0  0  0  0  0  0  0  0  0
    2.0596    0.4153    1.7960 O   0  0  0  0  0  0  0  0  0  0  0  0
    0.0617    1.4297    1.8592 N   0  0  0  0  0  0  0  0  0  0  0  0
   -0.8777    1.4356    1.4765 H   0  0  0  0  0  0  0  0  0  0  0  0
    0.3128    2.1140    3.1215 C   0  0  0  0  0  0  0  0  0  0  0  0
    1.2284    2.7117    3.0588 H   0  0  0  0  0  0  0  0  0  0  0  0
   -0.5188    2.7837    3.3605 H   0  0  0  0  0  0  0  0  0  0  0  0
    0.4206    1.3887    3.9348 H   0  0  0  0  0  0  0  0  0  0  0  0
  1  2  1  0  0  0  0
  2  3  1  0  0  0  0
  2  4  1  0  0  0  0
  2  5  1  0  0  0  0
  5  6  2  0  0  0  0
  5  7  1  0  0  0  0
  7  8  1  0  0  0  0
  7 17  1  0  0  0  0
  8  9  1  0  0  0  0
  8 10  1  0  0  0  0
  8 11  1  0  0  0  0
 11 12  1  0  0  0  0
 11 13  1  0  0  0  0
 11 14  1  0  0  0  0
 14 15  1  0  0  0  0
 14 16  1  0  0  0  0
 14 17  1  0  0  0  0
 17 18  1  0  0  0  0
 17 19  1  0  0  0  0
 19 20  2  0  0  0  0
 19 21  1  0  0  0  0
 21 22  1  0  0  0  0
 21 23  1  0  0  0  0
 23 24  1  0  0  0  0
 23 25  1  0  0  0  0
 23 26  1  0  0  0  0
M  END
$$$$

  -OEChem-11182114133D

 26 26  0     1  0  0  0  0  0999 V2000
   -1.5772   -4.2571    0.0925 H   0  0  0  0  0  0  0  0  0  0  0  0
   -1.7739   -3.2291   -0.2248 C   0  0  0  0  0  0  0  0  0  0  0  0
   -2.6278   -2.8495    0.3411 H   0  0  0  0  0  0  0  0  0  0  0  0
   -2.0194   -3.2340   -1.2892 H   0  0  0  0  0  0  0  0  0  0  0  0
   -0.5480   -2.3601    0.0277 C   0  0  0  0  0  0  0  0  0  0  0  0
    0.4880   -2.9191    0.3526 O   0  0  0  0  0  0  0  0  0  0  0  0
   -0.6047   -0.9672   -0.0243 N   0  0  0  0  0  0  0  0  0  0  0  0
   -1.6893   -0.3342   -0.7716 C   0  0  0  0  0  0  0  0  0  0  0  0
   -2.6130   -0.2806   -0.1856 H   0  0  0  0  0  0  0  0  0  0  0  0
   -1.8899   -0.8735   -1.7038 H   0  0  0  0  0  0  0  0  0  0  0  0
   -1.1642    1.0540   -1.0949 C   0  0  0  0  0  0  0  0  0  0  0  0
   -1.4551    1.7596   -0.3106 H   0  0  0  0  0  0  0  0  0  0  0  0
   -1.5496    1.4238   -2.0503 H   0  0  0  0  0  0  0  0  0  0  0  0
    0.3506    0.8895   -1.1192 C   0  0  0  0  0  0  0  0  0  0  0  0
    0.8709    1.8336   -0.9235 H   0  0  0  0  0  0  0  0  0  0  0  0
    0.6693    0.5206   -2.0995 H   0  0  0  0  0  0  0  0  0  0  0  0
    0.6416   -0.1726   -0.0549 C   0  0  1  0  0  0  0  0  0  0  0  0
    1.5121   -0.7669   -0.3549 H   0  0  0  0  0  0  0  0  0  0  0  0
    0.9545    0.5051    1.2958 C   0  0  0  0  0  0  0  0  0  0  0  0
    2.1160    0.6422    1.6555 O   0  0  0  0  0  0  0  0  0  0  0  0
   -0.0422    1.1538    2.0042 N   0  0  0  0  0  0  0  0  0  0  0  0
   -0.9960    0.9467    1.7257 H   0  0  0  0  0  0  0  0  0  0  0  0
    0.1931    1.8436    3.2663 C   0  0  0  0  0  0  0  0  0  0  0  0
    0.9364    2.6374    3.1367 H   0  0  0  0  0  0  0  0  0  0  0  0
   -0.7346    2.2973    3.6281 H   0  0  0  0  0  0  0  0  0  0  0  0
    0.5561    1.1417    4.0243 H   0  0  0  0  0  0  0  0  0  0  0  0
  1  2  1  0  0  0  0
  2  3  1  0  0  0  0
  2  4  1  0  0  0  0
  2  5  1  0  0  0  0
  5  6  2  0  0  0  0
  5  7  1  0  0  0  0
  7  8  1  0  0  0  0
  7 17  1  0  0  0  0
  8  9  1  0  0  0  0
  8 10  1  0  0  0  0
  8 11  1  0  0  0  0
 11 12  1  0  0  0  0
 11 13  1  0  0  0  0
 11 14  1  0  0  0  0
 14 15  1  0  0  0  0
 14 16  1  0  0  0  0
 14 17  1  0  0  0  0
 17 18  1  0  0  0  0
 17 19  1  0  0  0  0
 19 20  2  0  0  0  0
 19 21  1  0  0  0  0
 21 22  1  0  0  0  0
 21 23  1  0  0  0  0
 23 24  1  0  0  0  0
 23 25  1  0  0  0  0
 23 26  1  0  0  0  0
M  END
$$$$

  -OEChem-11182114133D

 26 26  0     1  0  0  0  0  0999 V2000
   -1.5831   -4.2667    0.0472 H   0  0  0  0  0  0  0  0  0  0  0  0
   -1.7786   -3.2332   -0.2530 C   0  0  0  0  0  0  0  0  0  0  0  0
   -2.6387   -2.8650    0.3112 H   0  0  0  0  0  0  0  0  0  0  0  0
   -2.0139   -3.2194   -1.3197 H   0  0  0  0  0  0  0  0  0  0  0  0
   -0.5566   -2.3669    0.0261 C   0  0  0  0  0  0  0  0  0  0  0  0
    0.4712   -2.9256    0.3770 O   0  0  0  0  0  0  0  0  0  0  0  0
   -0.6067   -0.9742   -0.0281 N   0  0  0  0  0  0  0  0  0  0  0  0
   -1.6918   -0.3285   -0.7623 C   0  0  0  0  0  0  0  0  0  0  0  0
   -2.6114   -0.2741   -0.1701 H   0  0  0  0  0  0  0  0  0  0  0  0
   -1.9019   -0.8575   -1.6983 H   0  0  0  0  0  0  0  0  0  0  0  0
   -1.1589    1.0588   -1.0750 C   0  0  0  0  0  0  0  0  0  0  0  0
   -1.4364    1.7550   -0.2770 H   0  0  0  0  0  0  0  0  0  0  0  0
   -1.5501    1.4439   -2.0219 H   0  0  0  0  0  0  0  0  0  0  0  0
    0.3543    0.8870   -1.1111 C   0  0  0  0  0  0  0  0  0  0  0  0
    0.8802    1.8270   -0.9109 H   0  0  0  0  0  0  0  0  0  0  0  0
    0.6650    0.5253   -2.0967 H   0  0  0  0  0  0  0  0  0  0  0  0
    0.6447   -0.1867   -0.0582 C   0  0  1  0  0  0  0  0  0  0  0  0
    1.5120   -0.7834   -0.3618 H   0  0  0  0  0  0  0  0  0  0  0  0
    0.9620    0.4926    1.2900 C   0  0  0  0  0  0  0  0  0  0  0  0
    2.1041    0.8578    1.5353 O   0  0  0  0  0  0  0  0  0  0  0  0
   -0.0612    0.8755    2.1392 N   0  0  0  0  0  0  0  0  0  0  0  0
   -0.9763    0.4839    1.9389 H   0  0  0  0  0  0  0  0  0  0  0  0
    0.1653    1.5344    3.4191 C   0  0  0  0  0  0  0  0  0  0  0  0
    0.6917    2.4836    3.2735 H   0  0  0  0  0  0  0  0  0  0  0  0
   -0.7892    1.7426    3.9117 H   0  0  0  0  0  0  0  0  0  0  0  0
    0.7644    0.8964    4.0772 H   0  0  0  0  0  0  0  0  0  0  0  0
  1  2  1  0  0  0  0
  2  3  1  0  0  0  0
  2  4  1  0  0  0  0
  2  5  1  0  0  0  0
  5  6  2  0  0  0  0
  5  7  1  0  0  0  0
  7  8  1  0  0  0  0
  7 17  1  0  0  0  0
  8  9  1  0  0  0  0
  8 10  1  0  0  0  0
  8 11  1  0  0  0  0
 11 12  1  0  0  0  0
 11 13  1  0  0  0  0
 11 14  1  0  0  0  0
 14 15  1  0  0  0  0
 14 16  1  0  0  0  0
 14 17  1  0  0  0  0
 17 18  1  0  0  0  0
 17 19  1  0  0  0  0
 19 20  2  0  0  0  0
 19 21  1  0  0  0  0
 21 22  1  0  0  0  0
 21 23  1  0  0  0  0
 23 24  1  0  0  0  0
 23 25  1  0  0  0  0
 23 26  1  0  0  0  0
M  END
$$$$

  -OEChem-11182114133D

 26 26  0     1  0  0  0  0  0999 V2000
   -1.5954   -4.2627    0.0438 H   0  0  0  0  0  0  0  0  0  0  0  0
   -1.7838   -3.2305   -0.2650 C   0  0  0  0  0  0  0  0  0  0  0  0
   -2.6464   -2.8545    0.2901 H   0  0  0  0  0  0  0  0  0  0  0  0
   -2.0113   -3.2228   -1.3334 H   0  0  0  0  0  0  0  0  0  0  0  0
   -0.5597   -2.3685    0.0172 C   0  0  0  0  0  0  0  0  0  0  0  0
    0.4645   -2.9287    0.3763 O   0  0  0  0  0  0  0  0  0  0  0  0
   -0.6045   -0.9759   -0.0357 N   0  0  0  0  0  0  0  0  0  0  0  0
   -1.6927   -0.3223   -0.7571 C   0  0  0  0  0  0  0  0  0  0  0  0
   -2.6074   -0.2673   -0.1575 H   0  0  0  0  0  0  0  0  0  0  0  0
   -1.9119   -0.8451   -1.6945 H   0  0  0  0  0  0  0  0  0  0  0  0
   -1.1562    1.0639   -1.0638 C   0  0  0  0  0  0  0  0  0  0  0  0
   -1.4249    1.7538   -0.2568 H   0  0  0  0  0  0  0  0  0  0  0  0
   -1.5524    1.4584   -2.0046 H   0  0  0  0  0  0  0  0  0  0  0  0
    0.3563    0.8886   -1.1099 C   0  0  0  0  0  0  0  0  0  0  0  0
    0.8852    1.8275   -0.9111 H   0  0  0  0  0  0  0  0  0  0  0  0
    0.6594    0.5308   -2.0993 H   0  0  0  0  0  0  0  0  0  0  0  0
    0.6508   -0.1930   -0.0649 C   0  0  1  0  0  0  0  0  0  0  0  0
    1.5163   -0.7902   -0.3722 H   0  0  0  0  0  0  0  0  0  0  0  0
    0.9704    0.4839    1.2848 C   0  0  0  0  0  0  0  0  0  0  0  0
    2.0447    1.0478    1.4492 O   0  0  0  0  0  0  0  0  0  0  0  0
   -0.0025    0.5921    2.2622 N   0  0  0  0  0  0  0  0  0  0  0  0
   -0.8468    0.0476    2.1128 H   0  0  0  0  0  0  0  0  0  0  0  0
    0.2280    1.2097    3.5615 C   0  0  0  0  0  0  0  0  0  0  0  0
    0.5185    2.2585    3.4405 H   0  0  0  0  0  0  0  0  0  0  0  0
   -0.6837    1.1719    4.1650 H   0  0  0  0  0  0  0  0  0  0  0  0
    1.0231    0.6833    4.0998 H   0  0  0  0  0  0  0  0  0  0  0  0
  1  2  1  0  0  0  0
  2  3  1  0  0  0  0
  2  4  1  0  0  0  0
  2  5  1  0  0  0  0
  5  6  2  0  0  0  0
  5  7  1  0  0  0  0
  7  8  1  0  0  0  0
  7 17  1  0  0  0  0
  8  9  1  0  0  0  0
  8 10  1  0  0  0  0
  8 11  1  0  0  0  0
 11 12  1  0  0  0  0
 11 13  1  0  0  0  0
 11 14  1  0  0  0  0
 14 15  1  0  0  0  0
 14 16  1  0  0  0  0
 14 17  1  0  0  0  0
 17 18  1  0  0  0  0
 17 19  1  0  0  0  0
 19 20  2  0  0  0  0
 19 21  1  0  0  0  0
 21 22  1  0  0  0  0
 21 23  1  0  0  0  0
 23 24  1  0  0  0  0
 23 25  1  0  0  0  0
 23 26  1  0  0  0  0
M  END
$$$$

  -OEChem-11182114133D

 26 26  0     1  0  0  0  0  0999 V2000
   -1.6063   -4.2535    0.0453 H   0  0  0  0  0  0  0  0  0  0  0  0
   -1.7861   -3.2243   -0.2782 C   0  0  0  0  0  0  0  0  0  0  0  0
   -2.6597   -2.8409    0.2543 H   0  0  0  0  0  0  0  0  0  0  0  0
   -1.9910   -3.2273   -1.3512 H   0  0  0  0  0  0  0  0  0  0  0  0
   -0.5664   -2.3613    0.0197 C   0  0  0  0  0  0  0  0  0  0  0  0
    0.4507   -2.9184    0.4031 O   0  0  0  0  0  0  0  0  0  0  0  0
   -0.6091   -0.9689   -0.0339 N   0  0  0  0  0  0  0  0  0  0  0  0
   -1.6976   -0.3162   -0.7549 C   0  0  0  0  0  0  0  0  0  0  0  0
   -2.6104   -0.2575   -0.1530 H   0  0  0  0  0  0  0  0  0  0  0  0
   -1.9202   -0.8414   -1.6902 H   0  0  0  0  0  0  0  0  0  0  0  0
   -1.1597    1.0666   -1.0683 C   0  0  0  0  0  0  0  0  0  0  0  0
   -1.4250    1.7587   -0.2620 H   0  0  0  0  0  0  0  0  0  0  0  0
   -1.5583    1.4594   -2.0089 H   0  0  0  0  0  0  0  0  0  0  0  0
    0.3520    0.8894   -1.1163 C   0  0  0  0  0  0  0  0  0  0  0  0
    0.8808    1.8303   -0.9286 H   0  0  0  0  0  0  0  0  0  0  0  0
    0.6507    0.5252   -2.1046 H   0  0  0  0  0  0  0  0  0  0  0  0
    0.6491   -0.1891   -0.0661 C   0  0  1  0  0  0  0  0  0  0  0  0
    1.5129   -0.7887   -0.3730 H   0  0  0  0  0  0  0  0  0  0  0  0
    0.9721    0.4877    1.2851 C   0  0  0  0  0  0  0  0  0  0  0  0
    1.9423    1.2281    1.3903 O   0  0  0  0  0  0  0  0  0  0  0  0
    0.1252    0.3336    2.3675 N   0  0  0  0  0  0  0  0  0  0  0  0
   -0.6086   -0.3612    2.2629 H   0  0  0  0  0  0  0  0  0  0  0  0
    0.3923    0.8953    3.6850 C   0  0  0  0  0  0  0  0  0  0  0  0
    0.4606    1.9867    3.6293 H   0  0  0  0  0  0  0  0  0  0  0  0
   -0.4140    0.6353    4.3773 H   0  0  0  0  0  0  0  0  0  0  0  0
    1.3331    0.5028    4.0850 H   0  0  0  0  0  0  0  0  0  0  0  0
  1  2  1  0  0  0  0
  2  3  1  0  0  0  0
  2  4  1  0  0  0  0
  2  5  1  0  0  0  0
  5  6  2  0  0  0  0
  5  7  1  0  0  0  0
  7  8  1  0  0  0  0
  7 17  1  0  0  0  0
  8  9  1  0  0  0  0
  8 10  1  0  0  0  0
  8 11  1  0  0  0  0
 11 12  1  0  0  0  0
 11 13  1  0  0  0  0
 11 14  1  0  0  0  0
 14 15  1  0  0  0  0
 14 16  1  0  0  0  0
 14 17  1  0  0  0  0
 17 18  1  0  0  0  0
 17 19  1  0  0  0  0
 19 20  2  0  0  0  0
 19 21  1  0  0  0  0
 21 22  1  0  0  0  0
 21 23  1  0  0  0  0
 23 24  1  0  0  0  0
 23 25  1  0  0  0  0
 23 26  1  0  0  0  0
M  END
$$$$

  -OEChem-11182114133D

 26 26  0     1  0  0  0  0  0999 V2000
   -1.6038   -4.2427    0.0452 H   0  0  0  0  0  0  0  0  0  0  0  0
   -1.7864   -3.2134   -0.2765 C   0  0  0  0  0  0  0  0  0  0  0  0
   -2.6635   -2.8344    0.2534 H   0  0  0  0  0  0  0  0  0  0  0  0
   -1.9872   -3.2153   -1.3503 H   0  0  0  0  0  0  0  0  0  0  0  0
   -0.5712   -2.3461    0.0284 C   0  0  0  0  0  0  0  0  0  0  0  0
    0.4395   -2.8967    0.4382 O   0  0  0  0  0  0  0  0  0  0  0  0
   -0.6137   -0.9541   -0.0262 N   0  0  0  0  0  0  0  0  0  0  0  0
   -1.7023   -0.3057   -0.7512 C   0  0  0  0  0  0  0  0  0  0  0  0
   -2.6130   -0.2384   -0.1468 H   0  0  0  0  0  0  0  0  0  0  0  0
   -1.9297   -0.8388   -1.6808 H   0  0  0  0  0  0  0  0  0  0  0  0
   -1.1626    1.0719   -1.0798 C   0  0  0  0  0  0  0  0  0  0  0  0
   -1.4254    1.7733   -0.2806 H   0  0  0  0  0  0  0  0  0  0  0  0
   -1.5618    1.4553   -2.0240 H   0  0  0  0  0  0  0  0  0  0  0  0
    0.3485    0.8919   -1.1280 C   0  0  0  0  0  0  0  0  0  0  0  0
    0.8777    1.8355   -0.9580 H   0  0  0  0  0  0  0  0  0  0  0  0
    0.6439    0.5141   -2.1121 H   0  0  0  0  0  0  0  0  0  0  0  0
    0.6467   -0.1772   -0.0657 C   0  0  1  0  0  0  0  0  0  0  0  0
    1.5086   -0.7808   -0.3695 H   0  0  0  0  0  0  0  0  0  0  0  0
    0.9692    0.4956    1.2900 C   0  0  0  0  0  0  0  0  0  0  0  0
    1.7968    1.3961    1.3648 O   0  0  0  0  0  0  0  0  0  0  0  0
    0.3093    0.0994    2.4391 N   0  0  0  0  0  0  0  0  0  0  0  0
   -0.2668   -0.7336    2.3537 H   0  0  0  0  0  0  0  0  0  0  0  0
    0.6297    0.6074    3.7665 C   0  0  0  0  0  0  0  0  0  0  0  0
    0.5070    1.6950    3.8009 H   0  0  0  0  0  0  0  0  0  0  0  0
   -0.0359    0.1621    4.5118 H   0  0  0  0  0  0  0  0  0  0  0  0
    1.6630    0.3604    4.0315 H   0  0  0  0  0  0  0  0  0  0  0  0
  1  2  1  0  0  0  0
  2  3  1  0  0  0  0
  2  4  1  0  0  0  0
  2  5  1  0  0  0  0
  5  6  2  0  0  0  0
  5  7  1  0  0  0  0
  7  8  1  0  0  0  0
  7 17  1  0  0  0  0
  8  9  1  0  0  0  0
  8 10  1  0  0  0  0
  8 11  1  0  0  0  0
 11 12  1  0  0  0  0
 11 13  1  0  0  0  0
 11 14  1  0  0  0  0
 14 15  1  0  0  0  0
 14 16  1  0  0  0  0
 14 17  1  0  0  0  0
 17 18  1  0  0  0  0
 17 19  1  0  0  0  0
 19 20  2  0  0  0  0
 19 21  1  0  0  0  0
 21 22  1  0  0  0  0
 21 23  1  0  0  0  0
 23 24  1  0  0  0  0
 23 25  1  0  0  0  0
 23 26  1  0  0  0  0
M  END
$$$$

  -OEChem-11182114133D

 26 26  0     1  0  0  0  0  0999 V2000
   -1.6077   -4.2221    0.0693 H   0  0  0  0  0  0  0  0  0  0  0  0
   -1.7850   -3.1959   -0.2646 C   0  0  0  0  0  0  0  0  0  0  0  0
   -2.6718   -2.8131    0.2464 H   0  0  0  0  0  0  0  0  0  0  0  0
   -1.9665   -3.2069   -1.3419 H   0  0  0  0  0  0  0  0  0  0  0  0
   -0.5761   -2.3252    0.0545 C   0  0  0  0  0  0  0  0  0  0  0  0
    0.4246   -2.8680    0.4998 O   0  0  0  0  0  0  0  0  0  0  0  0
   -0.6149   -0.9340   -0.0050 N   0  0  0  0  0  0  0  0  0  0  0  0
   -1.7058   -0.2880   -0.7294 C   0  0  0  0  0  0  0  0  0  0  0  0
   -2.6092   -0.2043   -0.1161 H   0  0  0  0  0  0  0  0  0  0  0  0
   -1.9483   -0.8325   -1.6484 H   0  0  0  0  0  0  0  0  0  0  0  0
   -1.1597    1.0800   -1.0851 C   0  0  0  0  0  0  0  0  0  0  0  0
   -1.4089    1.7951   -0.2938 H   0  0  0  0  0  0  0  0  0  0  0  0
   -1.5656    1.4519   -2.0309 H   0  0  0  0  0  0  0  0  0  0  0  0
    0.3490    0.8897   -1.1455 C   0  0  0  0  0  0  0  0  0  0  0  0
    0.8869    1.8323   -1.0025 H   0  0  0  0  0  0  0  0  0  0  0  0
    0.6298    0.4919   -2.1261 H   0  0  0  0  0  0  0  0  0  0  0  0
    0.6495   -0.1656   -0.0686 C   0  0  1  0  0  0  0  0  0  0  0  0
    1.5054   -0.7771   -0.3727 H   0  0  0  0  0  0  0  0  0  0  0  0
    0.9769    0.4992    1.2913 C   0  0  0  0  0  0  0  0  0  0  0  0
    1.6032    1.5503    1.3638 O   0  0  0  0  0  0  0  0  0  0  0  0
    0.5572   -0.1081    2.4607 N   0  0  0  0  0  0  0  0  0  0  0  0
    0.1848   -1.0499    2.3577 H   0  0  0  0  0  0  0  0  0  0  0  0
    0.9126    0.3696    3.7903 C   0  0  0  0  0  0  0  0  0  0  0  0
    0.5683    1.3993    3.9326 H   0  0  0  0  0  0  0  0  0  0  0  0
    0.4439   -0.2582    4.5540 H   0  0  0  0  0  0  0  0  0  0  0  0
    1.9979    0.3372    3.9313 H   0  0  0  0  0  0  0  0  0  0  0  0
  1  2  1  0  0  0  0
  2  3  1  0  0  0  0
  2  4  1  0  0  0  0
  2  5  1  0  0  0  0
  5  6  2  0  0  0  0
  5  7  1  0  0  0  0
  7  8  1  0  0  0  0
  7 17  1  0  0  0  0
  8  9  1  0  0  0  0
  8 10  1  0  0  0  0
  8 11  1  0  0  0  0
 11 12  1  0  0  0  0
 11 13  1  0  0  0  0
 11 14  1  0  0  0  0
 14 15  1  0  0  0  0
 14 16  1  0  0  0  0
 14 17  1  0  0  0  0
 17 18  1  0  0  0  0
 17 19  1  0  0  0  0
 19 20  2  0  0  0  0
 19 21  1  0  0  0  0
 21 22  1  0  0  0  0
 21 23  1  0  0  0  0
 23 24  1  0  0  0  0
 23 25  1  0  0  0  0
 23 26  1  0  0  0  0
M  END
$$$$

  -OEChem-11182114133D

 26 26  0     1  0  0  0  0  0999 V2000
   -1.6021   -4.2057    0.1072 H   0  0  0  0  0  0  0  0  0  0  0  0
   -1.7804   -3.1809   -0.2308 C   0  0  0  0  0  0  0  0  0  0  0  0
   -2.6644   -2.7949    0.2826 H   0  0  0  0  0  0  0  0  0  0  0  0
   -1.9669   -3.1968   -1.3071 H   0  0  0  0  0  0  0  0  0  0  0  0
   -0.5697   -2.3091    0.0783 C   0  0  0  0  0  0  0  0  0  0  0  0
    0.4322   -2.8487    0.5278 O   0  0  0  0  0  0  0  0  0  0  0  0
   -0.6050   -0.9183    0.0117 N   0  0  0  0  0  0  0  0  0  0  0  0
   -1.7013   -0.2707   -0.7033 C   0  0  0  0  0  0  0  0  0  0  0  0
   -2.5947   -0.1739   -0.0776 H   0  0  0  0  0  0  0  0  0  0  0  0
   -1.9614   -0.8221   -1.6132 H   0  0  0  0  0  0  0  0  0  0  0  0
   -1.1506    1.0899   -1.0807 C   0  0  0  0  0  0  0  0  0  0  0  0
   -1.3810    1.8146   -0.2922 H   0  0  0  0  0  0  0  0  0  0  0  0
   -1.5693    1.4565   -2.0231 H   0  0  0  0  0  0  0  0  0  0  0  0
    0.3556    0.8873   -1.1629 C   0  0  0  0  0  0  0  0  0  0  0  0
    0.9057    1.8258   -1.0403 H   0  0  0  0  0  0  0  0  0  0  0  0
    0.6161    0.4761   -2.1433 H   0  0  0  0  0  0  0  0  0  0  0  0
    0.6625   -0.1604   -0.0796 C   0  0  1  0  0  0  0  0  0  0  0  0
    1.5117   -0.7782   -0.3894 H   0  0  0  0  0  0  0  0  0  0  0  0
    0.9964    0.4974    1.2817 C   0  0  0  0  0  0  0  0  0  0  0  0
    1.3848    1.6561    1.3811 O   0  0  0  0  0  0  0  0  0  0  0  0
    0.8593   -0.2612    2.4294 N   0  0  0  0  0  0  0  0  0  0  0  0
    0.6429   -1.2479    2.2889 H   0  0  0  0  0  0  0  0  0  0  0  0
    1.2156    0.2082    3.7615 C   0  0  0  0  0  0  0  0  0  0  0  0
    0.6417    1.1051    4.0172 H   0  0  0  0  0  0  0  0  0  0  0  0
    0.9965   -0.5646    4.5046 H   0  0  0  0  0  0  0  0  0  0  0  0
    2.2834    0.4454    3.8113 H   0  0  0  0  0  0  0  0  0  0  0  0
  1  2  1  0  0  0  0
  2  3  1  0  0  0  0
  2  4  1  0  0  0  0
  2  5  1  0  0  0  0
  5  6  2  0  0  0  0
  5  7  1  0  0  0  0
  7  8  1  0  0  0  0
  7 17  1  0  0  0  0
  8  9  1  0  0  0  0
  8 10  1  0  0  0  0
  8 11  1  0  0  0  0
 11 12  1  0  0  0  0
 11 13  1  0  0  0  0
 11 14  1  0  0  0  0
 14 15  1  0  0  0  0
 14 16  1  0  0  0  0
 14 17  1  0  0  0  0
 17 18  1  0  0  0  0
 17 19  1  0  0  0  0
 19 20  2  0  0  0  0
 19 21  1  0  0  0  0
 21 22  1  0  0  0  0
 21 23  1  0  0  0  0
 23 24  1  0  0  0  0
 23 25  1  0  0  0  0
 23 26  1  0  0  0  0
M  END
$$$$

  -OEChem-11182114133D

 26 26  0     1  0  0  0  0  0999 V2000
   -1.5943   -4.1892    0.1499 H   0  0  0  0  0  0  0  0  0  0  0  0
   -1.7763   -3.1637   -0.1836 C   0  0  0  0  0  0  0  0  0  0  0  0
   -2.6451   -2.7734    0.3521 H   0  0  0  0  0  0  0  0  0  0  0  0
   -1.9903   -3.1785   -1.2549 H   0  0  0  0  0  0  0  0  0  0  0  0
   -0.5547   -2.2970    0.0948 C   0  0  0  0  0  0  0  0  0  0  0  0
    0.4586   -2.8400    0.5166 O   0  0  0  0  0  0  0  0  0  0  0  0
   -0.5868   -0.9066    0.0218 N   0  0  0  0  0  0  0  0  0  0  0  0
   -1.6908   -0.2580   -0.6805 C   0  0  0  0  0  0  0  0  0  0  0  0
   -2.5739   -0.1520   -0.0415 H   0  0  0  0  0  0  0  0  0  0  0  0
   -1.9684   -0.8139   -1.5824 H   0  0  0  0  0  0  0  0  0  0  0  0
   -1.1378    1.0969   -1.0758 C   0  0  0  0  0  0  0  0  0  0  0  0
   -1.3515    1.8281   -0.2887 H   0  0  0  0  0  0  0  0  0  0  0  0
   -1.5692    1.4593   -2.0138 H   0  0  0  0  0  0  0  0  0  0  0  0
    0.3661    0.8847   -1.1804 C   0  0  0  0  0  0  0  0  0  0  0  0
    0.9255    1.8192   -1.0678 H   0  0  0  0  0  0  0  0  0  0  0  0
    0.6097    0.4673   -2.1627 H   0  0  0  0  0  0  0  0  0  0  0  0
    0.6816   -0.1575   -0.0952 C   0  0  1  0  0  0  0  0  0  0  0  0
    1.5242   -0.7793   -0.4147 H   0  0  0  0  0  0  0  0  0  0  0  0
    1.0287    0.4982    1.2623 C   0  0  0  0  0  0  0  0  0  0  0  0
    1.1588    1.7085    1.4108 O   0  0  0  0  0  0  0  0  0  0  0  0
    1.2032   -0.3342    2.3517 N   0  0  0  0  0  0  0  0  0  0  0  0
    1.0833   -1.3337    2.1816 H   0  0  0  0  0  0  0  0  0  0  0  0
    1.5242    0.1324    3.6935 C   0  0  0  0  0  0  0  0  0  0  0  0
    0.7204    0.7678    4.0793 H   0  0  0  0  0  0  0  0  0  0  0  0
    1.6480   -0.7193    4.3693 H   0  0  0  0  0  0  0  0  0  0  0  0
    2.4564    0.7068    3.6875 H   0  0  0  0  0  0  0  0  0  0  0  0
  1  2  1  0  0  0  0
  2  3  1  0  0  0  0
  2  4  1  0  0  0  0
  2  5  1  0  0  0  0
  5  6  2  0  0  0  0
  5  7  1  0  0  0  0
  7  8  1  0  0  0  0
  7 17  1  0  0  0  0
  8  9  1  0  0  0  0
  8 10  1  0  0  0  0
  8 11  1  0  0  0  0
 11 12  1  0  0  0  0
 11 13  1  0  0  0  0
 11 14  1  0  0  0  0
 14 15  1  0  0  0  0
 14 16  1  0  0  0  0
 14 17  1  0  0  0  0
 17 18  1  0  0  0  0
 17 19  1  0  0  0  0
 19 20  2  0  0  0  0
 19 21  1  0  0  0  0
 21 22  1  0  0  0  0
 21 23  1  0  0  0  0
 23 24  1  0  0  0  0
 23 25  1  0  0  0  0
 23 26  1  0  0  0  0
M  END
$$$$

  -OEChem-11182114133D

 26 26  0     1  0  0  0  0  0999 V2000
   -1.5745   -4.1787    0.1972 H   0  0  0  0  0  0  0  0  0  0  0  0
   -1.7665   -3.1541   -0.1331 C   0  0  0  0  0  0  0  0  0  0  0  0
   -2.6141   -2.7597    0.4328 H   0  0  0  0  0  0  0  0  0  0  0  0
   -2.0199   -3.1720   -1.1955 H   0  0  0  0  0  0  0  0  0  0  0  0
   -0.5341   -2.2892    0.0982 C   0  0  0  0  0  0  0  0  0  0  0  0
    0.4948   -2.8340    0.4790 O   0  0  0  0  0  0  0  0  0  0  0  0
   -0.5693   -0.8992    0.0193 N   0  0  0  0  0  0  0  0  0  0  0  0
   -1.6808   -0.2529   -0.6725 C   0  0  0  0  0  0  0  0  0  0  0  0
   -2.5581   -0.1474   -0.0255 H   0  0  0  0  0  0  0  0  0  0  0  0
   -1.9654   -0.8107   -1.5710 H   0  0  0  0  0  0  0  0  0  0  0  0
   -1.1316    1.1024   -1.0733 C   0  0  0  0  0  0  0  0  0  0  0  0
   -1.3401    1.8337   -0.2848 H   0  0  0  0  0  0  0  0  0  0  0  0
   -1.5710    1.4645   -2.0078 H   0  0  0  0  0  0  0  0  0  0  0  0
    0.3721    0.8893   -1.1910 C   0  0  0  0  0  0  0  0  0  0  0  0
    0.9333    1.8227   -1.0764 H   0  0  0  0  0  0  0  0  0  0  0  0
    0.6090    0.4741   -2.1757 H   0  0  0  0  0  0  0  0  0  0  0  0
    0.6969   -0.1519   -0.1090 C   0  0  1  0  0  0  0  0  0  0  0  0
    1.5388   -0.7706   -0.4369 H   0  0  0  0  0  0  0  0  0  0  0  0
    1.0507    0.5084    1.2429 C   0  0  0  0  0  0  0  0  0  0  0  0
    0.9366    1.7112    1.4556 O   0  0  0  0  0  0  0  0  0  0  0  0
    1.5360   -0.3123    2.2429 N   0  0  0  0  0  0  0  0  0  0  0  0
    1.5074   -1.3147    2.0529 H   0  0  0  0  0  0  0  0  0  0  0  0
    1.8311    0.1465    3.5934 C   0  0  0  0  0  0  0  0  0  0  0  0
    0.9169    0.4905    4.0881 H   0  0  0  0  0  0  0  0  0  0  0  0
    2.2604   -0.6692    4.1828 H   0  0  0  0  0  0  0  0  0  0  0  0
    2.5522    0.9703    3.5705 H   0  0  0  0  0  0  0  0  0  0  0  0
  1  2  1  0  0  0  0
  2  3  1  0  0  0  0
  2  4  1  0  0  0  0
  2  5  1  0  0  0  0
  5  6  2  0  0  0  0
  5  7  1  0  0  0  0
  7  8  1  0  0  0  0
  7 17  1  0  0  0  0
  8  9  1  0  0  0  0
  8 10  1  0  0  0  0
  8 11  1  0  0  0  0
 11 12  1  0  0  0  0
 11 13  1  0  0  0  0
 11 14  1  0  0  0  0
 14 15  1  0  0  0  0
 14 16  1  0  0  0  0
 14 17  1  0  0  0  0
 17 18  1  0  0  0  0
 17 19  1  0  0  0  0
 19 20  2  0  0  0  0
 19 21  1  0  0  0  0
 21 22  1  0  0  0  0
 21 23  1  0  0  0  0
 23 24  1  0  0  0  0
 23 25  1  0  0  0  0
 23 26  1  0  0  0  0
M  END
$$$$

  -OEChem-11182114133D

 26 26  0     1  0  0  0  0  0999 V2000
   -1.5684   -4.1803    0.2121 H   0  0  0  0  0  0  0  0  0  0  0  0
   -1.7631   -3.1584   -0.1251 C   0  0  0  0  0  0  0  0  0  0  0  0
   -2.6070   -2.7599    0.4433 H   0  0  0  0  0  0  0  0  0  0  0  0
   -2.0236   -3.1841   -1.1857 H   0  0  0  0  0  0  0  0  0  0  0  0
   -0.5293   -2.2917    0.0913 C   0  0  0  0  0  0  0  0  0  0  0  0
    0.5104   -2.8390    0.4387 O   0  0  0  0  0  0  0  0  0  0  0  0
   -0.5707   -0.9016    0.0141 N   0  0  0  0  0  0  0  0  0  0  0  0
   -1.6823   -0.2581   -0.6805 C   0  0  0  0  0  0  0  0  0  0  0  0
   -2.5632   -0.1594   -0.0374 H   0  0  0  0  0  0  0  0  0  0  0  0
   -1.9597   -0.8140   -1.5826 H   0  0  0  0  0  0  0  0  0  0  0  0
   -1.1371    1.1016   -1.0716 C   0  0  0  0  0  0  0  0  0  0  0  0
   -1.3563    1.8291   -0.2825 H   0  0  0  0  0  0  0  0  0  0  0  0
   -1.5711    1.4647   -2.0081 H   0  0  0  0  0  0  0  0  0  0  0  0
    0.3689    0.8945   -1.1797 C   0  0  0  0  0  0  0  0  0  0  0  0
    0.9246    1.8296   -1.0508 H   0  0  0  0  0  0  0  0  0  0  0  0
    0.6150    0.4875   -2.1657 H   0  0  0  0  0  0  0  0  0  0  0  0
    0.6932   -0.1502   -0.1013 C   0  0  1  0  0  0  0  0  0  0  0  0
    1.5376   -0.7634   -0.4326 H   0  0  0  0  0  0  0  0  0  0  0  0
    1.0466    0.5169    1.2472 C   0  0  0  0  0  0  0  0  0  0  0  0
    0.7168    1.6641    1.5314 O   0  0  0  0  0  0  0  0  0  0  0  0
    1.8161   -0.2048    2.1400 N   0  0  0  0  0  0  0  0  0  0  0  0
    1.9300   -1.1960    1.9299 H   0  0  0  0  0  0  0  0  0  0  0  0
    2.1525    0.2727    3.4748 C   0  0  0  0  0  0  0  0  0  0  0  0
    1.2465    0.3924    4.0778 H   0  0  0  0  0  0  0  0  0  0  0  0
    2.8124   -0.4423    3.9752 H   0  0  0  0  0  0  0  0  0  0  0  0
    2.6695    1.2364    3.4193 H   0  0  0  0  0  0  0  0  0  0  0  0
  1  2  1  0  0  0  0
  2  3  1  0  0  0  0
  2  4  1  0  0  0  0
  2  5  1  0  0  0  0
  5  6  2  0  0  0  0
  5  7  1  0  0  0  0
  7  8  1  0  0  0  0
  7 17  1  0  0  0  0
  8  9  1  0  0  0  0
  8 10  1  0  0  0  0
  8 11  1  0  0  0  0
 11 12  1  0  0  0  0
 11 13  1  0  0  0  0
 11 14  1  0  0  0  0
 14 15  1  0  0  0  0
 14 16  1  0  0  0  0
 14 17  1  0  0  0  0
 17 18  1  0  0  0  0
 17 19  1  0  0  0  0
 19 20  2  0  0  0  0
 19 21  1  0  0  0  0
 21 22  1  0  0  0  0
 21 23  1  0  0  0  0
 23 24  1  0  0  0  0
 23 25  1  0  0  0  0
 23 26  1  0  0  0  0
M  END
$$$$

  -OEChem-11182114133D

 26 26  0     1  0  0  0  0  0999 V2000
   -1.5696   -4.1889    0.2039 H   0  0  0  0  0  0  0  0  0  0  0  0
   -1.7697   -3.1629   -0.1175 C   0  0  0  0  0  0  0  0  0  0  0  0
   -2.5988   -2.7689    0.4753 H   0  0  0  0  0  0  0  0  0  0  0  0
   -2.0556   -3.1767   -1.1717 H   0  0  0  0  0  0  0  0  0  0  0  0
   -0.5292   -2.3009    0.0791 C   0  0  0  0  0  0  0  0  0  0  0  0
    0.5177   -2.8554    0.3909 O   0  0  0  0  0  0  0  0  0  0  0  0
   -0.5710   -0.9105    0.0045 N   0  0  0  0  0  0  0  0  0  0  0  0
   -1.6816   -0.2669   -0.6917 C   0  0  0  0  0  0  0  0  0  0  0  0
   -2.5664   -0.1777   -0.0527 H   0  0  0  0  0  0  0  0  0  0  0  0
   -1.9502   -0.8172   -1.5997 H   0  0  0  0  0  0  0  0  0  0  0  0
   -1.1405    1.0986   -1.0673 C   0  0  0  0  0  0  0  0  0  0  0  0
   -1.3723    1.8196   -0.2762 H   0  0  0  0  0  0  0  0  0  0  0  0
   -1.5683    1.4657   -2.0051 H   0  0  0  0  0  0  0  0  0  0  0  0
    0.3679    0.8993   -1.1649 C   0  0  0  0  0  0  0  0  0  0  0  0
    0.9151    1.8366   -1.0161 H   0  0  0  0  0  0  0  0  0  0  0  0
    0.6262    0.5061   -2.1534 H   0  0  0  0  0  0  0  0  0  0  0  0
    0.6903   -0.1525   -0.0940 C   0  0  1  0  0  0  0  0  0  0  0  0
    1.5368   -0.7612   -0.4281 H   0  0  0  0  0  0  0  0  0  0  0  0
    1.0446    0.5235    1.2504 C   0  0  0  0  0  0  0  0  0  0  0  0
    0.5100    1.5617    1.6270 O   0  0  0  0  0  0  0  0  0  0  0  0
    2.0550   -0.0267    2.0172 N   0  0  0  0  0  0  0  0  0  0  0  0
    2.3524   -0.9652    1.7577 H   0  0  0  0  0  0  0  0  0  0  0  0
    2.4203    0.4802    3.3337 C   0  0  0  0  0  0  0  0  0  0  0  0
    1.5815    0.3753    4.0295 H   0  0  0  0  0  0  0  0  0  0  0  0
    3.2736   -0.0788    3.7296 H   0  0  0  0  0  0  0  0  0  0  0  0
    2.7002    1.5374    3.2748 H   0  0  0  0  0  0  0  0  0  0  0  0
  1  2  1  0  0  0  0
  2  3  1  0  0  0  0
  2  4  1  0  0  0  0
  2  5  1  0  0  0  0
  5  6  2  0  0  0  0
  5  7  1  0  0  0  0
  7  8  1  0  0  0  0
  7 17  1  0  0  0  0
  8  9  1  0  0  0  0
  8 10  1  0  0  0  0
  8 11  1  0  0  0  0
 11 12  1  0  0  0  0
 11 13  1  0  0  0  0
 11 14  1  0  0  0  0
 14 15  1  0  0  0  0
 14 16  1  0  0  0  0
 14 17  1  0  0  0  0
 17 18  1  0  0  0  0
 17 19  1  0  0  0  0
 19 20  2  0  0  0  0
 19 21  1  0  0  0  0
 21 22  1  0  0  0  0
 21 23  1  0  0  0  0
 23 24  1  0  0  0  0
 23 25  1  0  0  0  0
 23 26  1  0  0  0  0
M  END
$$$$

  -OEChem-11182114133D

 26 26  0     1  0  0  0  0  0999 V2000
   -1.5660   -4.1971    0.1986 H   0  0  0  0  0  0  0  0  0  0  0  0
   -1.7742   -3.1673   -0.1050 C   0  0  0  0  0  0  0  0  0  0  0  0
   -2.5846   -2.7788    0.5167 H   0  0  0  0  0  0  0  0  0  0  0  0
   -2.0912   -3.1688   -1.1502 H   0  0  0  0  0  0  0  0  0  0  0  0
   -0.5274   -2.3090    0.0662 C   0  0  0  0  0  0  0  0  0  0  0  0
    0.5249   -2.8690    0.3476 O   0  0  0  0  0  0  0  0  0  0  0  0
   -0.5695   -0.9187   -0.0072 N   0  0  0  0  0  0  0  0  0  0  0  0
   -1.6794   -0.2757   -0.7043 C   0  0  0  0  0  0  0  0  0  0  0  0
   -2.5686   -0.1971   -0.0700 H   0  0  0  0  0  0  0  0  0  0  0  0
   -1.9390   -0.8196   -1.6188 H   0  0  0  0  0  0  0  0  0  0  0  0
   -1.1433    1.0963   -1.0639 C   0  0  0  0  0  0  0  0  0  0  0  0
   -1.3858    1.8094   -0.2687 H   0  0  0  0  0  0  0  0  0  0  0  0
   -1.5663    1.4685   -2.0019 H   0  0  0  0  0  0  0  0  0  0  0  0
    0.3673    0.9060   -1.1522 C   0  0  0  0  0  0  0  0  0  0  0  0
    0.9077    1.8448   -0.9888 H   0  0  0  0  0  0  0  0  0  0  0  0
    0.6351    0.5237   -2.1425 H   0  0  0  0  0  0  0  0  0  0  0  0
    0.6886   -0.1532   -0.0893 C   0  0  1  0  0  0  0  0  0  0  0  0
    1.5380   -0.7577   -0.4227 H   0  0  0  0  0  0  0  0  0  0  0  0
    1.0395    0.5316    1.2521 C   0  0  0  0  0  0  0  0  0  0  0  0
    0.3332    1.4080    1.7400 O   0  0  0  0  0  0  0  0  0  0  0  0
    2.2291    0.2067    1.8787 N   0  0  0  0  0  0  0  0  0  0  0  0
    2.7075   -0.6226    1.5358 H   0  0  0  0  0  0  0  0  0  0  0  0
    2.6132    0.7417    3.1791 C   0  0  0  0  0  0  0  0  0  0  0  0
    1.9036    0.4211    3.9490 H   0  0  0  0  0  0  0  0  0  0  0  0
    3.6101    0.3843    3.4544 H   0  0  0  0  0  0  0  0  0  0  0  0
    2.6359    1.8363    3.1536 H   0  0  0  0  0  0  0  0  0  0  0  0
  1  2  1  0  0  0  0
  2  3  1  0  0  0  0
  2  4  1  0  0  0  0
  2  5  1  0  0  0  0
  5  6  2  0  0  0  0
  5  7  1  0  0  0  0
  7  8  1  0  0  0  0
  7 17  1  0  0  0  0
  8  9  1  0  0  0  0
  8 10  1  0  0  0  0
  8 11  1  0  0  0  0
 11 12  1  0  0  0  0
 11 13  1  0  0  0  0
 11 14  1  0  0  0  0
 14 15  1  0  0  0  0
 14 16  1  0  0  0  0
 14 17  1  0  0  0  0
 17 18  1  0  0  0  0
 17 19  1  0  0  0  0
 19 20  2  0  0  0  0
 19 21  1  0  0  0  0
 21 22  1  0  0  0  0
 21 23  1  0  0  0  0
 23 24  1  0  0  0  0
 23 25  1  0  0  0  0
 23 26  1  0  0  0  0
M  END
$$$$

  -OEChem-11182114133D

 26 26  0     1  0  0  0  0  0999 V2000
   -1.5758   -4.2028    0.2091 H   0  0  0  0  0  0  0  0  0  0  0  0
   -1.7778   -3.1765   -0.1098 C   0  0  0  0  0  0  0  0  0  0  0  0
   -2.5903   -2.7766    0.5017 H   0  0  0  0  0  0  0  0  0  0  0  0
   -2.0885   -3.1901   -1.1569 H   0  0  0  0  0  0  0  0  0  0  0  0
   -0.5284   -2.3211    0.0571 C   0  0  0  0  0  0  0  0  0  0  0  0
    0.5263   -2.8855    0.3187 O   0  0  0  0  0  0  0  0  0  0  0  0
   -0.5696   -0.9308   -0.0158 N   0  0  0  0  0  0  0  0  0  0  0  0
   -1.6793   -0.2847   -0.7094 C   0  0  0  0  0  0  0  0  0  0  0  0
   -2.5709   -0.2161   -0.0772 H   0  0  0  0  0  0  0  0  0  0  0  0
   -1.9334   -0.8200   -1.6305 H   0  0  0  0  0  0  0  0  0  0  0  0
   -1.1456    1.0931   -1.0498 C   0  0  0  0  0  0  0  0  0  0  0  0
   -1.3943    1.7946   -0.2462 H   0  0  0  0  0  0  0  0  0  0  0  0
   -1.5653    1.4757   -1.9850 H   0  0  0  0  0  0  0  0  0  0  0  0
    0.3661    0.9115   -1.1325 C   0  0  0  0  0  0  0  0  0  0  0  0
    0.8999    1.8513   -0.9541 H   0  0  0  0  0  0  0  0  0  0  0  0
    0.6414    0.5429   -2.1259 H   0  0  0  0  0  0  0  0  0  0  0  0
    0.6858   -0.1584   -0.0811 C   0  0  1  0  0  0  0  0  0  0  0  0
    1.5391   -0.7592   -0.4110 H   0  0  0  0  0  0  0  0  0  0  0  0
    1.0289    0.5338    1.2585 C   0  0  0  0  0  0  0  0  0  0  0  0
    0.2074    1.2151    1.8633 O   0  0  0  0  0  0  0  0  0  0  0  0
    2.3245    0.4696    1.7399 N   0  0  0  0  0  0  0  0  0  0  0  0
    2.9448   -0.2002    1.2936 H   0  0  0  0  0  0  0  0  0  0  0  0
    2.7302    1.0536    3.0123 C   0  0  0  0  0  0  0  0  0  0  0  0
    2.1978    0.5742    3.8404 H   0  0  0  0  0  0  0  0  0  0  0  0
    3.8052    0.9172    3.1641 H   0  0  0  0  0  0  0  0  0  0  0  0
    2.5147    2.1272    3.0286 H   0  0  0  0  0  0  0  0  0  0  0  0
  1  2  1  0  0  0  0
  2  3  1  0  0  0  0
  2  4  1  0  0  0  0
  2  5  1  0  0  0  0
  5  6  2  0  0  0  0
  5  7  1  0  0  0  0
  7  8  1  0  0  0  0
  7 17  1  0  0  0  0
  8  9  1  0  0  0  0
  8 10  1  0  0  0  0
  8 11  1  0  0  0  0
 11 12  1  0  0  0  0
 11 13  1  0  0  0  0
 11 14  1  0  0  0  0
 14 15  1  0  0  0  0
 14 16  1  0  0  0  0
 14 17  1  0  0  0  0
 17 18  1  0  0  0  0
 17 19  1  0  0  0  0
 19 20  2  0  0  0  0
 19 21  1  0  0  0  0
 21 22  1  0  0  0  0
 21 23  1  0  0  0  0
 23 24  1  0  0  0  0
 23 25  1  0  0  0  0
 23 26  1  0  0  0  0
M  END
$$$$

  -OEChem-11182114133D

 26 26  0     1  0  0  0  0  0999 V2000
   -1.5773   -4.2097    0.2070 H   0  0  0  0  0  0  0  0  0  0  0  0
   -1.7793   -3.1824   -0.1084 C   0  0  0  0  0  0  0  0  0  0  0  0
   -2.5829   -2.7797    0.5131 H   0  0  0  0  0  0  0  0  0  0  0  0
   -2.1015   -3.1932   -1.1520 H   0  0  0  0  0  0  0  0  0  0  0  0
   -0.5257   -2.3315    0.0463 C   0  0  0  0  0  0  0  0  0  0  0  0
    0.5308   -2.9006    0.2888 O   0  0  0  0  0  0  0  0  0  0  0  0
   -0.5658   -0.9415   -0.0268 N   0  0  0  0  0  0  0  0  0  0  0  0
   -1.6769   -0.2925   -0.7138 C   0  0  0  0  0  0  0  0  0  0  0  0
   -2.5697   -0.2336   -0.0822 H   0  0  0  0  0  0  0  0  0  0  0  0
   -1.9276   -0.8186   -1.6412 H   0  0  0  0  0  0  0  0  0  0  0  0
   -1.1459    1.0904   -1.0367 C   0  0  0  0  0  0  0  0  0  0  0  0
   -1.3971    1.7798   -0.2232 H   0  0  0  0  0  0  0  0  0  0  0  0
   -1.5662    1.4842   -1.9670 H   0  0  0  0  0  0  0  0  0  0  0  0
    0.3669    0.9165   -1.1178 C   0  0  0  0  0  0  0  0  0  0  0  0
    0.8962    1.8566   -0.9290 H   0  0  0  0  0  0  0  0  0  0  0  0
    0.6458    0.5591   -2.1144 H   0  0  0  0  0  0  0  0  0  0  0  0
    0.6871   -0.1637   -0.0780 C   0  0  1  0  0  0  0  0  0  0  0  0
    1.5452   -0.7600   -0.4036 H   0  0  0  0  0  0  0  0  0  0  0  0
    1.0196    0.5334    1.2619 C   0  0  0  0  0  0  0  0  0  0  0  0
    0.1424    0.9909    1.9871 O   0  0  0  0  0  0  0  0  0  0  0  0
    2.3431    0.7502    1.6034 N   0  0  0  0  0  0  0  0  0  0  0  0
    3.0481    0.2831    1.0407 H   0  0  0  0  0  0  0  0  0  0  0  0
    2.7501    1.3815    2.8528 C   0  0  0  0  0  0  0  0  0  0  0  0
    2.4327    0.7762    3.7084 H   0  0  0  0  0  0  0  0  0  0  0  0
    3.8386    1.4869    2.8862 H   0  0  0  0  0  0  0  0  0  0  0  0
    2.3055    2.3784    2.9417 H   0  0  0  0  0  0  0  0  0  0  0  0
  1  2  1  0  0  0  0
  2  3  1  0  0  0  0
  2  4  1  0  0  0  0
  2  5  1  0  0  0  0
  5  6  2  0  0  0  0
  5  7  1  0  0  0  0
  7  8  1  0  0  0  0
  7 17  1  0  0  0  0
  8  9  1  0  0  0  0
  8 10  1  0  0  0  0
  8 11  1  0  0  0  0
 11 12  1  0  0  0  0
 11 13  1  0  0  0  0
 11 14  1  0  0  0  0
 14 15  1  0  0  0  0
 14 16  1  0  0  0  0
 14 17  1  0  0  0  0
 17 18  1  0  0  0  0
 17 19  1  0  0  0  0
 19 20  2  0  0  0  0
 19 21  1  0  0  0  0
 21 22  1  0  0  0  0
 21 23  1  0  0  0  0
 23 24  1  0  0  0  0
 23 25  1  0  0  0  0
 23 26  1  0  0  0  0
M  END
$$$$

  -OEChem-11182114133D

 26 26  0     1  0  0  0  0  0999 V2000
   -1.5691   -4.2179    0.1954 H   0  0  0  0  0  0  0  0  0  0  0  0
   -1.7755   -3.1880   -0.1086 C   0  0  0  0  0  0  0  0  0  0  0  0
   -2.5737   -2.7924    0.5243 H   0  0  0  0  0  0  0  0  0  0  0  0
   -2.1079   -3.1900   -1.1490 H   0  0  0  0  0  0  0  0  0  0  0  0
   -0.5214   -2.3365    0.0416 C   0  0  0  0  0  0  0  0  0  0  0  0
    0.5373   -2.9067    0.2712 O   0  0  0  0  0  0  0  0  0  0  0  0
   -0.5637   -0.9464   -0.0331 N   0  0  0  0  0  0  0  0  0  0  0  0
   -1.6774   -0.2992   -0.7157 C   0  0  0  0  0  0  0  0  0  0  0  0
   -2.5704   -0.2479   -0.0837 H   0  0  0  0  0  0  0  0  0  0  0  0
   -1.9254   -0.8213   -1.6461 H   0  0  0  0  0  0  0  0  0  0  0  0
   -1.1504    1.0865   -1.0295 C   0  0  0  0  0  0  0  0  0  0  0  0
   -1.4047    1.7685   -0.2107 H   0  0  0  0  0  0  0  0  0  0  0  0
   -1.5712    1.4851   -1.9576 H   0  0  0  0  0  0  0  0  0  0  0  0
    0.3633    0.9203   -1.1091 C   0  0  0  0  0  0  0  0  0  0  0  0
    0.8872    1.8631   -0.9191 H   0  0  0  0  0  0  0  0  0  0  0  0
    0.6441    0.5672   -2.1067 H   0  0  0  0  0  0  0  0  0  0  0  0
    0.6874   -0.1645   -0.0743 C   0  0  1  0  0  0  0  0  0  0  0  0
    1.5506   -0.7562   -0.3953 H   0  0  0  0  0  0  0  0  0  0  0  0
    1.0118    0.5378    1.2658 C   0  0  0  0  0  0  0  0  0  0  0  0
    0.1473    0.7611    2.1066 O   0  0  0  0  0  0  0  0  0  0  0  0
    2.2850    1.0381    1.4787 N   0  0  0  0  0  0  0  0  0  0  0  0
    3.0022    0.7867    0.8050 H   0  0  0  0  0  0  0  0  0  0  0  0
    2.6837    1.7037    2.7130 C   0  0  0  0  0  0  0  0  0  0  0  0
    2.5999    1.0165    3.5615 H   0  0  0  0  0  0  0  0  0  0  0  0
    3.7214    2.0433    2.6420 H   0  0  0  0  0  0  0  0  0  0  0  0
    2.0485    2.5757    2.9014 H   0  0  0  0  0  0  0  0  0  0  0  0
  1  2  1  0  0  0  0
  2  3  1  0  0  0  0
  2  4  1  0  0  0  0
  2  5  1  0  0  0  0
  5  6  2  0  0  0  0
  5  7  1  0  0  0  0
  7  8  1  0  0  0  0
  7 17  1  0  0  0  0
  8  9  1  0  0  0  0
  8 10  1  0  0  0  0
  8 11  1  0  0  0  0
 11 12  1  0  0  0  0
 11 13  1  0  0  0  0
 11 14  1  0  0  0  0
 14 15  1  0  0  0  0
 14 16  1  0  0  0  0
 14 17  1  0  0  0  0
 17 18  1  0  0  0  0
 17 19  1  0  0  0  0
 19 20  2  0  0  0  0
 19 21  1  0  0  0  0
 21 22  1  0  0  0  0
 21 23  1  0  0  0  0
 23 24  1  0  0  0  0
 23 25  1  0  0  0  0
 23 26  1  0  0  0  0
M  END
$$$$

  -OEChem-11182114133D

 26 26  0     1  0  0  0  0  0999 V2000
   -1.5352   -4.2197    0.0207 H   0  0  0  0  0  0  0  0  0  0  0  0
   -1.7683   -3.1626   -0.1345 C   0  0  0  0  0  0  0  0  0  0  0  0
   -2.4698   -2.8430    0.6398 H   0  0  0  0  0  0  0  0  0  0  0  0
   -2.2362   -3.0466   -1.1147 H   0  0  0  0  0  0  0  0  0  0  0  0
   -0.4970   -2.3289   -0.0571 C   0  0  0  0  0  0  0  0  0  0  0  0
    0.5760   -2.9098    0.0416 O   0  0  0  0  0  0  0  0  0  0  0  0
   -0.5306   -0.9394   -0.1128 N   0  0  0  0  0  0  0  0  0  0  0  0
   -1.7127   -0.2125   -0.5471 C   0  0  0  0  0  0  0  0  0  0  0  0
   -2.5401   -0.3066    0.1642 H   0  0  0  0  0  0  0  0  0  0  0  0
   -2.0416   -0.5607   -1.5319 H   0  0  0  0  0  0  0  0  0  0  0  0
   -1.2260    1.2227   -0.6293 C   0  0  0  0  0  0  0  0  0  0  0  0
   -1.4044    1.7262    0.3271 H   0  0  0  0  0  0  0  0  0  0  0  0
   -1.7365    1.7830   -1.4186 H   0  0  0  0  0  0  0  0  0  0  0  0
    0.2753    1.1119   -0.8804 C   0  0  0  0  0  0  0  0  0  0  0  0
    0.8067    2.0142   -0.5611 H   0  0  0  0  0  0  0  0  0  0  0  0
    0.4598    0.9669   -1.9499 H   0  0  0  0  0  0  0  0  0  0  0  0
    0.7085   -0.1455   -0.1136 C   0  0  1  0  0  0  0  0  0  0  0  0
    1.5215   -0.6531   -0.6426 H   0  0  0  0  0  0  0  0  0  0  0  0
    1.1955    0.2419    1.3049 C   0  0  0  0  0  0  0  0  0  0  0  0
    0.5229    0.0146    2.3046 O   0  0  0  0  0  0  0  0  0  0  0  0
    2.3535    0.9881    1.4492 N   0  0  0  0  0  0  0  0  0  0  0  0
    2.9299    1.1169    0.6234 H   0  0  0  0  0  0  0  0  0  0  0  0
    2.8826    1.3980    2.7446 C   0  0  0  0  0  0  0  0  0  0  0  0
    3.1372    0.5207    3.3486 H   0  0  0  0  0  0  0  0  0  0  0  0
    3.7856    2.0012    2.6108 H   0  0  0  0  0  0  0  0  0  0  0  0
    2.1451    1.9981    3.2882 H   0  0  0  0  0  0  0  0  0  0  0  0
  1  2  1  0  0  0  0
  2  3  1  0  0  0  0
  2  4  1  0  0  0  0
  2  5  1  0  0  0  0
  5  6  2  0  0  0  0
  5  7  1  0  0  0  0
  7  8  1  0  0  0  0
  7 17  1  0  0  0  0
  8  9  1  0  0  0  0
  8 10  1  0  0  0  0
  8 11  1  0  0  0  0
 11 12  1  0  0  0  0
 11 13  1  0  0  0  0
 11 14  1  0  0  0  0
 14 15  1  0  0  0  0
 14 16  1  0  0  0  0
 14 17  1  0  0  0  0
 17 18  1  0  0  0  0
 17 19  1  0  0  0  0
 19 20  2  0  0  0  0
 19 21  1  0  0  0  0
 21 22  1  0  0  0  0
 21 23  1  0  0  0  0
 23 24  1  0  0  0  0
 23 25  1  0  0  0  0
 23 26  1  0  0  0  0
M  END
$$$$

  -OEChem-11182114133D

 26 26  0     1  0  0  0  0  0999 V2000
   -1.5230   -4.2156    0.0327 H   0  0  0  0  0  0  0  0  0  0  0  0
   -1.7614   -3.1588   -0.1154 C   0  0  0  0  0  0  0  0  0  0  0  0
   -2.4470   -2.8424    0.6744 H   0  0  0  0  0  0  0  0  0  0  0  0
   -2.2501   -3.0421   -1.0853 H   0  0  0  0  0  0  0  0  0  0  0  0
   -0.4902   -2.3230   -0.0625 C   0  0  0  0  0  0  0  0  0  0  0  0
    0.5850   -2.9043    0.0012 O   0  0  0  0  0  0  0  0  0  0  0  0
   -0.5294   -0.9327   -0.1146 N   0  0  0  0  0  0  0  0  0  0  0  0
   -1.7160   -0.2164   -0.5543 C   0  0  0  0  0  0  0  0  0  0  0  0
   -2.5421   -0.3080    0.1590 H   0  0  0  0  0  0  0  0  0  0  0  0
   -2.0451   -0.5758   -1.5352 H   0  0  0  0  0  0  0  0  0  0  0  0
   -1.2363    1.2191   -0.6520 C   0  0  0  0  0  0  0  0  0  0  0  0
   -1.4180    1.7320    0.2986 H   0  0  0  0  0  0  0  0  0  0  0  0
   -1.7482    1.7686   -1.4481 H   0  0  0  0  0  0  0  0  0  0  0  0
    0.2652    1.1128   -0.9001 C   0  0  0  0  0  0  0  0  0  0  0  0
    0.7888    2.0259   -0.6020 H   0  0  0  0  0  0  0  0  0  0  0  0
    0.4485    0.9518   -1.9675 H   0  0  0  0  0  0  0  0  0  0  0  0
    0.7087   -0.1352   -0.1190 C   0  0  1  0  0  0  0  0  0  0  0  0
    1.5246   -0.6406   -0.6456 H   0  0  0  0  0  0  0  0  0  0  0  0
    1.1947    0.2462    1.3047 C   0  0  0  0  0  0  0  0  0  0  0  0
    0.6765   -0.2255    2.3104 O   0  0  0  0  0  0  0  0  0  0  0  0
    2.1509    1.2352    1.4744 N   0  0  0  0  0  0  0  0  0  0  0  0
    2.6104    1.5874    0.6407 H   0  0  0  0  0  0  0  0  0  0  0  0
    2.6528    1.6480    2.7800 C   0  0  0  0  0  0  0  0  0  0  0  0
    3.1518    0.8109    3.2794 H   0  0  0  0  0  0  0  0  0  0  0  0
    3.3727    2.4643    2.6680 H   0  0  0  0  0  0  0  0  0  0  0  0
    1.8318    1.9983    3.4145 H   0  0  0  0  0  0  0  0  0  0  0  0
  1  2  1  0  0  0  0
  2  3  1  0  0  0  0
  2  4  1  0  0  0  0
  2  5  1  0  0  0  0
  5  6  2  0  0  0  0
  5  7  1  0  0  0  0
  7  8  1  0  0  0  0
  7 17  1  0  0  0  0
  8  9  1  0  0  0  0
  8 10  1  0  0  0  0
  8 11  1  0  0  0  0
 11 12  1  0  0  0  0
 11 13  1  0  0  0  0
 11 14  1  0  0  0  0
 14 15  1  0  0  0  0
 14 16  1  0  0  0  0
 14 17  1  0  0  0  0
 17 18  1  0  0  0  0
 17 19  1  0  0  0  0
 19 20  2  0  0  0  0
 19 21  1  0  0  0  0
 21 22  1  0  0  0  0
 21 23  1  0  0  0  0
 23 24  1  0  0  0  0
 23 25  1  0  0  0  0
 23 26  1  0  0  0  0
M  END
$$$$

  -OEChem-11182114133D

 26 26  0     1  0  0  0  0  0999 V2000
   -1.5088   -4.2073    0.0712 H   0  0  0  0  0  0  0  0  0  0  0  0
   -1.7520   -3.1529   -0.0869 C   0  0  0  0  0  0  0  0  0  0  0  0
   -2.4230   -2.8269    0.7114 H   0  0  0  0  0  0  0  0  0  0  0  0
   -2.2590   -3.0498   -1.0488 H   0  0  0  0  0  0  0  0  0  0  0  0
   -0.4813   -2.3148   -0.0698 C   0  0  0  0  0  0  0  0  0  0  0  0
    0.5947   -2.8971   -0.0481 O   0  0  0  0  0  0  0  0  0  0  0  0
   -0.5267   -0.9236   -0.1168 N   0  0  0  0  0  0  0  0  0  0  0  0
   -1.7176   -0.2192   -0.5635 C   0  0  0  0  0  0  0  0  0  0  0  0
   -2.5413   -0.3050    0.1530 H   0  0  0  0  0  0  0  0  0  0  0  0
   -2.0472   -0.5937   -1.5387 H   0  0  0  0  0  0  0  0  0  0  0  0
   -1.2459    1.2164   -0.6825 C   0  0  0  0  0  0  0  0  0  0  0  0
   -1.4305    1.7423    0.2602 H   0  0  0  0  0  0  0  0  0  0  0  0
   -1.7612    1.7509   -1.4865 H   0  0  0  0  0  0  0  0  0  0  0  0
    0.2557    1.1151   -0.9302 C   0  0  0  0  0  0  0  0  0  0  0  0
    0.7736    2.0384   -0.6584 H   0  0  0  0  0  0  0  0  0  0  0  0
    0.4358    0.9338   -1.9951 H   0  0  0  0  0  0  0  0  0  0  0  0
    0.7087   -0.1205   -0.1310 C   0  0  1  0  0  0  0  0  0  0  0  0
    1.5268   -0.6248   -0.6557 H   0  0  0  0  0  0  0  0  0  0  0  0
    1.1948    0.2512    1.2984 C   0  0  0  0  0  0  0  0  0  0  0  0
    0.8813   -0.4219    2.2730 O   0  0  0  0  0  0  0  0  0  0  0  0
    1.8985    1.4224    1.5355 N   0  0  0  0  0  0  0  0  0  0  0  0
    2.1939    1.9614    0.7282 H   0  0  0  0  0  0  0  0  0  0  0  0
    2.3645    1.8263    2.8573 C   0  0  0  0  0  0  0  0  0  0  0  0
    3.0732    1.0917    3.2538 H   0  0  0  0  0  0  0  0  0  0  0  0
    2.8661    2.7970    2.8012 H   0  0  0  0  0  0  0  0  0  0  0  0
    1.5222    1.9139    3.5516 H   0  0  0  0  0  0  0  0  0  0  0  0
  1  2  1  0  0  0  0
  2  3  1  0  0  0  0
  2  4  1  0  0  0  0
  2  5  1  0  0  0  0
  5  6  2  0  0  0  0
  5  7  1  0  0  0  0
  7  8  1  0  0  0  0
  7 17  1  0  0  0  0
  8  9  1  0  0  0  0
  8 10  1  0  0  0  0
  8 11  1  0  0  0  0
 11 12  1  0  0  0  0
 11 13  1  0  0  0  0
 11 14  1  0  0  0  0
 14 15  1  0  0  0  0
 14 16  1  0  0  0  0
 14 17  1  0  0  0  0
 17 18  1  0  0  0  0
 17 19  1  0  0  0  0
 19 20  2  0  0  0  0
 19 21  1  0  0  0  0
 21 22  1  0  0  0  0
 21 23  1  0  0  0  0
 23 24  1  0  0  0  0
 23 25  1  0  0  0  0
 23 26  1  0  0  0  0
M  END
$$$$

  -OEChem-11182114133D

 26 26  0     1  0  0  0  0  0999 V2000
   -1.5002   -4.1980    0.1091 H   0  0  0  0  0  0  0  0  0  0  0  0
   -1.7457   -3.1460   -0.0611 C   0  0  0  0  0  0  0  0  0  0  0  0
   -2.4083   -2.8097    0.7400 H   0  0  0  0  0  0  0  0  0  0  0  0
   -2.2631   -3.0567   -1.0188 H   0  0  0  0  0  0  0  0  0  0  0  0
   -0.4749   -2.3077   -0.0696 C   0  0  0  0  0  0  0  0  0  0  0  0
    0.5996   -2.8919   -0.0777 O   0  0  0  0  0  0  0  0  0  0  0  0
   -0.5239   -0.9159   -0.1147 N   0  0  0  0  0  0  0  0  0  0  0  0
   -1.7156   -0.2213   -0.5763 C   0  0  0  0  0  0  0  0  0  0  0  0
   -2.5421   -0.2991    0.1381 H   0  0  0  0  0  0  0  0  0  0  0  0
   -2.0401   -0.6119   -1.5469 H   0  0  0  0  0  0  0  0  0  0  0  0
   -1.2500    1.2146   -0.7170 C   0  0  0  0  0  0  0  0  0  0  0  0
   -1.4400    1.7554    0.2161 H   0  0  0  0  0  0  0  0  0  0  0  0
   -1.7654    1.7332   -1.5314 H   0  0  0  0  0  0  0  0  0  0  0  0
    0.2525    1.1154   -0.9597 C   0  0  0  0  0  0  0  0  0  0  0  0
    0.7714    2.0441   -0.7110 H   0  0  0  0  0  0  0  0  0  0  0  0
    0.4326    0.9129   -2.0209 H   0  0  0  0  0  0  0  0  0  0  0  0
    0.7072   -0.1060   -0.1397 C   0  0  1  0  0  0  0  0  0  0  0  0
    1.5274   -0.6125   -0.6592 H   0  0  0  0  0  0  0  0  0  0  0  0
    1.1913    0.2588    1.2932 C   0  0  0  0  0  0  0  0  0  0  0  0
    1.1356   -0.5589    2.2028 O   0  0  0  0  0  0  0  0  0  0  0  0
    1.6099    1.5392    1.6240 N   0  0  0  0  0  0  0  0  0  0  0  0
    1.6708    2.2216    0.8763 H   0  0  0  0  0  0  0  0  0  0  0  0
    2.0415    1.9248    2.9629 C   0  0  0  0  0  0  0  0  0  0  0  0
    2.9253    1.3506    3.2604 H   0  0  0  0  0  0  0  0  0  0  0  0
    2.2954    2.9888    2.9870 H   0  0  0  0  0  0  0  0  0  0  0  0
    1.2428    1.7446    3.6902 H   0  0  0  0  0  0  0  0  0  0  0  0
  1  2  1  0  0  0  0
  2  3  1  0  0  0  0
  2  4  1  0  0  0  0
  2  5  1  0  0  0  0
  5  6  2  0  0  0  0
  5  7  1  0  0  0  0
  7  8  1  0  0  0  0
  7 17  1  0  0  0  0
  8  9  1  0  0  0  0
  8 10  1  0  0  0  0
  8 11  1  0  0  0  0
 11 12  1  0  0  0  0
 11 13  1  0  0  0  0
 11 14  1  0  0  0  0
 14 15  1  0  0  0  0
 14 16  1  0  0  0  0
 14 17  1  0  0  0  0
 17 18  1  0  0  0  0
 17 19  1  0  0  0  0
 19 20  2  0  0  0  0
 19 21  1  0  0  0  0
 21 22  1  0  0  0  0
 21 23  1  0  0  0  0
 23 24  1  0  0  0  0
 23 25  1  0  0  0  0
 23 26  1  0  0  0  0
M  END
$$$$

  -OEChem-11182114133D

 26 26  0     1  0  0  0  0  0999 V2000
   -1.5038   -4.1970    0.1209 H   0  0  0  0  0  0  0  0  0  0  0  0
   -1.7466   -3.1464   -0.0627 C   0  0  0  0  0  0  0  0  0  0  0  0
   -2.4201   -2.8026    0.7259 H   0  0  0  0  0  0  0  0  0  0  0  0
   -2.2511   -3.0669   -1.0282 H   0  0  0  0  0  0  0  0  0  0  0  0
   -0.4755   -2.3078   -0.0630 C   0  0  0  0  0  0  0  0  0  0  0  0
    0.5970   -2.8938   -0.0682 O   0  0  0  0  0  0  0  0  0  0  0  0
   -0.5241   -0.9155   -0.1084 N   0  0  0  0  0  0  0  0  0  0  0  0
   -1.7116   -0.2243   -0.5873 C   0  0  0  0  0  0  0  0  0  0  0  0
   -2.5460   -0.2986    0.1182 H   0  0  0  0  0  0  0  0  0  0  0  0
   -2.0249   -0.6226   -1.5585 H   0  0  0  0  0  0  0  0  0  0  0  0
   -1.2480    1.2129   -0.7352 C   0  0  0  0  0  0  0  0  0  0  0  0
   -1.4465    1.7603    0.1921 H   0  0  0  0  0  0  0  0  0  0  0  0
   -1.7587    1.7238   -1.5574 H   0  0  0  0  0  0  0  0  0  0  0  0
    0.2565    1.1144   -0.9674 C   0  0  0  0  0  0  0  0  0  0  0  0
    0.7808    2.0418   -0.7228 H   0  0  0  0  0  0  0  0  0  0  0  0
    0.4434    0.9032   -2.0257 H   0  0  0  0  0  0  0  0  0  0  0  0
    0.7030   -0.0999   -0.1351 C   0  0  1  0  0  0  0  0  0  0  0  0
    1.5266   -0.6090   -0.6470 H   0  0  0  0  0  0  0  0  0  0  0  0
    1.1809    0.2641    1.2988 C   0  0  0  0  0  0  0  0  0  0  0  0
    1.4233   -0.6120    2.1172 O   0  0  0  0  0  0  0  0  0  0  0  0
    1.3000    1.5785    1.7263 N   0  0  0  0  0  0  0  0  0  0  0  0
    1.0641    2.3105    1.0655 H   0  0  0  0  0  0  0  0  0  0  0  0
    1.7136    1.9540    3.0737 C   0  0  0  0  0  0  0  0  0  0  0  0
    2.7143    1.5649    3.2895 H   0  0  0  0  0  0  0  0  0  0  0  0
    1.7384    3.0434    3.1724 H   0  0  0  0  0  0  0  0  0  0  0  0
    1.0129    1.5554    3.8151 H   0  0  0  0  0  0  0  0  0  0  0  0
  1  2  1  0  0  0  0
  2  3  1  0  0  0  0
  2  4  1  0  0  0  0
  2  5  1  0  0  0  0
  5  6  2  0  0  0  0
  5  7  1  0  0  0  0
  7  8  1  0  0  0  0
  7 17  1  0  0  0  0
  8  9  1  0  0  0  0
  8 10  1  0  0  0  0
  8 11  1  0  0  0  0
 11 12  1  0  0  0  0
 11 13  1  0  0  0  0
 11 14  1  0  0  0  0
 14 15  1  0  0  0  0
 14 16  1  0  0  0  0
 14 17  1  0  0  0  0
 17 18  1  0  0  0  0
 17 19  1  0  0  0  0
 19 20  2  0  0  0  0
 19 21  1  0  0  0  0
 21 22  1  0  0  0  0
 21 23  1  0  0  0  0
 23 24  1  0  0  0  0
 23 25  1  0  0  0  0
 23 26  1  0  0  0  0
M  END
$$$$

  -OEChem-11182114133D

 26 26  0     1  0  0  0  0  0999 V2000
   -1.5217   -4.2034    0.0891 H   0  0  0  0  0  0  0  0  0  0  0  0
   -1.7573   -3.1515   -0.0960 C   0  0  0  0  0  0  0  0  0  0  0  0
   -2.4534   -2.8107    0.6741 H   0  0  0  0  0  0  0  0  0  0  0  0
   -2.2330   -3.0661   -1.0755 H   0  0  0  0  0  0  0  0  0  0  0  0
   -0.4851   -2.3157   -0.0546 C   0  0  0  0  0  0  0  0  0  0  0  0
    0.5845   -2.9037   -0.0132 O   0  0  0  0  0  0  0  0  0  0  0  0
   -0.5302   -0.9233   -0.0996 N   0  0  0  0  0  0  0  0  0  0  0  0
   -1.7100   -0.2296   -0.5962 C   0  0  0  0  0  0  0  0  0  0  0  0
   -2.5554   -0.3059    0.0956 H   0  0  0  0  0  0  0  0  0  0  0  0
   -2.0086   -0.6257   -1.5729 H   0  0  0  0  0  0  0  0  0  0  0  0
   -1.2463    1.2096   -0.7354 C   0  0  0  0  0  0  0  0  0  0  0  0
   -1.4595    1.7563    0.1887 H   0  0  0  0  0  0  0  0  0  0  0  0
   -1.7460    1.7204   -1.5645 H   0  0  0  0  0  0  0  0  0  0  0  0
    0.2613    1.1095   -0.9504 C   0  0  0  0  0  0  0  0  0  0  0  0
    0.7877    2.0323   -0.6885 H   0  0  0  0  0  0  0  0  0  0  0  0
    0.4626    0.9039   -2.0072 H   0  0  0  0  0  0  0  0  0  0  0  0
    0.6951   -0.1056   -0.1158 C   0  0  1  0  0  0  0  0  0  0  0  0
    1.5219   -0.6161   -0.6215 H   0  0  0  0  0  0  0  0  0  0  0  0
    1.1654    0.2614    1.3168 C   0  0  0  0  0  0  0  0  0  0  0  0
    1.7177   -0.5691    2.0237 O   0  0  0  0  0  0  0  0  0  0  0  0
    0.9907    1.5337    1.8404 N   0  0  0  0  0  0  0  0  0  0  0  0
    0.4954    2.2096    1.2691 H   0  0  0  0  0  0  0  0  0  0  0  0
    1.4050    1.9155    3.1854 C   0  0  0  0  0  0  0  0  0  0  0  0
    2.4843    1.7751    3.3081 H   0  0  0  0  0  0  0  0  0  0  0  0
    1.1715    2.9686    3.3688 H   0  0  0  0  0  0  0  0  0  0  0  0
    0.8833    1.3093    3.9335 H   0  0  0  0  0  0  0  0  0  0  0  0
  1  2  1  0  0  0  0
  2  3  1  0  0  0  0
  2  4  1  0  0  0  0
  2  5  1  0  0  0  0
  5  6  2  0  0  0  0
  5  7  1  0  0  0  0
  7  8  1  0  0  0  0
  7 17  1  0  0  0  0
  8  9  1  0  0  0  0
  8 10  1  0  0  0  0
  8 11  1  0  0  0  0
 11 12  1  0  0  0  0
 11 13  1  0  0  0  0
 11 14  1  0  0  0  0
 14 15  1  0  0  0  0
 14 16  1  0  0  0  0
 14 17  1  0  0  0  0
 17 18  1  0  0  0  0
 17 19  1  0  0  0  0
 19 20  2  0  0  0  0
 19 21  1  0  0  0  0
 21 22  1  0  0  0  0
 21 23  1  0  0  0  0
 23 24  1  0  0  0  0
 23 25  1  0  0  0  0
 23 26  1  0  0  0  0
M  END
$$$$

  -OEChem-11182114133D

 26 26  0     1  0  0  0  0  0999 V2000
   -1.5400   -4.2197    0.0267 H   0  0  0  0  0  0  0  0  0  0  0  0
   -1.7697   -3.1664   -0.1581 C   0  0  0  0  0  0  0  0  0  0  0  0
   -2.5044   -2.8362    0.5799 H   0  0  0  0  0  0  0  0  0  0  0  0
   -2.1963   -3.0719   -1.1592 H   0  0  0  0  0  0  0  0  0  0  0  0
   -0.5035   -2.3276   -0.0454 C   0  0  0  0  0  0  0  0  0  0  0  0
    0.5614   -2.9125    0.0721 O   0  0  0  0  0  0  0  0  0  0  0  0
   -0.5460   -0.9352   -0.0862 N   0  0  0  0  0  0  0  0  0  0  0  0
   -1.7158   -0.2361   -0.6008 C   0  0  0  0  0  0  0  0  0  0  0  0
   -2.5739   -0.3149    0.0751 H   0  0  0  0  0  0  0  0  0  0  0  0
   -1.9971   -0.6274   -1.5846 H   0  0  0  0  0  0  0  0  0  0  0  0
   -1.2497    1.2047   -0.7259 C   0  0  0  0  0  0  0  0  0  0  0  0
   -1.4800    1.7499    0.1943 H   0  0  0  0  0  0  0  0  0  0  0  0
   -1.7344    1.7182   -1.5623 H   0  0  0  0  0  0  0  0  0  0  0  0
    0.2607    1.1000   -0.9201 C   0  0  0  0  0  0  0  0  0  0  0  0
    0.7839    2.0170   -0.6306 H   0  0  0  0  0  0  0  0  0  0  0  0
    0.4815    0.9068   -1.9752 H   0  0  0  0  0  0  0  0  0  0  0  0
    0.6805   -0.1189   -0.0867 C   0  0  1  0  0  0  0  0  0  0  0  0
    1.5075   -0.6322   -0.5899 H   0  0  0  0  0  0  0  0  0  0  0  0
    1.1518    0.2517    1.3416 C   0  0  0  0  0  0  0  0  0  0  0  0
    1.9824   -0.4342    1.9195 O   0  0  0  0  0  0  0  0  0  0  0  0
    0.7154    1.4078    1.9696 N   0  0  0  0  0  0  0  0  0  0  0  0
    0.0075    1.9560    1.4937 H   0  0  0  0  0  0  0  0  0  0  0  0
    1.1431    1.8091    3.3045 C   0  0  0  0  0  0  0  0  0  0  0  0
    2.2306    1.9336    3.3370 H   0  0  0  0  0  0  0  0  0  0  0  0
    0.6788    2.7606    3.5804 H   0  0  0  0  0  0  0  0  0  0  0  0
    0.8527    1.0543    4.0428 H   0  0  0  0  0  0  0  0  0  0  0  0
  1  2  1  0  0  0  0
  2  3  1  0  0  0  0
  2  4  1  0  0  0  0
  2  5  1  0  0  0  0
  5  6  2  0  0  0  0
  5  7  1  0  0  0  0
  7  8  1  0  0  0  0
  7 17  1  0  0  0  0
  8  9  1  0  0  0  0
  8 10  1  0  0  0  0
  8 11  1  0  0  0  0
 11 12  1  0  0  0  0
 11 13  1  0  0  0  0
 11 14  1  0  0  0  0
 14 15  1  0  0  0  0
 14 16  1  0  0  0  0
 14 17  1  0  0  0  0
 17 18  1  0  0  0  0
 17 19  1  0  0  0  0
 19 20  2  0  0  0  0
 19 21  1  0  0  0  0
 21 22  1  0  0  0  0
 21 23  1  0  0  0  0
 23 24  1  0  0  0  0
 23 25  1  0  0  0  0
 23 26  1  0  0  0  0
M  END
$$$$

  -OEChem-11182114133D

 26 26  0     1  0  0  0  0  0999 V2000
   -1.5563   -4.2319   -0.0317 H   0  0  0  0  0  0  0  0  0  0  0  0
   -1.7802   -3.1768   -0.2135 C   0  0  0  0  0  0  0  0  0  0  0  0
   -2.5453   -2.8563    0.4974 H   0  0  0  0  0  0  0  0  0  0  0  0
   -2.1658   -3.0721   -1.2301 H   0  0  0  0  0  0  0  0  0  0  0  0
   -0.5212   -2.3374   -0.0402 C   0  0  0  0  0  0  0  0  0  0  0  0
    0.5352   -2.9192    0.1466 O   0  0  0  0  0  0  0  0  0  0  0  0
   -0.5599   -0.9453   -0.0754 N   0  0  0  0  0  0  0  0  0  0  0  0
   -1.7196   -0.2364   -0.6015 C   0  0  0  0  0  0  0  0  0  0  0  0
   -2.5871   -0.3151    0.0624 H   0  0  0  0  0  0  0  0  0  0  0  0
   -1.9898   -0.6212   -1.5910 H   0  0  0  0  0  0  0  0  0  0  0  0
   -1.2467    1.2049   -0.7146 C   0  0  0  0  0  0  0  0  0  0  0  0
   -1.4833    1.7509    0.2032 H   0  0  0  0  0  0  0  0  0  0  0  0
   -1.7199    1.7235   -1.5544 H   0  0  0  0  0  0  0  0  0  0  0  0
    0.2642    1.0907   -0.8966 C   0  0  0  0  0  0  0  0  0  0  0  0
    0.7882    2.0009   -0.5862 H   0  0  0  0  0  0  0  0  0  0  0  0
    0.4965    0.9076   -1.9510 H   0  0  0  0  0  0  0  0  0  0  0  0
    0.6694   -0.1337   -0.0674 C   0  0  1  0  0  0  0  0  0  0  0  0
    1.4922   -0.6521   -0.5726 H   0  0  0  0  0  0  0  0  0  0  0  0
    1.1475    0.2355    1.3562 C   0  0  0  0  0  0  0  0  0  0  0  0
    2.1969   -0.2166    1.7921 O   0  0  0  0  0  0  0  0  0  0  0  0
    0.4961    1.2076    2.0974 N   0  0  0  0  0  0  0  0  0  0  0  0
   -0.3978    1.5308    1.7448 H   0  0  0  0  0  0  0  0  0  0  0  0
    0.9228    1.6228    3.4281 C   0  0  0  0  0  0  0  0  0  0  0  0
    1.9472    2.0089    3.3991 H   0  0  0  0  0  0  0  0  0  0  0  0
    0.2679    2.4136    3.8062 H   0  0  0  0  0  0  0  0  0  0  0  0
    0.8843    0.7776    4.1233 H   0  0  0  0  0  0  0  0  0  0  0  0
  1  2  1  0  0  0  0
  2  3  1  0  0  0  0
  2  4  1  0  0  0  0
  2  5  1  0  0  0  0
  5  6  2  0  0  0  0
  5  7  1  0  0  0  0
  7  8  1  0  0  0  0
  7 17  1  0  0  0  0
  8  9  1  0  0  0  0
  8 10  1  0  0  0  0
  8 11  1  0  0  0  0
 11 12  1  0  0  0  0
 11 13  1  0  0  0  0
 11 14  1  0  0  0  0
 14 15  1  0  0  0  0
 14 16  1  0  0  0  0
 14 17  1  0  0  0  0
 17 18  1  0  0  0  0
 17 19  1  0  0  0  0
 19 20  2  0  0  0  0
 19 21  1  0  0  0  0
 21 22  1  0  0  0  0
 21 23  1  0  0  0  0
 23 24  1  0  0  0  0
 23 25  1  0  0  0  0
 23 26  1  0  0  0  0
M  END
$$$$

  -OEChem-11182114133D

 26 26  0     1  0  0  0  0  0999 V2000
   -1.5669   -4.2384   -0.0801 H   0  0  0  0  0  0  0  0  0  0  0  0
   -1.7871   -3.1804   -0.2479 C   0  0  0  0  0  0  0  0  0  0  0  0
   -2.5639   -2.8705    0.4550 H   0  0  0  0  0  0  0  0  0  0  0  0
   -2.1553   -3.0586   -1.2691 H   0  0  0  0  0  0  0  0  0  0  0  0
   -0.5311   -2.3451   -0.0399 C   0  0  0  0  0  0  0  0  0  0  0  0
    0.5176   -2.9261    0.1897 O   0  0  0  0  0  0  0  0  0  0  0  0
   -0.5640   -0.9534   -0.0733 N   0  0  0  0  0  0  0  0  0  0  0  0
   -1.7189   -0.2320   -0.5937 C   0  0  0  0  0  0  0  0  0  0  0  0
   -2.5871   -0.3109    0.0689 H   0  0  0  0  0  0  0  0  0  0  0  0
   -1.9915   -0.6063   -1.5866 H   0  0  0  0  0  0  0  0  0  0  0  0
   -1.2369    1.2083   -0.6948 C   0  0  0  0  0  0  0  0  0  0  0  0
   -1.4628    1.7485    0.2294 H   0  0  0  0  0  0  0  0  0  0  0  0
   -1.7098    1.7381   -1.5277 H   0  0  0  0  0  0  0  0  0  0  0  0
    0.2719    1.0858   -0.8821 C   0  0  0  0  0  0  0  0  0  0  0  0
    0.8023    1.9884   -0.5596 H   0  0  0  0  0  0  0  0  0  0  0  0
    0.5020    0.9126   -1.9385 H   0  0  0  0  0  0  0  0  0  0  0  0
    0.6685   -0.1476   -0.0651 C   0  0  1  0  0  0  0  0  0  0  0  0
    1.4873   -0.6689   -0.5740 H   0  0  0  0  0  0  0  0  0  0  0  0
    1.1502    0.2178    1.3553 C   0  0  0  0  0  0  0  0  0  0  0  0
    2.3180    0.0395    1.6733 O   0  0  0  0  0  0  0  0  0  0  0  0
    0.3383    0.9503    2.2044 N   0  0  0  0  0  0  0  0  0  0  0  0
   -0.6407    1.0170    1.9468 H   0  0  0  0  0  0  0  0  0  0  0  0
    0.7461    1.3612    3.5420 C   0  0  0  0  0  0  0  0  0  0  0  0
    1.6416    1.9896    3.4931 H   0  0  0  0  0  0  0  0  0  0  0  0
   -0.0519    1.9365    4.0207 H   0  0  0  0  0  0  0  0  0  0  0  0
    0.9635    0.4851    4.1619 H   0  0  0  0  0  0  0  0  0  0  0  0
  1  2  1  0  0  0  0
  2  3  1  0  0  0  0
  2  4  1  0  0  0  0
  2  5  1  0  0  0  0
  5  6  2  0  0  0  0
  5  7  1  0  0  0  0
  7  8  1  0  0  0  0
  7 17  1  0  0  0  0
  8  9  1  0  0  0  0
  8 10  1  0  0  0  0
  8 11  1  0  0  0  0
 11 12  1  0  0  0  0
 11 13  1  0  0  0  0
 11 14  1  0  0  0  0
 14 15  1  0  0  0  0
 14 16  1  0  0  0  0
 14 17  1  0  0  0  0
 17 18  1  0  0  0  0
 17 19  1  0  0  0  0
 19 20  2  0  0  0  0
 19 21  1  0  0  0  0
 21 22  1  0  0  0  0
 21 23  1  0  0  0  0
 23 24  1  0  0  0  0
 23 25  1  0  0  0  0
 23 26  1  0  0  0  0
M  END
$$$$

  -OEChem-11182114133D

 26 26  0     1  0  0  0  0  0999 V2000
   -1.5735   -4.2442   -0.1112 H   0  0  0  0  0  0  0  0  0  0  0  0
   -1.7931   -3.1846   -0.2704 C   0  0  0  0  0  0  0  0  0  0  0  0
   -2.5757   -2.8823    0.4292 H   0  0  0  0  0  0  0  0  0  0  0  0
   -2.1534   -3.0529   -1.2933 H   0  0  0  0  0  0  0  0  0  0  0  0
   -0.5395   -2.3510   -0.0447 C   0  0  0  0  0  0  0  0  0  0  0  0
    0.5042   -2.9306    0.2102 O   0  0  0  0  0  0  0  0  0  0  0  0
   -0.5672   -0.9597   -0.0785 N   0  0  0  0  0  0  0  0  0  0  0  0
   -1.7198   -0.2262   -0.5861 C   0  0  0  0  0  0  0  0  0  0  0  0
   -2.5859   -0.3059    0.0790 H   0  0  0  0  0  0  0  0  0  0  0  0
   -1.9992   -0.5885   -1.5815 H   0  0  0  0  0  0  0  0  0  0  0  0
   -1.2275    1.2122   -0.6742 C   0  0  0  0  0  0  0  0  0  0  0  0
   -1.4397    1.7405    0.2607 H   0  0  0  0  0  0  0  0  0  0  0  0
   -1.7027    1.7581   -1.4954 H   0  0  0  0  0  0  0  0  0  0  0  0
    0.2792    1.0833   -0.8720 C   0  0  0  0  0  0  0  0  0  0  0  0
    0.8160    1.9789   -0.5405 H   0  0  0  0  0  0  0  0  0  0  0  0
    0.5038    0.9215   -1.9314 H   0  0  0  0  0  0  0  0  0  0  0  0
    0.6701   -0.1606   -0.0702 C   0  0  1  0  0  0  0  0  0  0  0  0
    1.4851   -0.6837   -0.5830 H   0  0  0  0  0  0  0  0  0  0  0  0
    1.1559    0.2037    1.3475 C   0  0  0  0  0  0  0  0  0  0  0  0
    2.3540    0.2908    1.5808 O   0  0  0  0  0  0  0  0  0  0  0  0
    0.2562    0.6610    2.2946 N   0  0  0  0  0  0  0  0  0  0  0  0
   -0.7255    0.5015    2.0922 H   0  0  0  0  0  0  0  0  0  0  0  0
    0.6464    1.0489    3.6442 C   0  0  0  0  0  0  0  0  0  0  0  0
    1.3611    1.8780    3.6138 H   0  0  0  0  0  0  0  0  0  0  0  0
   -0.2306    1.3715    4.2132 H   0  0  0  0  0  0  0  0  0  0  0  0
    1.1083    0.2044    4.1662 H   0  0  0  0  0  0  0  0  0  0  0  0
  1  2  1  0  0  0  0
  2  3  1  0  0  0  0
  2  4  1  0  0  0  0
  2  5  1  0  0  0  0
  5  6  2  0  0  0  0
  5  7  1  0  0  0  0
  7  8  1  0  0  0  0
  7 17  1  0  0  0  0
  8  9  1  0  0  0  0
  8 10  1  0  0  0  0
  8 11  1  0  0  0  0
 11 12  1  0  0  0  0
 11 13  1  0  0  0  0
 11 14  1  0  0  0  0
 14 15  1  0  0  0  0
 14 16  1  0  0  0  0
 14 17  1  0  0  0  0
 17 18  1  0  0  0  0
 17 19  1  0  0  0  0
 19 20  2  0  0  0  0
 19 21  1  0  0  0  0
 21 22  1  0  0  0  0
 21 23  1  0  0  0  0
 23 24  1  0  0  0  0
 23 25  1  0  0  0  0
 23 26  1  0  0  0  0
M  END
$$$$

  -OEChem-11182114133D

 26 26  0     1  0  0  0  0  0999 V2000
   -1.5851   -4.2468   -0.1354 H   0  0  0  0  0  0  0  0  0  0  0  0
   -1.8000   -3.1863   -0.2947 C   0  0  0  0  0  0  0  0  0  0  0  0
   -2.5910   -2.8834    0.3953 H   0  0  0  0  0  0  0  0  0  0  0  0
   -2.1471   -3.0516   -1.3218 H   0  0  0  0  0  0  0  0  0  0  0  0
   -0.5465   -2.3568   -0.0524 C   0  0  0  0  0  0  0  0  0  0  0  0
    0.4932   -2.9375    0.2172 O   0  0  0  0  0  0  0  0  0  0  0  0
   -0.5689   -0.9656   -0.0848 N   0  0  0  0  0  0  0  0  0  0  0  0
   -1.7215   -0.2234   -0.5783 C   0  0  0  0  0  0  0  0  0  0  0  0
   -2.5836   -0.3044    0.0921 H   0  0  0  0  0  0  0  0  0  0  0  0
   -2.0093   -0.5754   -1.5750 H   0  0  0  0  0  0  0  0  0  0  0  0
   -1.2230    1.2128   -0.6558 C   0  0  0  0  0  0  0  0  0  0  0  0
   -1.4251    1.7298    0.2881 H   0  0  0  0  0  0  0  0  0  0  0  0
   -1.7024    1.7697   -1.4669 H   0  0  0  0  0  0  0  0  0  0  0  0
    0.2817    1.0814   -0.8632 C   0  0  0  0  0  0  0  0  0  0  0  0
    0.8227    1.9730   -0.5278 H   0  0  0  0  0  0  0  0  0  0  0  0
    0.4997    0.9281   -1.9251 H   0  0  0  0  0  0  0  0  0  0  0  0
    0.6726   -0.1713   -0.0747 C   0  0  1  0  0  0  0  0  0  0  0  0
    1.4856   -0.6933   -0.5913 H   0  0  0  0  0  0  0  0  0  0  0  0
    1.1631    0.1923    1.3413 C   0  0  0  0  0  0  0  0  0  0  0  0
    2.3271    0.5276    1.5170 O   0  0  0  0  0  0  0  0  0  0  0  0
    0.2542    0.3545    2.3718 N   0  0  0  0  0  0  0  0  0  0  0  0
   -0.6795   -0.0062    2.2027 H   0  0  0  0  0  0  0  0  0  0  0  0
    0.6405    0.7164    3.7293 C   0  0  0  0  0  0  0  0  0  0  0  0
    1.1479    1.6869    3.7377 H   0  0  0  0  0  0  0  0  0  0  0  0
   -0.2449    0.7856    4.3682 H   0  0  0  0  0  0  0  0  0  0  0  0
    1.3146   -0.0375    4.1494 H   0  0  0  0  0  0  0  0  0  0  0  0
  1  2  1  0  0  0  0
  2  3  1  0  0  0  0
  2  4  1  0  0  0  0
  2  5  1  0  0  0  0
  5  6  2  0  0  0  0
  5  7  1  0  0  0  0
  7  8  1  0  0  0  0
  7 17  1  0  0  0  0
  8  9  1  0  0  0  0
  8 10  1  0  0  0  0
  8 11  1  0  0  0  0
 11 12  1  0  0  0  0
 11 13  1  0  0  0  0
 11 14  1  0  0  0  0
 14 15  1  0  0  0  0
 14 16  1  0  0  0  0
 14 17  1  0  0  0  0
 17 18  1  0  0  0  0
 17 19  1  0  0  0  0
 19 20  2  0  0  0  0
 19 21  1  0  0  0  0
 21 22  1  0  0  0  0
 21 23  1  0  0  0  0
 23 24  1  0  0  0  0
 23 25  1  0  0  0  0
 23 26  1  0  0  0  0
M  END
$$$$

  -OEChem-11182114133D

 26 26  0     1  0  0  0  0  0999 V2000
   -1.5960   -4.2444   -0.1421 H   0  0  0  0  0  0  0  0  0  0  0  0
   -1.8066   -3.1838   -0.3063 C   0  0  0  0  0  0  0  0  0  0  0  0
   -2.6002   -2.8760    0.3784 H   0  0  0  0  0  0  0  0  0  0  0  0
   -2.1480   -3.0513   -1.3356 H   0  0  0  0  0  0  0  0  0  0  0  0
   -0.5523   -2.3567   -0.0602 C   0  0  0  0  0  0  0  0  0  0  0  0
    0.4833   -2.9375    0.2243 O   0  0  0  0  0  0  0  0  0  0  0  0
   -0.5709   -0.9657   -0.0918 N   0  0  0  0  0  0  0  0  0  0  0  0
   -1.7235   -0.2203   -0.5788 C   0  0  0  0  0  0  0  0  0  0  0  0
   -2.5836   -0.3026    0.0939 H   0  0  0  0  0  0  0  0  0  0  0  0
   -2.0141   -0.5675   -1.5763 H   0  0  0  0  0  0  0  0  0  0  0  0
   -1.2226    1.2145   -0.6511 C   0  0  0  0  0  0  0  0  0  0  0  0
   -1.4204    1.7254    0.2973 H   0  0  0  0  0  0  0  0  0  0  0  0
   -1.7033    1.7776   -1.4571 H   0  0  0  0  0  0  0  0  0  0  0  0
    0.2812    1.0828   -0.8622 C   0  0  0  0  0  0  0  0  0  0  0  0
    0.8220    1.9746   -0.5268 H   0  0  0  0  0  0  0  0  0  0  0  0
    0.4965    0.9331   -1.9251 H   0  0  0  0  0  0  0  0  0  0  0  0
    0.6733   -0.1741   -0.0791 C   0  0  1  0  0  0  0  0  0  0  0  0
    1.4857   -0.6955   -0.5970 H   0  0  0  0  0  0  0  0  0  0  0  0
    1.1661    0.1900    1.3371 C   0  0  0  0  0  0  0  0  0  0  0  0
    2.2506    0.7392    1.4840 O   0  0  0  0  0  0  0  0  0  0  0  0
    0.3256    0.0582    2.4278 N   0  0  0  0  0  0  0  0  0  0  0  0
   -0.5224   -0.4784    2.2732 H   0  0  0  0  0  0  0  0  0  0  0  0
    0.7287    0.3726    3.7920 C   0  0  0  0  0  0  0  0  0  0  0  0
    1.0123    1.4271    3.8741 H   0  0  0  0  0  0  0  0  0  0  0  0
   -0.0979    0.1833    4.4834 H   0  0  0  0  0  0  0  0  0  0  0  0
    1.5811   -0.2463    4.0916 H   0  0  0  0  0  0  0  0  0  0  0  0
  1  2  1  0  0  0  0
  2  3  1  0  0  0  0
  2  4  1  0  0  0  0
  2  5  1  0  0  0  0
  5  6  2  0  0  0  0
  5  7  1  0  0  0  0
  7  8  1  0  0  0  0
  7 17  1  0  0  0  0
  8  9  1  0  0  0  0
  8 10  1  0  0  0  0
  8 11  1  0  0  0  0
 11 12  1  0  0  0  0
 11 13  1  0  0  0  0
 11 14  1  0  0  0  0
 14 15  1  0  0  0  0
 14 16  1  0  0  0  0
 14 17  1  0  0  0  0
 17 18  1  0  0  0  0
 17 19  1  0  0  0  0
 19 20  2  0  0  0  0
 19 21  1  0  0  0  0
 21 22  1  0  0  0  0
 21 23  1  0  0  0  0
 23 24  1  0  0  0  0
 23 25  1  0  0  0  0
 23 26  1  0  0  0  0
M  END
$$$$

  -OEChem-11182114133D

 26 26  0     1  0  0  0  0  0999 V2000
   -1.6051   -4.2366   -0.1380 H   0  0  0  0  0  0  0  0  0  0  0  0
   -1.8096   -3.1780   -0.3220 C   0  0  0  0  0  0  0  0  0  0  0  0
   -2.6218   -2.8605    0.3363 H   0  0  0  0  0  0  0  0  0  0  0  0
   -2.1222   -3.0588   -1.3621 H   0  0  0  0  0  0  0  0  0  0  0  0
   -0.5613   -2.3489   -0.0532 C   0  0  0  0  0  0  0  0  0  0  0  0
    0.4662   -2.9258    0.2673 O   0  0  0  0  0  0  0  0  0  0  0  0
   -0.5779   -0.9583   -0.0862 N   0  0  0  0  0  0  0  0  0  0  0  0
   -1.7299   -0.2145   -0.5766 C   0  0  0  0  0  0  0  0  0  0  0  0
   -2.5895   -0.2928    0.0971 H   0  0  0  0  0  0  0  0  0  0  0  0
   -2.0213   -0.5665   -1.5721 H   0  0  0  0  0  0  0  0  0  0  0  0
   -1.2292    1.2189   -0.6572 C   0  0  0  0  0  0  0  0  0  0  0  0
   -1.4266    1.7348    0.2885 H   0  0  0  0  0  0  0  0  0  0  0  0
   -1.7098    1.7777   -1.4661 H   0  0  0  0  0  0  0  0  0  0  0  0
    0.2742    1.0856   -0.8670 C   0  0  0  0  0  0  0  0  0  0  0  0
    0.8131    1.9821   -0.5418 H   0  0  0  0  0  0  0  0  0  0  0  0
    0.4877    0.9279   -1.9290 H   0  0  0  0  0  0  0  0  0  0  0  0
    0.6682   -0.1681   -0.0759 C   0  0  1  0  0  0  0  0  0  0  0  0
    1.4790   -0.6927   -0.5926 H   0  0  0  0  0  0  0  0  0  0  0  0
    1.1644    0.1970    1.3409 C   0  0  0  0  0  0  0  0  0  0  0  0
    2.1343    0.9318    1.4824 O   0  0  0  0  0  0  0  0  0  0  0  0
    0.4612   -0.2103    2.4600 N   0  0  0  0  0  0  0  0  0  0  0  0
   -0.2471   -0.9205    2.2999 H   0  0  0  0  0  0  0  0  0  0  0  0
    0.9106    0.0436    3.8223 C   0  0  0  0  0  0  0  0  0  0  0  0
    1.0008    1.1200    4.0014 H   0  0  0  0  0  0  0  0  0  0  0  0
    0.1925   -0.3656    4.5391 H   0  0  0  0  0  0  0  0  0  0  0  0
    1.8838   -0.4264    3.9977 H   0  0  0  0  0  0  0  0  0  0  0  0
  1  2  1  0  0  0  0
  2  3  1  0  0  0  0
  2  4  1  0  0  0  0
  2  5  1  0  0  0  0
  5  6  2  0  0  0  0
  5  7  1  0  0  0  0
  7  8  1  0  0  0  0
  7 17  1  0  0  0  0
  8  9  1  0  0  0  0
  8 10  1  0  0  0  0
  8 11  1  0  0  0  0
 11 12  1  0  0  0  0
 11 13  1  0  0  0  0
 11 14  1  0  0  0  0
 14 15  1  0  0  0  0
 14 16  1  0  0  0  0
 14 17  1  0  0  0  0
 17 18  1  0  0  0  0
 17 19  1  0  0  0  0
 19 20  2  0  0  0  0
 19 21  1  0  0  0  0
 21 22  1  0  0  0  0
 21 23  1  0  0  0  0
 23 24  1  0  0  0  0
 23 25  1  0  0  0  0
 23 26  1  0  0  0  0
M  END
$$$$

  -OEChem-11182114133D

 26 26  0     1  0  0  0  0  0999 V2000
   -1.6111   -4.2265   -0.1493 H   0  0  0  0  0  0  0  0  0  0  0  0
   -1.8161   -3.1669   -0.3267 C   0  0  0  0  0  0  0  0  0  0  0  0
   -2.6351   -2.8558    0.3260 H   0  0  0  0  0  0  0  0  0  0  0  0
   -2.1187   -3.0403   -1.3688 H   0  0  0  0  0  0  0  0  0  0  0  0
   -0.5726   -2.3373   -0.0386 C   0  0  0  0  0  0  0  0  0  0  0  0
    0.4443   -2.9100    0.3224 O   0  0  0  0  0  0  0  0  0  0  0  0
   -0.5851   -0.9473   -0.0712 N   0  0  0  0  0  0  0  0  0  0  0  0
   -1.7353   -0.2053   -0.5690 C   0  0  0  0  0  0  0  0  0  0  0  0
   -2.5937   -0.2734    0.1074 H   0  0  0  0  0  0  0  0  0  0  0  0
   -2.0303   -0.5668   -1.5599 H   0  0  0  0  0  0  0  0  0  0  0  0
   -1.2319    1.2253   -0.6670 C   0  0  0  0  0  0  0  0  0  0  0  0
   -1.4265    1.7523    0.2733 H   0  0  0  0  0  0  0  0  0  0  0  0
   -1.7126    1.7759   -1.4816 H   0  0  0  0  0  0  0  0  0  0  0  0
    0.2704    1.0864   -0.8764 C   0  0  0  0  0  0  0  0  0  0  0  0
    0.8094    1.9882   -0.5677 H   0  0  0  0  0  0  0  0  0  0  0  0
    0.4818    0.9137   -1.9365 H   0  0  0  0  0  0  0  0  0  0  0  0
    0.6637   -0.1599   -0.0702 C   0  0  1  0  0  0  0  0  0  0  0  0
    1.4709   -0.6912   -0.5853 H   0  0  0  0  0  0  0  0  0  0  0  0
    1.1655    0.1987    1.3492 C   0  0  0  0  0  0  0  0  0  0  0  0
    1.9765    1.1022    1.5160 O   0  0  0  0  0  0  0  0  0  0  0  0
    0.6570   -0.4564    2.4559 N   0  0  0  0  0  0  0  0  0  0  0  0
    0.1521   -1.3161    2.2540 H   0  0  0  0  0  0  0  0  0  0  0  0
    1.1559   -0.2411    3.8077 C   0  0  0  0  0  0  0  0  0  0  0  0
    1.0205    0.8044    4.1039 H   0  0  0  0  0  0  0  0  0  0  0  0
    0.6110   -0.8727    4.5157 H   0  0  0  0  0  0  0  0  0  0  0  0
    2.2205   -0.4900    3.8673 H   0  0  0  0  0  0  0  0  0  0  0  0
  1  2  1  0  0  0  0
  2  3  1  0  0  0  0
  2  4  1  0  0  0  0
  2  5  1  0  0  0  0
  5  6  2  0  0  0  0
  5  7  1  0  0  0  0
  7  8  1  0  0  0  0
  7 17  1  0  0  0  0
  8  9  1  0  0  0  0
  8 10  1  0  0  0  0
  8 11  1  0  0  0  0
 11 12  1  0  0  0  0
 11 13  1  0  0  0  0
 11 14  1  0  0  0  0
 14 15  1  0  0  0  0
 14 16  1  0  0  0  0
 14 17  1  0  0  0  0
 17 18  1  0  0  0  0
 17 19  1  0  0  0  0
 19 20  2  0  0  0  0
 19 21  1  0  0  0  0
 21 22  1  0  0  0  0
 21 23  1  0  0  0  0
 23 24  1  0  0  0  0
 23 25  1  0  0  0  0
 23 26  1  0  0  0  0
M  END
$$$$

  -OEChem-11182114133D

 26 26  0     1  0  0  0  0  0999 V2000
   -1.6123   -4.2134   -0.1124 H   0  0  0  0  0  0  0  0  0  0  0  0
   -1.8135   -3.1563   -0.3076 C   0  0  0  0  0  0  0  0  0  0  0  0
   -2.6377   -2.8341    0.3335 H   0  0  0  0  0  0  0  0  0  0  0  0
   -2.1064   -3.0445   -1.3541 H   0  0  0  0  0  0  0  0  0  0  0  0
   -0.5711   -2.3246   -0.0209 C   0  0  0  0  0  0  0  0  0  0  0  0
    0.4464   -2.8951    0.3460 O   0  0  0  0  0  0  0  0  0  0  0  0
   -0.5835   -0.9348   -0.0544 N   0  0  0  0  0  0  0  0  0  0  0  0
   -1.7357   -0.1972   -0.5543 C   0  0  0  0  0  0  0  0  0  0  0  0
   -2.5906   -0.2572    0.1278 H   0  0  0  0  0  0  0  0  0  0  0  0
   -2.0366   -0.5697   -1.5394 H   0  0  0  0  0  0  0  0  0  0  0  0
   -1.2326    1.2318   -0.6714 C   0  0  0  0  0  0  0  0  0  0  0  0
   -1.4208    1.7693    0.2642 H   0  0  0  0  0  0  0  0  0  0  0  0
   -1.7180    1.7738   -1.4889 H   0  0  0  0  0  0  0  0  0  0  0  0
    0.2682    1.0905   -0.8876 C   0  0  0  0  0  0  0  0  0  0  0  0
    0.8087    1.9974   -0.5980 H   0  0  0  0  0  0  0  0  0  0  0  0
    0.4720    0.9038   -1.9469 H   0  0  0  0  0  0  0  0  0  0  0  0
    0.6654   -0.1480   -0.0686 C   0  0  1  0  0  0  0  0  0  0  0  0
    1.4693   -0.6834   -0.5845 H   0  0  0  0  0  0  0  0  0  0  0  0
    1.1694    0.2018    1.3536 C   0  0  0  0  0  0  0  0  0  0  0  0
    1.7853    1.2376    1.5778 O   0  0  0  0  0  0  0  0  0  0  0  0
    0.9016   -0.6557    2.4048 N   0  0  0  0  0  0  0  0  0  0  0  0
    0.5791   -1.5841    2.1316 H   0  0  0  0  0  0  0  0  0  0  0  0
    1.4417   -0.4700    3.7449 C   0  0  0  0  0  0  0  0  0  0  0  0
    1.1176    0.4905    4.1588 H   0  0  0  0  0  0  0  0  0  0  0  0
    1.0890   -1.2666    4.4067 H   0  0  0  0  0  0  0  0  0  0  0  0
    2.5361   -0.4943    3.7236 H   0  0  0  0  0  0  0  0  0  0  0  0
  1  2  1  0  0  0  0
  2  3  1  0  0  0  0
  2  4  1  0  0  0  0
  2  5  1  0  0  0  0
  5  6  2  0  0  0  0
  5  7  1  0  0  0  0
  7  8  1  0  0  0  0
  7 17  1  0  0  0  0
  8  9  1  0  0  0  0
  8 10  1  0  0  0  0
  8 11  1  0  0  0  0
 11 12  1  0  0  0  0
 11 13  1  0  0  0  0
 11 14  1  0  0  0  0
 14 15  1  0  0  0  0
 14 16  1  0  0  0  0
 14 17  1  0  0  0  0
 17 18  1  0  0  0  0
 17 19  1  0  0  0  0
 19 20  2  0  0  0  0
 19 21  1  0  0  0  0
 21 22  1  0  0  0  0
 21 23  1  0  0  0  0
 23 24  1  0  0  0  0
 23 25  1  0  0  0  0
 23 26  1  0  0  0  0
M  END
$$$$

  -OEChem-11182114133D

 26 26  0     1  0  0  0  0  0999 V2000
   -1.5946   -4.2060   -0.0776 H   0  0  0  0  0  0  0  0  0  0  0  0
   -1.8025   -3.1485   -0.2627 C   0  0  0  0  0  0  0  0  0  0  0  0
   -2.6044   -2.8283    0.4069 H   0  0  0  0  0  0  0  0  0  0  0  0
   -2.1315   -3.0331   -1.2980 H   0  0  0  0  0  0  0  0  0  0  0  0
   -0.5513   -2.3172   -0.0157 C   0  0  0  0  0  0  0  0  0  0  0  0
    0.4813   -2.8907    0.3051 O   0  0  0  0  0  0  0  0  0  0  0  0
   -0.5665   -0.9268   -0.0506 N   0  0  0  0  0  0  0  0  0  0  0  0
   -1.7274   -0.1919   -0.5343 C   0  0  0  0  0  0  0  0  0  0  0  0
   -2.5703   -0.2498    0.1624 H   0  0  0  0  0  0  0  0  0  0  0  0
   -2.0445   -0.5682   -1.5129 H   0  0  0  0  0  0  0  0  0  0  0  0
   -1.2260    1.2363   -0.6644 C   0  0  0  0  0  0  0  0  0  0  0  0
   -1.4006    1.7774    0.2718 H   0  0  0  0  0  0  0  0  0  0  0  0
   -1.7236    1.7749   -1.4765 H   0  0  0  0  0  0  0  0  0  0  0  0
    0.2721    1.0959   -0.9017 C   0  0  0  0  0  0  0  0  0  0  0  0
    0.8181    2.0040   -0.6266 H   0  0  0  0  0  0  0  0  0  0  0  0
    0.4588    0.9033   -1.9630 H   0  0  0  0  0  0  0  0  0  0  0  0
    0.6810   -0.1398   -0.0836 C   0  0  1  0  0  0  0  0  0  0  0  0
    1.4815   -0.6729   -0.6068 H   0  0  0  0  0  0  0  0  0  0  0  0
    1.1873    0.2008    1.3404 C   0  0  0  0  0  0  0  0  0  0  0  0
    1.5768    1.3228    1.6440 O   0  0  0  0  0  0  0  0  0  0  0  0
    1.1974   -0.7903    2.3038 N   0  0  0  0  0  0  0  0  0  0  0  0
    0.9944   -1.7344    1.9697 H   0  0  0  0  0  0  0  0  0  0  0  0
    1.7328   -0.6119    3.6464 C   0  0  0  0  0  0  0  0  0  0  0  0
    1.2130    0.2031    4.1608 H   0  0  0  0  0  0  0  0  0  0  0  0
    1.5993   -1.5279    4.2297 H   0  0  0  0  0  0  0  0  0  0  0  0
    2.8018   -0.3787    3.6044 H   0  0  0  0  0  0  0  0  0  0  0  0
  1  2  1  0  0  0  0
  2  3  1  0  0  0  0
  2  4  1  0  0  0  0
  2  5  1  0  0  0  0
  5  6  2  0  0  0  0
  5  7  1  0  0  0  0
  7  8  1  0  0  0  0
  7 17  1  0  0  0  0
  8  9  1  0  0  0  0
  8 10  1  0  0  0  0
  8 11  1  0  0  0  0
 11 12  1  0  0  0  0
 11 13  1  0  0  0  0
 11 14  1  0  0  0  0
 14 15  1  0  0  0  0
 14 16  1  0  0  0  0
 14 17  1  0  0  0  0
 17 18  1  0  0  0  0
 17 19  1  0  0  0  0
 19 20  2  0  0  0  0
 19 21  1  0  0  0  0
 21 22  1  0  0  0  0
 21 23  1  0  0  0  0
 23 24  1  0  0  0  0
 23 25  1  0  0  0  0
 23 26  1  0  0  0  0
M  END
$$$$

  -OEChem-11182114133D

 26 26  0     1  0  0  0  0  0999 V2000
   -1.5749   -4.1976   -0.0215 H   0  0  0  0  0  0  0  0  0  0  0  0
   -1.7874   -3.1412   -0.2082 C   0  0  0  0  0  0  0  0  0  0  0  0
   -2.5671   -2.8146    0.4842 H   0  0  0  0  0  0  0  0  0  0  0  0
   -2.1493   -3.0341   -1.2334 H   0  0  0  0  0  0  0  0  0  0  0  0
   -0.5281   -2.3094   -0.0080 C   0  0  0  0  0  0  0  0  0  0  0  0
    0.5176   -2.8843    0.2672 O   0  0  0  0  0  0  0  0  0  0  0  0
   -0.5456   -0.9189   -0.0489 N   0  0  0  0  0  0  0  0  0  0  0  0
   -1.7142   -0.1838   -0.5134 C   0  0  0  0  0  0  0  0  0  0  0  0
   -2.5447   -0.2383    0.1982 H   0  0  0  0  0  0  0  0  0  0  0  0
   -2.0492   -0.5624   -1.4851 H   0  0  0  0  0  0  0  0  0  0  0  0
   -1.2127    1.2434   -0.6566 C   0  0  0  0  0  0  0  0  0  0  0  0
   -1.3686    1.7871    0.2816 H   0  0  0  0  0  0  0  0  0  0  0  0
   -1.7244    1.7813   -1.4604 H   0  0  0  0  0  0  0  0  0  0  0  0
    0.2807    1.0993   -0.9214 C   0  0  0  0  0  0  0  0  0  0  0  0
    0.8361    2.0052   -0.6572 H   0  0  0  0  0  0  0  0  0  0  0  0
    0.4469    0.9037   -1.9855 H   0  0  0  0  0  0  0  0  0  0  0  0
    0.7008   -0.1348   -0.1076 C   0  0  1  0  0  0  0  0  0  0  0  0
    1.4940   -0.6675   -0.6423 H   0  0  0  0  0  0  0  0  0  0  0  0
    1.2193    0.2032    1.3112 C   0  0  0  0  0  0  0  0  0  0  0  0
    1.3701    1.3553    1.7027 O   0  0  0  0  0  0  0  0  0  0  0  0
    1.5287   -0.8384    2.1646 N   0  0  0  0  0  0  0  0  0  0  0  0
    1.3797   -1.7817    1.7989 H   0  0  0  0  0  0  0  0  0  0  0  0
    2.0228   -0.6648    3.5233 C   0  0  0  0  0  0  0  0  0  0  0  0
    1.2741   -0.1575    4.1404 H   0  0  0  0  0  0  0  0  0  0  0  0
    2.2409   -1.6385    3.9722 H   0  0  0  0  0  0  0  0  0  0  0  0
    2.9426   -0.0708    3.5235 H   0  0  0  0  0  0  0  0  0  0  0  0
  1  2  1  0  0  0  0
  2  3  1  0  0  0  0
  2  4  1  0  0  0  0
  2  5  1  0  0  0  0
  5  6  2  0  0  0  0
  5  7  1  0  0  0  0
  7  8  1  0  0  0  0
  7 17  1  0  0  0  0
  8  9  1  0  0  0  0
  8 10  1  0  0  0  0
  8 11  1  0  0  0  0
 11 12  1  0  0  0  0
 11 13  1  0  0  0  0
 11 14  1  0  0  0  0
 14 15  1  0  0  0  0
 14 16  1  0  0  0  0
 14 17  1  0  0  0  0
 17 18  1  0  0  0  0
 17 19  1  0  0  0  0
 19 20  2  0  0  0  0
 19 21  1  0  0  0  0
 21 22  1  0  0  0  0
 21 23  1  0  0  0  0
 23 24  1  0  0  0  0
 23 25  1  0  0  0  0
 23 26  1  0  0  0  0
M  END
$$$$

  -OEChem-11182114133D

 26 26  0     1  0  0  0  0  0999 V2000
   -1.5324   -4.1937    0.0161 H   0  0  0  0  0  0  0  0  0  0  0  0
   -1.7575   -3.1383   -0.1609 C   0  0  0  0  0  0  0  0  0  0  0  0
   -2.5161   -2.8180    0.5574 H   0  0  0  0  0  0  0  0  0  0  0  0
   -2.1533   -3.0306   -1.1735 H   0  0  0  0  0  0  0  0  0  0  0  0
   -0.4981   -2.2989    0.0012 C   0  0  0  0  0  0  0  0  0  0  0  0
    0.5607   -2.8652    0.2457 O   0  0  0  0  0  0  0  0  0  0  0  0
   -0.5259   -0.9092   -0.0506 N   0  0  0  0  0  0  0  0  0  0  0  0
   -1.7049   -0.1787   -0.4949 C   0  0  0  0  0  0  0  0  0  0  0  0
   -2.5216   -0.2331    0.2326 H   0  0  0  0  0  0  0  0  0  0  0  0
   -2.0568   -0.5605   -1.4593 H   0  0  0  0  0  0  0  0  0  0  0  0
   -1.2070    1.2492   -0.6492 C   0  0  0  0  0  0  0  0  0  0  0  0
   -1.3479    1.7944    0.2904 H   0  0  0  0  0  0  0  0  0  0  0  0
   -1.7328    1.7851   -1.4452 H   0  0  0  0  0  0  0  0  0  0  0  0
    0.2825    1.1057   -0.9397 C   0  0  0  0  0  0  0  0  0  0  0  0
    0.8427    2.0101   -0.6794 H   0  0  0  0  0  0  0  0  0  0  0  0
    0.4322    0.9118   -2.0067 H   0  0  0  0  0  0  0  0  0  0  0  0
    0.7172   -0.1263   -0.1318 C   0  0  1  0  0  0  0  0  0  0  0  0
    1.5054   -0.6557   -0.6775 H   0  0  0  0  0  0  0  0  0  0  0  0
    1.2434    0.2169    1.2808 C   0  0  0  0  0  0  0  0  0  0  0  0
    1.1661    1.3429    1.7608 O   0  0  0  0  0  0  0  0  0  0  0  0
    1.8470   -0.7895    2.0101 N   0  0  0  0  0  0  0  0  0  0  0  0
    1.7571   -1.7319    1.6237 H   0  0  0  0  0  0  0  0  0  0  0  0
    2.3013   -0.6283    3.3844 C   0  0  0  0  0  0  0  0  0  0  0  0
    1.4535   -0.4191    4.0449 H   0  0  0  0  0  0  0  0  0  0  0  0
    2.7935   -1.5432    3.7280 H   0  0  0  0  0  0  0  0  0  0  0  0
    3.0183    0.1962    3.4577 H   0  0  0  0  0  0  0  0  0  0  0  0
  1  2  1  0  0  0  0
  2  3  1  0  0  0  0
  2  4  1  0  0  0  0
  2  5  1  0  0  0  0
  5  6  2  0  0  0  0
  5  7  1  0  0  0  0
  7  8  1  0  0  0  0
  7 17  1  0  0  0  0
  8  9  1  0  0  0  0
  8 10  1  0  0  0  0
  8 11  1  0  0  0  0
 11 12  1  0  0  0  0
 11 13  1  0  0  0  0
 11 14  1  0  0  0  0
 14 15  1  0  0  0  0
 14 16  1  0  0  0  0
 14 17  1  0  0  0  0
 17 18  1  0  0  0  0
 17 19  1  0  0  0  0
 19 20  2  0  0  0  0
 19 21  1  0  0  0  0
 21 22  1  0  0  0  0
 21 23  1  0  0  0  0
 23 24  1  0  0  0  0
 23 25  1  0  0  0  0
 23 26  1  0  0  0  0
M  END
$$$$

  -OEChem-11182114133D

 26 26  0     1  0  0  0  0  0999 V2000
   -1.5079   -4.1952    0.0253 H   0  0  0  0  0  0  0  0  0  0  0  0
   -1.7418   -3.1408   -0.1465 C   0  0  0  0  0  0  0  0  0  0  0  0
   -2.4932   -2.8262    0.5817 H   0  0  0  0  0  0  0  0  0  0  0  0
   -2.1507   -3.0328   -1.1538 H   0  0  0  0  0  0  0  0  0  0  0  0
   -0.4861   -2.2938    0.0018 C   0  0  0  0  0  0  0  0  0  0  0  0
    0.5814   -2.8522    0.2267 O   0  0  0  0  0  0  0  0  0  0  0  0
   -0.5239   -0.9050   -0.0560 N   0  0  0  0  0  0  0  0  0  0  0  0
   -1.7058   -0.1777   -0.4968 C   0  0  0  0  0  0  0  0  0  0  0  0
   -2.5206   -0.2354    0.2327 H   0  0  0  0  0  0  0  0  0  0  0  0
   -2.0585   -0.5591   -1.4610 H   0  0  0  0  0  0  0  0  0  0  0  0
   -1.2102    1.2513   -0.6485 C   0  0  0  0  0  0  0  0  0  0  0  0
   -1.3536    1.7949    0.2916 H   0  0  0  0  0  0  0  0  0  0  0  0
   -1.7371    1.7871   -1.4439 H   0  0  0  0  0  0  0  0  0  0  0  0
    0.2803    1.1095   -0.9396 C   0  0  0  0  0  0  0  0  0  0  0  0
    0.8388    2.0122   -0.6699 H   0  0  0  0  0  0  0  0  0  0  0  0
    0.4318    0.9219   -2.0074 H   0  0  0  0  0  0  0  0  0  0  0  0
    0.7173   -0.1229   -0.1353 C   0  0  1  0  0  0  0  0  0  0  0  0
    1.5065   -0.6483   -0.6829 H   0  0  0  0  0  0  0  0  0  0  0  0
    1.2379    0.2275    1.2763 C   0  0  0  0  0  0  0  0  0  0  0  0
    0.9569    1.2808    1.8388 O   0  0  0  0  0  0  0  0  0  0  0  0
    2.1057   -0.6581    1.8863 N   0  0  0  0  0  0  0  0  0  0  0  0
    2.1419   -1.5895    1.4700 H   0  0  0  0  0  0  0  0  0  0  0  0
    2.5905   -0.4857    3.2493 C   0  0  0  0  0  0  0  0  0  0  0  0
    1.7585   -0.5286    3.9597 H   0  0  0  0  0  0  0  0  0  0  0  0
    3.3029   -1.2781    3.4986 H   0  0  0  0  0  0  0  0  0  0  0  0
    3.0982    0.4785    3.3579 H   0  0  0  0  0  0  0  0  0  0  0  0
  1  2  1  0  0  0  0
  2  3  1  0  0  0  0
  2  4  1  0  0  0  0
  2  5  1  0  0  0  0
  5  6  2  0  0  0  0
  5  7  1  0  0  0  0
  7  8  1  0  0  0  0
  7 17  1  0  0  0  0
  8  9  1  0  0  0  0
  8 10  1  0  0  0  0
  8 11  1  0  0  0  0
 11 12  1  0  0  0  0
 11 13  1  0  0  0  0
 11 14  1  0  0  0  0
 14 15  1  0  0  0  0
 14 16  1  0  0  0  0
 14 17  1  0  0  0  0
 17 18  1  0  0  0  0
 17 19  1  0  0  0  0
 19 20  2  0  0  0  0
 19 21  1  0  0  0  0
 21 22  1  0  0  0  0
 21 23  1  0  0  0  0
 23 24  1  0  0  0  0
 23 25  1  0  0  0  0
 23 26  1  0  0  0  0
M  END
$$$$

  -OEChem-11182114133D

 26 26  0     1  0  0  0  0  0999 V2000
   -1.5151   -4.1998    0.0225 H   0  0  0  0  0  0  0  0  0  0  0  0
   -1.7490   -3.1451   -0.1467 C   0  0  0  0  0  0  0  0  0  0  0  0
   -2.4915   -2.8296    0.5903 H   0  0  0  0  0  0  0  0  0  0  0  0
   -2.1691   -3.0361   -1.1492 H   0  0  0  0  0  0  0  0  0  0  0  0
   -0.4903   -2.3003   -0.0113 C   0  0  0  0  0  0  0  0  0  0  0  0
    0.5803   -2.8620    0.1874 O   0  0  0  0  0  0  0  0  0  0  0  0
   -0.5280   -0.9115   -0.0672 N   0  0  0  0  0  0  0  0  0  0  0  0
   -1.7090   -0.1825   -0.5085 C   0  0  0  0  0  0  0  0  0  0  0  0
   -2.5280   -0.2473    0.2158 H   0  0  0  0  0  0  0  0  0  0  0  0
   -2.0558   -0.5559   -1.4780 H   0  0  0  0  0  0  0  0  0  0  0  0
   -1.2142    1.2483   -0.6445 C   0  0  0  0  0  0  0  0  0  0  0  0
   -1.3668    1.7843    0.2985 H   0  0  0  0  0  0  0  0  0  0  0  0
   -1.7358    1.7895   -1.4397 H   0  0  0  0  0  0  0  0  0  0  0  0
    0.2790    1.1103   -0.9264 C   0  0  0  0  0  0  0  0  0  0  0  0
    0.8336    2.0098   -0.6385 H   0  0  0  0  0  0  0  0  0  0  0  0
    0.4400    0.9357   -1.9951 H   0  0  0  0  0  0  0  0  0  0  0  0
    0.7129   -0.1280   -0.1306 C   0  0  1  0  0  0  0  0  0  0  0  0
    1.5039   -0.6494   -0.6798 H   0  0  0  0  0  0  0  0  0  0  0  0
    1.2322    0.2306    1.2798 C   0  0  0  0  0  0  0  0  0  0  0  0
    0.7596    1.1576    1.9298 O   0  0  0  0  0  0  0  0  0  0  0  0
    2.3232   -0.4564    1.7782 N   0  0  0  0  0  0  0  0  0  0  0  0
    2.5459   -1.3303    1.3045 H   0  0  0  0  0  0  0  0  0  0  0  0
    2.8440   -0.2460    3.1230 C   0  0  0  0  0  0  0  0  0  0  0  0
    2.0938   -0.5216    3.8714 H   0  0  0  0  0  0  0  0  0  0  0  0
    3.7364   -0.8589    3.2820 H   0  0  0  0  0  0  0  0  0  0  0  0
    3.1188    0.8040    3.2690 H   0  0  0  0  0  0  0  0  0  0  0  0
  1  2  1  0  0  0  0
  2  3  1  0  0  0  0
  2  4  1  0  0  0  0
  2  5  1  0  0  0  0
  5  6  2  0  0  0  0
  5  7  1  0  0  0  0
  7  8  1  0  0  0  0
  7 17  1  0  0  0  0
  8  9  1  0  0  0  0
  8 10  1  0  0  0  0
  8 11  1  0  0  0  0
 11 12  1  0  0  0  0
 11 13  1  0  0  0  0
 11 14  1  0  0  0  0
 14 15  1  0  0  0  0
 14 16  1  0  0  0  0
 14 17  1  0  0  0  0
 17 18  1  0  0  0  0
 17 19  1  0  0  0  0
 19 20  2  0  0  0  0
 19 21  1  0  0  0  0
 21 22  1  0  0  0  0
 21 23  1  0  0  0  0
 23 24  1  0  0  0  0
 23 25  1  0  0  0  0
 23 26  1  0  0  0  0
M  END
$$$$

  -OEChem-11182114133D

 26 26  0     1  0  0  0  0  0999 V2000
   -1.5274   -4.2034    0.0225 H   0  0  0  0  0  0  0  0  0  0  0  0
   -1.7588   -3.1474   -0.1424 C   0  0  0  0  0  0  0  0  0  0  0  0
   -2.4891   -2.8292    0.6055 H   0  0  0  0  0  0  0  0  0  0  0  0
   -2.1924   -3.0349   -1.1387 H   0  0  0  0  0  0  0  0  0  0  0  0
   -0.4944   -2.3085   -0.0240 C   0  0  0  0  0  0  0  0  0  0  0  0
    0.5765   -2.8767    0.1502 O   0  0  0  0  0  0  0  0  0  0  0  0
   -0.5284   -0.9199   -0.0799 N   0  0  0  0  0  0  0  0  0  0  0  0
   -1.7091   -0.1894   -0.5186 C   0  0  0  0  0  0  0  0  0  0  0  0
   -2.5303   -0.2628    0.2023 H   0  0  0  0  0  0  0  0  0  0  0  0
   -2.0511   -0.5551   -1.4928 H   0  0  0  0  0  0  0  0  0  0  0  0
   -1.2162    1.2434   -0.6387 C   0  0  0  0  0  0  0  0  0  0  0  0
   -1.3759    1.7701    0.3083 H   0  0  0  0  0  0  0  0  0  0  0  0
   -1.7350    1.7905   -1.4316 H   0  0  0  0  0  0  0  0  0  0  0  0
    0.2789    1.1111   -0.9147 C   0  0  0  0  0  0  0  0  0  0  0  0
    0.8294    2.0086   -0.6130 H   0  0  0  0  0  0  0  0  0  0  0  0
    0.4455    0.9478   -1.9842 H   0  0  0  0  0  0  0  0  0  0  0  0
    0.7115   -0.1334   -0.1294 C   0  0  1  0  0  0  0  0  0  0  0  0
    1.5039   -0.6522   -0.6784 H   0  0  0  0  0  0  0  0  0  0  0  0
    1.2288    0.2354    1.2794 C   0  0  0  0  0  0  0  0  0  0  0  0
    0.5956    0.9795    2.0210 O   0  0  0  0  0  0  0  0  0  0  0  0
    2.4822   -0.1964    1.6733 N   0  0  0  0  0  0  0  0  0  0  0  0
    2.8915   -0.9448    1.1195 H   0  0  0  0  0  0  0  0  0  0  0  0
    3.0202    0.0514    3.0051 C   0  0  0  0  0  0  0  0  0  0  0  0
    2.4045   -0.4424    3.7640 H   0  0  0  0  0  0  0  0  0  0  0  0
    4.0406   -0.3366    3.0779 H   0  0  0  0  0  0  0  0  0  0  0  0
    3.0457    1.1258    3.2161 H   0  0  0  0  0  0  0  0  0  0  0  0
  1  2  1  0  0  0  0
  2  3  1  0  0  0  0
  2  4  1  0  0  0  0
  2  5  1  0  0  0  0
  5  6  2  0  0  0  0
  5  7  1  0  0  0  0
  7  8  1  0  0  0  0
  7 17  1  0  0  0  0
  8  9  1  0  0  0  0
  8 10  1  0  0  0  0
  8 11  1  0  0  0  0
 11 12  1  0  0  0  0
 11 13  1  0  0  0  0
 11 14  1  0  0  0  0
 14 15  1  0  0  0  0
 14 16  1  0  0  0  0
 14 17  1  0  0  0  0
 17 18  1  0  0  0  0
 17 19  1  0  0  0  0
 19 20  2  0  0  0  0
 19 21  1  0  0  0  0
 21 22  1  0  0  0  0
 21 23  1  0  0  0  0
 23 24  1  0  0  0  0
 23 25  1  0  0  0  0
 23 26  1  0  0  0  0
M  END
$$$$

  -OEChem-11182114133D

 26 26  0     1  0  0  0  0  0999 V2000
   -1.5390   -4.2088    0.0251 H   0  0  0  0  0  0  0  0  0  0  0  0
   -1.7672   -3.1531   -0.1456 C   0  0  0  0  0  0  0  0  0  0  0  0
   -2.4970   -2.8289    0.6001 H   0  0  0  0  0  0  0  0  0  0  0  0
   -2.1997   -3.0445   -1.1428 H   0  0  0  0  0  0  0  0  0  0  0  0
   -0.5006   -2.3173   -0.0306 C   0  0  0  0  0  0  0  0  0  0  0  0
    0.5696   -2.8902    0.1295 O   0  0  0  0  0  0  0  0  0  0  0  0
   -0.5319   -0.9289   -0.0880 N   0  0  0  0  0  0  0  0  0  0  0  0
   -1.7106   -0.1964   -0.5279 C   0  0  0  0  0  0  0  0  0  0  0  0
   -2.5362   -0.2757    0.1872 H   0  0  0  0  0  0  0  0  0  0  0  0
   -2.0462   -0.5549   -1.5069 H   0  0  0  0  0  0  0  0  0  0  0  0
   -1.2176    1.2374   -0.6328 C   0  0  0  0  0  0  0  0  0  0  0  0
   -1.3835    1.7550    0.3183 H   0  0  0  0  0  0  0  0  0  0  0  0
   -1.7317    1.7914   -1.4240 H   0  0  0  0  0  0  0  0  0  0  0  0
    0.2796    1.1097   -0.8993 C   0  0  0  0  0  0  0  0  0  0  0  0
    0.8260    2.0058   -0.5862 H   0  0  0  0  0  0  0  0  0  0  0  0
    0.4544    0.9549   -1.9689 H   0  0  0  0  0  0  0  0  0  0  0  0
    0.7073   -0.1399   -0.1217 C   0  0  1  0  0  0  0  0  0  0  0  0
    1.5034   -0.6581   -0.6657 H   0  0  0  0  0  0  0  0  0  0  0  0
    1.2184    0.2395    1.2869 C   0  0  0  0  0  0  0  0  0  0  0  0
    0.4800    0.7616    2.1156 O   0  0  0  0  0  0  0  0  0  0  0  0
    2.5619    0.0959    1.5846 N   0  0  0  0  0  0  0  0  0  0  0  0
    3.1143   -0.4597    0.9376 H   0  0  0  0  0  0  0  0  0  0  0  0
    3.1197    0.3902    2.8988 C   0  0  0  0  0  0  0  0  0  0  0  0
    2.6853   -0.2711    3.6557 H   0  0  0  0  0  0  0  0  0  0  0  0
    4.2040    0.2436    2.8899 H   0  0  0  0  0  0  0  0  0  0  0  0
    2.9162    1.4291    3.1792 H   0  0  0  0  0  0  0  0  0  0  0  0
  1  2  1  0  0  0  0
  2  3  1  0  0  0  0
  2  4  1  0  0  0  0
  2  5  1  0  0  0  0
  5  6  2  0  0  0  0
  5  7  1  0  0  0  0
  7  8  1  0  0  0  0
  7 17  1  0  0  0  0
  8  9  1  0  0  0  0
  8 10  1  0  0  0  0
  8 11  1  0  0  0  0
 11 12  1  0  0  0  0
 11 13  1  0  0  0  0
 11 14  1  0  0  0  0
 14 15  1  0  0  0  0
 14 16  1  0  0  0  0
 14 17  1  0  0  0  0
 17 18  1  0  0  0  0
 17 19  1  0  0  0  0
 19 20  2  0  0  0  0
 19 21  1  0  0  0  0
 21 22  1  0  0  0  0
 21 23  1  0  0  0  0
 23 24  1  0  0  0  0
 23 25  1  0  0  0  0
 23 26  1  0  0  0  0
M  END
$$$$

  -OEChem-11182114133D

 26 26  0     1  0  0  0  0  0999 V2000
   -1.5442   -4.2144    0.0206 H   0  0  0  0  0  0  0  0  0  0  0  0
   -1.7715   -3.1581   -0.1474 C   0  0  0  0  0  0  0  0  0  0  0  0
   -2.4970   -2.8338    0.6026 H   0  0  0  0  0  0  0  0  0  0  0  0
   -2.2088   -3.0471   -1.1423 H   0  0  0  0  0  0  0  0  0  0  0  0
   -0.5024   -2.3252   -0.0373 C   0  0  0  0  0  0  0  0  0  0  0  0
    0.5675   -2.9023    0.1080 O   0  0  0  0  0  0  0  0  0  0  0  0
   -0.5313   -0.9367   -0.0978 N   0  0  0  0  0  0  0  0  0  0  0  0
   -1.7105   -0.2028   -0.5325 C   0  0  0  0  0  0  0  0  0  0  0  0
   -2.5365   -0.2885    0.1815 H   0  0  0  0  0  0  0  0  0  0  0  0
   -2.0451   -0.5537   -1.5146 H   0  0  0  0  0  0  0  0  0  0  0  0
   -1.2173    1.2315   -0.6243 C   0  0  0  0  0  0  0  0  0  0  0  0
   -1.3850    1.7395    0.3317 H   0  0  0  0  0  0  0  0  0  0  0  0
   -1.7305    1.7925   -1.4112 H   0  0  0  0  0  0  0  0  0  0  0  0
    0.2810    1.1090   -0.8874 C   0  0  0  0  0  0  0  0  0  0  0  0
    0.8252    2.0040   -0.5676 H   0  0  0  0  0  0  0  0  0  0  0  0
    0.4583    0.9618   -1.9577 H   0  0  0  0  0  0  0  0  0  0  0  0
    0.7079   -0.1463   -0.1190 C   0  0  1  0  0  0  0  0  0  0  0  0
    1.5093   -0.6622   -0.6573 H   0  0  0  0  0  0  0  0  0  0  0  0
    1.2094    0.2409    1.2914 C   0  0  0  0  0  0  0  0  0  0  0  0
    0.4277    0.5245    2.1931 O   0  0  0  0  0  0  0  0  0  0  0  0
    2.5662    0.4016    1.5116 N   0  0  0  0  0  0  0  0  0  0  0  0
    3.1935    0.0679    0.7858 H   0  0  0  0  0  0  0  0  0  0  0  0
    3.1249    0.7447    2.8138 C   0  0  0  0  0  0  0  0  0  0  0  0
    2.8979   -0.0376    3.5456 H   0  0  0  0  0  0  0  0  0  0  0  0
    4.2118    0.8496    2.7433 H   0  0  0  0  0  0  0  0  0  0  0  0
    2.7108    1.6933    3.1717 H   0  0  0  0  0  0  0  0  0  0  0  0
  1  2  1  0  0  0  0
  2  3  1  0  0  0  0
  2  4  1  0  0  0  0
  2  5  1  0  0  0  0
  5  6  2  0  0  0  0
  5  7  1  0  0  0  0
  7  8  1  0  0  0  0
  7 17  1  0  0  0  0
  8  9  1  0  0  0  0
  8 10  1  0  0  0  0
  8 11  1  0  0  0  0
 11 12  1  0  0  0  0
 11 13  1  0  0  0  0
 11 14  1  0  0  0  0
 14 15  1  0  0  0  0
 14 16  1  0  0  0  0
 14 17  1  0  0  0  0
 17 18  1  0  0  0  0
 17 19  1  0  0  0  0
 19 20  2  0  0  0  0
 19 21  1  0  0  0  0
 21 22  1  0  0  0  0
 21 23  1  0  0  0  0
 23 24  1  0  0  0  0
 23 25  1  0  0  0  0
 23 26  1  0  0  0  0
M  END
$$$$

  -OEChem-11182114133D

 26 26  0     1  0  0  0  0  0999 V2000
   -1.5451   -4.2193    0.0142 H   0  0  0  0  0  0  0  0  0  0  0  0
   -1.7727   -3.1624   -0.1491 C   0  0  0  0  0  0  0  0  0  0  0  0
   -2.4932   -2.8399    0.6065 H   0  0  0  0  0  0  0  0  0  0  0  0
   -2.2158   -3.0479   -1.1409 H   0  0  0  0  0  0  0  0  0  0  0  0
   -0.5023   -2.3307   -0.0436 C   0  0  0  0  0  0  0  0  0  0  0  0
    0.5678   -2.9105    0.0881 O   0  0  0  0  0  0  0  0  0  0  0  0
   -0.5314   -0.9419   -0.1046 N   0  0  0  0  0  0  0  0  0  0  0  0
   -1.7106   -0.2091   -0.5384 C   0  0  0  0  0  0  0  0  0  0  0  0
   -2.5389   -0.3012    0.1721 H   0  0  0  0  0  0  0  0  0  0  0  0
   -2.0405   -0.5550   -1.5238 H   0  0  0  0  0  0  0  0  0  0  0  0
   -1.2194    1.2259   -0.6195 C   0  0  0  0  0  0  0  0  0  0  0  0
   -1.3918    1.7264    0.3396 H   0  0  0  0  0  0  0  0  0  0  0  0
   -1.7309    1.7910   -1.4046 H   0  0  0  0  0  0  0  0  0  0  0  0
    0.2805    1.1091   -0.8763 C   0  0  0  0  0  0  0  0  0  0  0  0
    0.8197    2.0054   -0.5518 H   0  0  0  0  0  0  0  0  0  0  0  0
    0.4624    0.9673   -1.9466 H   0  0  0  0  0  0  0  0  0  0  0  0
    0.7078   -0.1500   -0.1129 C   0  0  1  0  0  0  0  0  0  0  0  0
    1.5152   -0.6625   -0.6454 H   0  0  0  0  0  0  0  0  0  0  0  0
    1.2002    0.2419    1.3001 C   0  0  0  0  0  0  0  0  0  0  0  0
    0.4395    0.2753    2.2615 O   0  0  0  0  0  0  0  0  0  0  0  0
    2.4945    0.7053    1.4630 N   0  0  0  0  0  0  0  0  0  0  0  0
    3.1261    0.6046    0.6744 H   0  0  0  0  0  0  0  0  0  0  0  0
    3.0454    1.0913    2.7564 C   0  0  0  0  0  0  0  0  0  0  0  0
    3.0470    0.2370    3.4416 H   0  0  0  0  0  0  0  0  0  0  0  0
    4.0746    1.4439    2.6390 H   0  0  0  0  0  0  0  0  0  0  0  0
    2.4536    1.8987    3.2005 H   0  0  0  0  0  0  0  0  0  0  0  0
  1  2  1  0  0  0  0
  2  3  1  0  0  0  0
  2  4  1  0  0  0  0
  2  5  1  0  0  0  0
  5  6  2  0  0  0  0
  5  7  1  0  0  0  0
  7  8  1  0  0  0  0
  7 17  1  0  0  0  0
  8  9  1  0  0  0  0
  8 10  1  0  0  0  0
  8 11  1  0  0  0  0
 11 12  1  0  0  0  0
 11 13  1  0  0  0  0
 11 14  1  0  0  0  0
 14 15  1  0  0  0  0
 14 16  1  0  0  0  0
 14 17  1  0  0  0  0
 17 18  1  0  0  0  0
 17 19  1  0  0  0  0
 19 20  2  0  0  0  0
 19 21  1  0  0  0  0
 21 22  1  0  0  0  0
 21 23  1  0  0  0  0
 23 24  1  0  0  0  0
 23 25  1  0  0  0  0
 23 26  1  0  0  0  0
M  END
$$$$

  -OEChem-11182114133D

 26 26  0     1  0  0  0  0  0999 V2000
   -1.5078   -4.2200   -0.1446 H   0  0  0  0  0  0  0  0  0  0  0  0
   -1.7481   -3.1533   -0.1463 C   0  0  0  0  0  0  0  0  0  0  0  0
   -2.3167   -2.9217    0.7576 H   0  0  0  0  0  0  0  0  0  0  0  0
   -2.3602   -2.9330   -1.0237 H   0  0  0  0  0  0  0  0  0  0  0  0
   -0.4697   -2.3287   -0.1774 C   0  0  0  0  0  0  0  0  0  0  0  0
    0.6053   -2.9126   -0.2240 O   0  0  0  0  0  0  0  0  0  0  0  0
   -0.4981   -0.9387   -0.2099 N   0  0  0  0  0  0  0  0  0  0  0  0
   -1.7189   -0.1638   -0.3545 C   0  0  0  0  0  0  0  0  0  0  0  0
   -2.4707   -0.4248    0.3980 H   0  0  0  0  0  0  0  0  0  0  0  0
   -2.1452   -0.3019   -1.3537 H   0  0  0  0  0  0  0  0  0  0  0  0
   -1.2404    1.2658   -0.1658 C   0  0  0  0  0  0  0  0  0  0  0  0
   -1.3176    1.5411    0.8915 H   0  0  0  0  0  0  0  0  0  0  0  0
   -1.8282    1.9760   -0.7553 H   0  0  0  0  0  0  0  0  0  0  0  0
    0.2272    1.2442   -0.5853 C   0  0  0  0  0  0  0  0  0  0  0  0
    0.7901    2.0644   -0.1286 H   0  0  0  0  0  0  0  0  0  0  0  0
    0.3013    1.3422   -1.6732 H   0  0  0  0  0  0  0  0  0  0  0  0
    0.7348   -0.1408   -0.1622 C   0  0  1  0  0  0  0  0  0  0  0  0
    1.4755   -0.5126   -0.8774 H   0  0  0  0  0  0  0  0  0  0  0  0
    1.3872   -0.0767    1.2421 C   0  0  0  0  0  0  0  0  0  0  0  0
    0.8157   -0.5053    2.2391 O   0  0  0  0  0  0  0  0  0  0  0  0
    2.5576    0.6429    1.4179 N   0  0  0  0  0  0  0  0  0  0  0  0
    3.0415    0.9561    0.5823 H   0  0  0  0  0  0  0  0  0  0  0  0
    3.2229    0.7826    2.7078 C   0  0  0  0  0  0  0  0  0  0  0  0
    3.5208   -0.1983    3.0928 H   0  0  0  0  0  0  0  0  0  0  0  0
    4.1191    1.4020    2.6059 H   0  0  0  0  0  0  0  0  0  0  0  0
    2.5560    1.2588    3.4342 H   0  0  0  0  0  0  0  0  0  0  0  0
  1  2  1  0  0  0  0
  2  3  1  0  0  0  0
  2  4  1  0  0  0  0
  2  5  1  0  0  0  0
  5  6  2  0  0  0  0
  5  7  1  0  0  0  0
  7  8  1  0  0  0  0
  7 17  1  0  0  0  0
  8  9  1  0  0  0  0
  8 10  1  0  0  0  0
  8 11  1  0  0  0  0
 11 12  1  0  0  0  0
 11 13  1  0  0  0  0
 11 14  1  0  0  0  0
 14 15  1  0  0  0  0
 14 16  1  0  0  0  0
 14 17  1  0  0  0  0
 17 18  1  0  0  0  0
 17 19  1  0  0  0  0
 19 20  2  0  0  0  0
 19 21  1  0  0  0  0
 21 22  1  0  0  0  0
 21 23  1  0  0  0  0
 23 24  1  0  0  0  0
 23 25  1  0  0  0  0
 23 26  1  0  0  0  0
M  END
$$$$

  -OEChem-11182114133D

 26 26  0     1  0  0  0  0  0999 V2000
   -1.4983   -4.2170   -0.1253 H   0  0  0  0  0  0  0  0  0  0  0  0
   -1.7405   -3.1507   -0.1288 C   0  0  0  0  0  0  0  0  0  0  0  0
   -2.2951   -2.9157    0.7827 H   0  0  0  0  0  0  0  0  0  0  0  0
   -2.3667   -2.9355   -0.9975 H   0  0  0  0  0  0  0  0  0  0  0  0
   -0.4643   -2.3239   -0.1838 C   0  0  0  0  0  0  0  0  0  0  0  0
    0.6078   -2.9080   -0.2716 O   0  0  0  0  0  0  0  0  0  0  0  0
   -0.4965   -0.9329   -0.2089 N   0  0  0  0  0  0  0  0  0  0  0  0
   -1.7217   -0.1672   -0.3618 C   0  0  0  0  0  0  0  0  0  0  0  0
   -2.4719   -0.4256    0.3930 H   0  0  0  0  0  0  0  0  0  0  0  0
   -2.1473   -0.3172   -1.3597 H   0  0  0  0  0  0  0  0  0  0  0  0
   -1.2518    1.2653   -0.1864 C   0  0  0  0  0  0  0  0  0  0  0  0
   -1.3364    1.5525    0.8672 H   0  0  0  0  0  0  0  0  0  0  0  0
   -1.8407    1.9650   -0.7873 H   0  0  0  0  0  0  0  0  0  0  0  0
    0.2174    1.2478   -0.5989 C   0  0  0  0  0  0  0  0  0  0  0  0
    0.7687    2.0829   -0.1568 H   0  0  0  0  0  0  0  0  0  0  0  0
    0.2924    1.3310   -1.6881 H   0  0  0  0  0  0  0  0  0  0  0  0
    0.7358   -0.1315   -0.1603 C   0  0  1  0  0  0  0  0  0  0  0  0
    1.4793   -0.5015   -0.8736 H   0  0  0  0  0  0  0  0  0  0  0  0
    1.3911   -0.0736    1.2468 C   0  0  0  0  0  0  0  0  0  0  0  0
    0.9590   -0.7296    2.1880 O   0  0  0  0  0  0  0  0  0  0  0  0
    2.3655    0.8737    1.5198 N   0  0  0  0  0  0  0  0  0  0  0  0
    2.7422    1.3946    0.7344 H   0  0  0  0  0  0  0  0  0  0  0  0
    2.9995    1.0174    2.8253 C   0  0  0  0  0  0  0  0  0  0  0  0
    3.5179    0.0934    3.1026 H   0  0  0  0  0  0  0  0  0  0  0  0
    3.7300    1.8316    2.8033 H   0  0  0  0  0  0  0  0  0  0  0  0
    2.2520    1.2459    3.5924 H   0  0  0  0  0  0  0  0  0  0  0  0
  1  2  1  0  0  0  0
  2  3  1  0  0  0  0
  2  4  1  0  0  0  0
  2  5  1  0  0  0  0
  5  6  2  0  0  0  0
  5  7  1  0  0  0  0
  7  8  1  0  0  0  0
  7 17  1  0  0  0  0
  8  9  1  0  0  0  0
  8 10  1  0  0  0  0
  8 11  1  0  0  0  0
 11 12  1  0  0  0  0
 11 13  1  0  0  0  0
 11 14  1  0  0  0  0
 14 15  1  0  0  0  0
 14 16  1  0  0  0  0
 14 17  1  0  0  0  0
 17 18  1  0  0  0  0
 17 19  1  0  0  0  0
 19 20  2  0  0  0  0
 19 21  1  0  0  0  0
 21 22  1  0  0  0  0
 21 23  1  0  0  0  0
 23 24  1  0  0  0  0
 23 25  1  0  0  0  0
 23 26  1  0  0  0  0
M  END
$$$$

  -OEChem-11182114133D

 26 26  0     1  0  0  0  0  0999 V2000
   -1.4886   -4.2129   -0.0945 H   0  0  0  0  0  0  0  0  0  0  0  0
   -1.7331   -3.1472   -0.1087 C   0  0  0  0  0  0  0  0  0  0  0  0
   -2.2777   -2.9028    0.8064 H   0  0  0  0  0  0  0  0  0  0  0  0
   -2.3695   -2.9443   -0.9728 H   0  0  0  0  0  0  0  0  0  0  0  0
   -0.4589   -2.3189   -0.1884 C   0  0  0  0  0  0  0  0  0  0  0  0
    0.6078   -2.9036   -0.3212 O   0  0  0  0  0  0  0  0  0  0  0  0
   -0.4939   -0.9270   -0.2037 N   0  0  0  0  0  0  0  0  0  0  0  0
   -1.7232   -0.1705   -0.3700 C   0  0  0  0  0  0  0  0  0  0  0  0
   -2.4760   -0.4246    0.3836 H   0  0  0  0  0  0  0  0  0  0  0  0
   -2.1425   -0.3344   -1.3684 H   0  0  0  0  0  0  0  0  0  0  0  0
   -1.2641    1.2665   -0.2112 C   0  0  0  0  0  0  0  0  0  0  0  0
   -1.3554    1.5671    0.8380 H   0  0  0  0  0  0  0  0  0  0  0  0
   -1.8546    1.9547   -0.8239 H   0  0  0  0  0  0  0  0  0  0  0  0
    0.2066    1.2526   -0.6172 C   0  0  0  0  0  0  0  0  0  0  0  0
    0.7485    2.1038   -0.1970 H   0  0  0  0  0  0  0  0  0  0  0  0
    0.2817    1.3155   -1.7079 H   0  0  0  0  0  0  0  0  0  0  0  0
    0.7356   -0.1190   -0.1588 C   0  0  1  0  0  0  0  0  0  0  0  0
    1.4799   -0.4887   -0.8713 H   0  0  0  0  0  0  0  0  0  0  0  0
    1.3990   -0.0681    1.2486 C   0  0  0  0  0  0  0  0  0  0  0  0
    1.1632   -0.9144    2.1025 O   0  0  0  0  0  0  0  0  0  0  0  0
    2.1316    1.0395    1.6485 N   0  0  0  0  0  0  0  0  0  0  0  0
    2.3475    1.7363    0.9431 H   0  0  0  0  0  0  0  0  0  0  0  0
    2.7255    1.1765    2.9736 C   0  0  0  0  0  0  0  0  0  0  0  0
    3.4389    0.3667    3.1590 H   0  0  0  0  0  0  0  0  0  0  0  0
    3.2559    2.1301    3.0537 H   0  0  0  0  0  0  0  0  0  0  0  0
    1.9499    1.1476    3.7461 H   0  0  0  0  0  0  0  0  0  0  0  0
  1  2  1  0  0  0  0
  2  3  1  0  0  0  0
  2  4  1  0  0  0  0
  2  5  1  0  0  0  0
  5  6  2  0  0  0  0
  5  7  1  0  0  0  0
  7  8  1  0  0  0  0
  7 17  1  0  0  0  0
  8  9  1  0  0  0  0
  8 10  1  0  0  0  0
  8 11  1  0  0  0  0
 11 12  1  0  0  0  0
 11 13  1  0  0  0  0
 11 14  1  0  0  0  0
 14 15  1  0  0  0  0
 14 16  1  0  0  0  0
 14 17  1  0  0  0  0
 17 18  1  0  0  0  0
 17 19  1  0  0  0  0
 19 20  2  0  0  0  0
 19 21  1  0  0  0  0
 21 22  1  0  0  0  0
 21 23  1  0  0  0  0
 23 24  1  0  0  0  0
 23 25  1  0  0  0  0
 23 26  1  0  0  0  0
M  END
$$$$

  -OEChem-11182114133D

 26 26  0     1  0  0  0  0  0999 V2000
   -1.4818   -4.2078   -0.0640 H   0  0  0  0  0  0  0  0  0  0  0  0
   -1.7277   -3.1425   -0.0875 C   0  0  0  0  0  0  0  0  0  0  0  0
   -2.2684   -2.8898    0.8275 H   0  0  0  0  0  0  0  0  0  0  0  0
   -2.3685   -2.9491   -0.9507 H   0  0  0  0  0  0  0  0  0  0  0  0
   -0.4544   -2.3140   -0.1820 C   0  0  0  0  0  0  0  0  0  0  0  0
    0.6059   -2.9005   -0.3470 O   0  0  0  0  0  0  0  0  0  0  0  0
   -0.4909   -0.9214   -0.1950 N   0  0  0  0  0  0  0  0  0  0  0  0
   -1.7224   -0.1724   -0.3826 C   0  0  0  0  0  0  0  0  0  0  0  0
   -2.4791   -0.4172    0.3702 H   0  0  0  0  0  0  0  0  0  0  0  0
   -2.1346   -0.3560   -1.3806 H   0  0  0  0  0  0  0  0  0  0  0  0
   -1.2719    1.2701   -0.2464 C   0  0  0  0  0  0  0  0  0  0  0  0
   -1.3727    1.5901    0.7960 H   0  0  0  0  0  0  0  0  0  0  0  0
   -1.8618    1.9431   -0.8762 H   0  0  0  0  0  0  0  0  0  0  0  0
    0.2016    1.2577   -0.6417 C   0  0  0  0  0  0  0  0  0  0  0  0
    0.7401    2.1208   -0.2436 H   0  0  0  0  0  0  0  0  0  0  0  0
    0.2810    1.2965   -1.7334 H   0  0  0  0  0  0  0  0  0  0  0  0
    0.7332   -0.1032   -0.1551 C   0  0  1  0  0  0  0  0  0  0  0  0
    1.4818   -0.4774   -0.8611 H   0  0  0  0  0  0  0  0  0  0  0  0
    1.3955   -0.0542    1.2549 C   0  0  0  0  0  0  0  0  0  0  0  0
    1.4153   -1.0343    1.9877 O   0  0  0  0  0  0  0  0  0  0  0  0
    1.8538    1.1362    1.8005 N   0  0  0  0  0  0  0  0  0  0  0  0
    1.8436    1.9589    1.2078 H   0  0  0  0  0  0  0  0  0  0  0  0
    2.4240    1.2441    3.1391 C   0  0  0  0  0  0  0  0  0  0  0  0
    3.3131    0.6111    3.2290 H   0  0  0  0  0  0  0  0  0  0  0  0
    2.7140    2.2790    3.3446 H   0  0  0  0  0  0  0  0  0  0  0  0
    1.6929    0.9346    3.8935 H   0  0  0  0  0  0  0  0  0  0  0  0
  1  2  1  0  0  0  0
  2  3  1  0  0  0  0
  2  4  1  0  0  0  0
  2  5  1  0  0  0  0
  5  6  2  0  0  0  0
  5  7  1  0  0  0  0
  7  8  1  0  0  0  0
  7 17  1  0  0  0  0
  8  9  1  0  0  0  0
  8 10  1  0  0  0  0
  8 11  1  0  0  0  0
 11 12  1  0  0  0  0
 11 13  1  0  0  0  0
 11 14  1  0  0  0  0
 14 15  1  0  0  0  0
 14 16  1  0  0  0  0
 14 17  1  0  0  0  0
 17 18  1  0  0  0  0
 17 19  1  0  0  0  0
 19 20  2  0  0  0  0
 19 21  1  0  0  0  0
 21 22  1  0  0  0  0
 21 23  1  0  0  0  0
 23 24  1  0  0  0  0
 23 25  1  0  0  0  0
 23 26  1  0  0  0  0
M  END
$$$$

  -OEChem-11182114133D

 26 26  0     1  0  0  0  0  0999 V2000
   -1.4975   -4.2042   -0.0601 H   0  0  0  0  0  0  0  0  0  0  0  0
   -1.7377   -3.1378   -0.0905 C   0  0  0  0  0  0  0  0  0  0  0  0
   -2.2911   -2.8803    0.8156 H   0  0  0  0  0  0  0  0  0  0  0  0
   -2.3642   -2.9443   -0.9641 H   0  0  0  0  0  0  0  0  0  0  0  0
   -0.4584   -2.3163   -0.1690 C   0  0  0  0  0  0  0  0  0  0  0  0
    0.5979   -2.9111   -0.3197 O   0  0  0  0  0  0  0  0  0  0  0  0
   -0.4887   -0.9234   -0.1828 N   0  0  0  0  0  0  0  0  0  0  0  0
   -1.7163   -0.1738   -0.3982 C   0  0  0  0  0  0  0  0  0  0  0  0
   -2.4859   -0.4109    0.3439 H   0  0  0  0  0  0  0  0  0  0  0  0
   -2.1115   -0.3674   -1.4012 H   0  0  0  0  0  0  0  0  0  0  0  0
   -1.2704    1.2722   -0.2703 C   0  0  0  0  0  0  0  0  0  0  0  0
   -1.3870    1.6033    0.7669 H   0  0  0  0  0  0  0  0  0  0  0  0
   -1.8528    1.9369   -0.9158 H   0  0  0  0  0  0  0  0  0  0  0  0
    0.2077    1.2571   -0.6473 C   0  0  0  0  0  0  0  0  0  0  0  0
    0.7497    2.1216   -0.2555 H   0  0  0  0  0  0  0  0  0  0  0  0
    0.2994    1.2819   -1.7384 H   0  0  0  0  0  0  0  0  0  0  0  0
    0.7301   -0.0977   -0.1394 C   0  0  1  0  0  0  0  0  0  0  0  0
    1.4863   -0.4775   -0.8346 H   0  0  0  0  0  0  0  0  0  0  0  0
    1.3822   -0.0467    1.2733 C   0  0  0  0  0  0  0  0  0  0  0  0
    1.7280   -1.0654    1.8542 O   0  0  0  0  0  0  0  0  0  0  0  0
    1.5497    1.1490    1.9563 N   0  0  0  0  0  0  0  0  0  0  0  0
    1.2284    1.9974    1.5034 H   0  0  0  0  0  0  0  0  0  0  0  0
    2.1213    1.2402    3.2952 C   0  0  0  0  0  0  0  0  0  0  0  0
    3.1422    0.8437    3.3034 H   0  0  0  0  0  0  0  0  0  0  0  0
    2.1535    2.2836    3.6229 H   0  0  0  0  0  0  0  0  0  0  0  0
    1.5165    0.6718    4.0096 H   0  0  0  0  0  0  0  0  0  0  0  0
  1  2  1  0  0  0  0
  2  3  1  0  0  0  0
  2  4  1  0  0  0  0
  2  5  1  0  0  0  0
  5  6  2  0  0  0  0
  5  7  1  0  0  0  0
  7  8  1  0  0  0  0
  7 17  1  0  0  0  0
  8  9  1  0  0  0  0
  8 10  1  0  0  0  0
  8 11  1  0  0  0  0
 11 12  1  0  0  0  0
 11 13  1  0  0  0  0
 11 14  1  0  0  0  0
 14 15  1  0  0  0  0
 14 16  1  0  0  0  0
 14 17  1  0  0  0  0
 17 18  1  0  0  0  0
 17 19  1  0  0  0  0
 19 20  2  0  0  0  0
 19 21  1  0  0  0  0
 21 22  1  0  0  0  0
 21 23  1  0  0  0  0
 23 24  1  0  0  0  0
 23 25  1  0  0  0  0
 23 26  1  0  0  0  0
M  END
$$$$

  -OEChem-11182114133D

 26 26  0     1  0  0  0  0  0999 V2000
   -1.5296   -4.2078   -0.0928 H   0  0  0  0  0  0  0  0  0  0  0  0
   -1.7613   -3.1399   -0.1390 C   0  0  0  0  0  0  0  0  0  0  0  0
   -2.3611   -2.8758    0.7351 H   0  0  0  0  0  0  0  0  0  0  0  0
   -2.3389   -2.9458   -1.0456 H   0  0  0  0  0  0  0  0  0  0  0  0
   -0.4746   -2.3262   -0.1524 C   0  0  0  0  0  0  0  0  0  0  0  0
    0.5836   -2.9294   -0.2222 O   0  0  0  0  0  0  0  0  0  0  0  0
   -0.4956   -0.9335   -0.1672 N   0  0  0  0  0  0  0  0  0  0  0  0
   -1.7152   -0.1759   -0.4040 C   0  0  0  0  0  0  0  0  0  0  0  0
   -2.4999   -0.4099    0.3232 H   0  0  0  0  0  0  0  0  0  0  0  0
   -2.0933   -0.3675   -1.4141 H   0  0  0  0  0  0  0  0  0  0  0  0
   -1.2666    1.2701   -0.2677 C   0  0  0  0  0  0  0  0  0  0  0  0
   -1.3980    1.6012    0.7675 H   0  0  0  0  0  0  0  0  0  0  0  0
   -1.8373    1.9374   -0.9213 H   0  0  0  0  0  0  0  0  0  0  0  0
    0.2167    1.2474   -0.6263 C   0  0  0  0  0  0  0  0  0  0  0  0
    0.7624    2.1024   -0.2161 H   0  0  0  0  0  0  0  0  0  0  0  0
    0.3260    1.2777   -1.7156 H   0  0  0  0  0  0  0  0  0  0  0  0
    0.7230   -0.1092   -0.1128 C   0  0  1  0  0  0  0  0  0  0  0  0
    1.4837   -0.4940   -0.8006 H   0  0  0  0  0  0  0  0  0  0  0  0
    1.3629   -0.0569    1.3016 C   0  0  0  0  0  0  0  0  0  0  0  0
    2.0337   -0.9842    1.7299 O   0  0  0  0  0  0  0  0  0  0  0  0
    1.2475    1.0684    2.1039 N   0  0  0  0  0  0  0  0  0  0  0  0
    0.6729    1.8298    1.7595 H   0  0  0  0  0  0  0  0  0  0  0  0
    1.8408    1.1769    3.4316 C   0  0  0  0  0  0  0  0  0  0  0  0
    2.9306    1.0877    3.3722 H   0  0  0  0  0  0  0  0  0  0  0  0
    1.5972    2.1465    3.8762 H   0  0  0  0  0  0  0  0  0  0  0  0
    1.4581    0.3890    4.0889 H   0  0  0  0  0  0  0  0  0  0  0  0
  1  2  1  0  0  0  0
  2  3  1  0  0  0  0
  2  4  1  0  0  0  0
  2  5  1  0  0  0  0
  5  6  2  0  0  0  0
  5  7  1  0  0  0  0
  7  8  1  0  0  0  0
  7 17  1  0  0  0  0
  8  9  1  0  0  0  0
  8 10  1  0  0  0  0
  8 11  1  0  0  0  0
 11 12  1  0  0  0  0
 11 13  1  0  0  0  0
 11 14  1  0  0  0  0
 14 15  1  0  0  0  0
 14 16  1  0  0  0  0
 14 17  1  0  0  0  0
 17 18  1  0  0  0  0
 17 19  1  0  0  0  0
 19 20  2  0  0  0  0
 19 21  1  0  0  0  0
 21 22  1  0  0  0  0
 21 23  1  0  0  0  0
 23 24  1  0  0  0  0
 23 25  1  0  0  0  0
 23 26  1  0  0  0  0
M  END
$$$$

  -OEChem-11182114133D

 26 26  0     1  0  0  0  0  0999 V2000
   -1.5536   -4.2158   -0.1636 H   0  0  0  0  0  0  0  0  0  0  0  0
   -1.7797   -3.1463   -0.2002 C   0  0  0  0  0  0  0  0  0  0  0  0
   -2.4201   -2.8964    0.6488 H   0  0  0  0  0  0  0  0  0  0  0  0
   -2.3131   -2.9336   -1.1294 H   0  0  0  0  0  0  0  0  0  0  0  0
   -0.4921   -2.3366   -0.1373 C   0  0  0  0  0  0  0  0  0  0  0  0
    0.5667   -2.9414   -0.1088 O   0  0  0  0  0  0  0  0  0  0  0  0
   -0.5074   -0.9445   -0.1499 N   0  0  0  0  0  0  0  0  0  0  0  0
   -1.7188   -0.1775   -0.4011 C   0  0  0  0  0  0  0  0  0  0  0  0
   -2.5146   -0.4095    0.3146 H   0  0  0  0  0  0  0  0  0  0  0  0
   -2.0845   -0.3635   -1.4168 H   0  0  0  0  0  0  0  0  0  0  0  0
   -1.2650    1.2674   -0.2549 C   0  0  0  0  0  0  0  0  0  0  0  0
   -1.4084    1.5992    0.7779 H   0  0  0  0  0  0  0  0  0  0  0  0
   -1.8240    1.9382   -0.9150 H   0  0  0  0  0  0  0  0  0  0  0  0
    0.2212    1.2341   -0.6012 C   0  0  0  0  0  0  0  0  0  0  0  0
    0.7691    2.0775   -0.1690 H   0  0  0  0  0  0  0  0  0  0  0  0
    0.3451    1.2750   -1.6886 H   0  0  0  0  0  0  0  0  0  0  0  0
    0.7139   -0.1260   -0.0886 C   0  0  1  0  0  0  0  0  0  0  0  0
    1.4721   -0.5153   -0.7772 H   0  0  0  0  0  0  0  0  0  0  0  0
    1.3560   -0.0724    1.3206 C   0  0  0  0  0  0  0  0  0  0  0  0
    2.2887   -0.8063    1.6132 O   0  0  0  0  0  0  0  0  0  0  0  0
    0.9944    0.9076    2.2313 N   0  0  0  0  0  0  0  0  0  0  0  0
    0.2143    1.5060    1.9831 H   0  0  0  0  0  0  0  0  0  0  0  0
    1.5916    1.0355    3.5552 C   0  0  0  0  0  0  0  0  0  0  0  0
    2.6671    1.2251    3.4735 H   0  0  0  0  0  0  0  0  0  0  0  0
    1.1344    1.8685    4.0976 H   0  0  0  0  0  0  0  0  0  0  0  0
    1.4383    0.1190    4.1347 H   0  0  0  0  0  0  0  0  0  0  0  0
  1  2  1  0  0  0  0
  2  3  1  0  0  0  0
  2  4  1  0  0  0  0
  2  5  1  0  0  0  0
  5  6  2  0  0  0  0
  5  7  1  0  0  0  0
  7  8  1  0  0  0  0
  7 17  1  0  0  0  0
  8  9  1  0  0  0  0
  8 10  1  0  0  0  0
  8 11  1  0  0  0  0
 11 12  1  0  0  0  0
 11 13  1  0  0  0  0
 11 14  1  0  0  0  0
 14 15  1  0  0  0  0
 14 16  1  0  0  0  0
 14 17  1  0  0  0  0
 17 18  1  0  0  0  0
 17 19  1  0  0  0  0
 19 20  2  0  0  0  0
 19 21  1  0  0  0  0
 21 22  1  0  0  0  0
 21 23  1  0  0  0  0
 23 24  1  0  0  0  0
 23 25  1  0  0  0  0
 23 26  1  0  0  0  0
M  END
$$$$

  -OEChem-11182114133D

 26 26  0     1  0  0  0  0  0999 V2000
   -1.5657   -4.2222   -0.2295 H   0  0  0  0  0  0  0  0  0  0  0  0
   -1.7912   -3.1523   -0.2541 C   0  0  0  0  0  0  0  0  0  0  0  0
   -2.4665   -2.9188    0.5723 H   0  0  0  0  0  0  0  0  0  0  0  0
   -2.2862   -2.9220   -1.2003 H   0  0  0  0  0  0  0  0  0  0  0  0
   -0.5079   -2.3439   -0.1239 C   0  0  0  0  0  0  0  0  0  0  0  0
    0.5473   -2.9464   -0.0182 O   0  0  0  0  0  0  0  0  0  0  0  0
   -0.5192   -0.9523   -0.1354 N   0  0  0  0  0  0  0  0  0  0  0  0
   -1.7233   -0.1752   -0.3931 C   0  0  0  0  0  0  0  0  0  0  0  0
   -2.5255   -0.4036    0.3165 H   0  0  0  0  0  0  0  0  0  0  0  0
   -2.0836   -0.3563   -1.4116 H   0  0  0  0  0  0  0  0  0  0  0  0
   -1.2605    1.2680   -0.2410 C   0  0  0  0  0  0  0  0  0  0  0  0
   -1.4041    1.6018    0.7908 H   0  0  0  0  0  0  0  0  0  0  0  0
   -1.8120    1.9438   -0.9023 H   0  0  0  0  0  0  0  0  0  0  0  0
    0.2260    1.2226   -0.5841 C   0  0  0  0  0  0  0  0  0  0  0  0
    0.7787    2.0556   -0.1369 H   0  0  0  0  0  0  0  0  0  0  0  0
    0.3567    1.2711   -1.6703 H   0  0  0  0  0  0  0  0  0  0  0  0
    0.7057   -0.1408   -0.0741 C   0  0  1  0  0  0  0  0  0  0  0  0
    1.4577   -0.5362   -0.7663 H   0  0  0  0  0  0  0  0  0  0  0  0
    1.3560   -0.0865    1.3278 C   0  0  0  0  0  0  0  0  0  0  0  0
    2.4676   -0.5615    1.5139 O   0  0  0  0  0  0  0  0  0  0  0  0
    0.7974    0.6837    2.3343 N   0  0  0  0  0  0  0  0  0  0  0  0
   -0.1397    1.0364    2.1748 H   0  0  0  0  0  0  0  0  0  0  0  0
    1.3861    0.8165    3.6614 C   0  0  0  0  0  0  0  0  0  0  0  0
    2.3874    1.2549    3.5945 H   0  0  0  0  0  0  0  0  0  0  0  0
    0.7667    1.4663    4.2866 H   0  0  0  0  0  0  0  0  0  0  0  0
    1.4618   -0.1627    4.1459 H   0  0  0  0  0  0  0  0  0  0  0  0
  1  2  1  0  0  0  0
  2  3  1  0  0  0  0
  2  4  1  0  0  0  0
  2  5  1  0  0  0  0
  5  6  2  0  0  0  0
  5  7  1  0  0  0  0
  7  8  1  0  0  0  0
  7 17  1  0  0  0  0
  8  9  1  0  0  0  0
  8 10  1  0  0  0  0
  8 11  1  0  0  0  0
 11 12  1  0  0  0  0
 11 13  1  0  0  0  0
 11 14  1  0  0  0  0
 14 15  1  0  0  0  0
 14 16  1  0  0  0  0
 14 17  1  0  0  0  0
 17 18  1  0  0  0  0
 17 19  1  0  0  0  0
 19 20  2  0  0  0  0
 19 21  1  0  0  0  0
 21 22  1  0  0  0  0
 21 23  1  0  0  0  0
 23 24  1  0  0  0  0
 23 25  1  0  0  0  0
 23 26  1  0  0  0  0
M  END
$$$$

  -OEChem-11182114133D

 26 26  0     1  0  0  0  0  0999 V2000
   -1.5730   -4.2252   -0.2482 H   0  0  0  0  0  0  0  0  0  0  0  0
   -1.7968   -3.1549   -0.2753 C   0  0  0  0  0  0  0  0  0  0  0  0
   -2.4833   -2.9212    0.5417 H   0  0  0  0  0  0  0  0  0  0  0  0
   -2.2784   -2.9236   -1.2282 H   0  0  0  0  0  0  0  0  0  0  0  0
   -0.5147   -2.3478   -0.1271 C   0  0  0  0  0  0  0  0  0  0  0  0
    0.5386   -2.9483    0.0098 O   0  0  0  0  0  0  0  0  0  0  0  0
   -0.5225   -0.9564   -0.1376 N   0  0  0  0  0  0  0  0  0  0  0  0
   -1.7222   -0.1690   -0.3846 C   0  0  0  0  0  0  0  0  0  0  0  0
   -2.5238   -0.3980    0.3253 H   0  0  0  0  0  0  0  0  0  0  0  0
   -2.0867   -0.3381   -1.4036 H   0  0  0  0  0  0  0  0  0  0  0  0
   -1.2489    1.2708   -0.2211 C   0  0  0  0  0  0  0  0  0  0  0  0
   -1.3813    1.5961    0.8153 H   0  0  0  0  0  0  0  0  0  0  0  0
   -1.7996    1.9572   -0.8720 H   0  0  0  0  0  0  0  0  0  0  0  0
    0.2348    1.2194   -0.5729 C   0  0  0  0  0  0  0  0  0  0  0  0
    0.7950    2.0425   -0.1163 H   0  0  0  0  0  0  0  0  0  0  0  0
    0.3618    1.2790   -1.6589 H   0  0  0  0  0  0  0  0  0  0  0  0
    0.7059   -0.1508   -0.0778 C   0  0  1  0  0  0  0  0  0  0  0  0
    1.4533   -0.5468   -0.7745 H   0  0  0  0  0  0  0  0  0  0  0  0
    1.3589   -0.1006    1.3203 C   0  0  0  0  0  0  0  0  0  0  0  0
    2.5610   -0.2918    1.4447 O   0  0  0  0  0  0  0  0  0  0  0  0
    0.6546    0.4069    2.3988 N   0  0  0  0  0  0  0  0  0  0  0  0
   -0.3488    0.4974    2.2805 H   0  0  0  0  0  0  0  0  0  0  0  0
    1.2215    0.5245    3.7364 C   0  0  0  0  0  0  0  0  0  0  0  0
    2.0926    1.1878    3.7259 H   0  0  0  0  0  0  0  0  0  0  0  0
    0.4809    0.9398    4.4263 H   0  0  0  0  0  0  0  0  0  0  0  0
    1.5305   -0.4579    4.1085 H   0  0  0  0  0  0  0  0  0  0  0  0
  1  2  1  0  0  0  0
  2  3  1  0  0  0  0
  2  4  1  0  0  0  0
  2  5  1  0  0  0  0
  5  6  2  0  0  0  0
  5  7  1  0  0  0  0
  7  8  1  0  0  0  0
  7 17  1  0  0  0  0
  8  9  1  0  0  0  0
  8 10  1  0  0  0  0
  8 11  1  0  0  0  0
 11 12  1  0  0  0  0
 11 13  1  0  0  0  0
 11 14  1  0  0  0  0
 14 15  1  0  0  0  0
 14 16  1  0  0  0  0
 14 17  1  0  0  0  0
 17 18  1  0  0  0  0
 17 19  1  0  0  0  0
 19 20  2  0  0  0  0
 19 21  1  0  0  0  0
 21 22  1  0  0  0  0
 21 23  1  0  0  0  0
 23 24  1  0  0  0  0
 23 25  1  0  0  0  0
 23 26  1  0  0  0  0
M  END
$$$$

  -OEChem-11182114133D

 26 26  0     1  0  0  0  0  0999 V2000
   -1.5788   -4.2270   -0.2755 H   0  0  0  0  0  0  0  0  0  0  0  0
   -1.8018   -3.1564   -0.2964 C   0  0  0  0  0  0  0  0  0  0  0  0
   -2.4953   -2.9277    0.5160 H   0  0  0  0  0  0  0  0  0  0  0  0
   -2.2744   -2.9173   -1.2518 H   0  0  0  0  0  0  0  0  0  0  0  0
   -0.5205   -2.3518   -0.1319 C   0  0  0  0  0  0  0  0  0  0  0  0
    0.5307   -2.9520    0.0240 O   0  0  0  0  0  0  0  0  0  0  0  0
   -0.5244   -0.9610   -0.1430 N   0  0  0  0  0  0  0  0  0  0  0  0
   -1.7224   -0.1667   -0.3735 C   0  0  0  0  0  0  0  0  0  0  0  0
   -2.5199   -0.3989    0.3402 H   0  0  0  0  0  0  0  0  0  0  0  0
   -2.0953   -0.3247   -1.3912 H   0  0  0  0  0  0  0  0  0  0  0  0
   -1.2402    1.2692   -0.1994 C   0  0  0  0  0  0  0  0  0  0  0  0
   -1.3588    1.5815    0.8431 H   0  0  0  0  0  0  0  0  0  0  0  0
   -1.7940    1.9666   -0.8357 H   0  0  0  0  0  0  0  0  0  0  0  0
    0.2403    1.2160   -0.5633 C   0  0  0  0  0  0  0  0  0  0  0  0
    0.8067    2.0319   -0.1015 H   0  0  0  0  0  0  0  0  0  0  0  0
    0.3604    1.2867   -1.6494 H   0  0  0  0  0  0  0  0  0  0  0  0
    0.7078   -0.1606   -0.0851 C   0  0  1  0  0  0  0  0  0  0  0  0
    1.4522   -0.5554   -0.7855 H   0  0  0  0  0  0  0  0  0  0  0  0
    1.3640   -0.1116    1.3101 C   0  0  0  0  0  0  0  0  0  0  0  0
    2.5811   -0.0326    1.4116 O   0  0  0  0  0  0  0  0  0  0  0  0
    0.5844    0.1015    2.4335 N   0  0  0  0  0  0  0  0  0  0  0  0
   -0.4145   -0.0346    2.3184 H   0  0  0  0  0  0  0  0  0  0  0  0
    1.1348    0.1970    3.7794 C   0  0  0  0  0  0  0  0  0  0  0  0
    1.8368    1.0347    3.8482 H   0  0  0  0  0  0  0  0  0  0  0  0
    0.3324    0.3602    4.5052 H   0  0  0  0  0  0  0  0  0  0  0  0
    1.6608   -0.7265    4.0439 H   0  0  0  0  0  0  0  0  0  0  0  0
  1  2  1  0  0  0  0
  2  3  1  0  0  0  0
  2  4  1  0  0  0  0
  2  5  1  0  0  0  0
  5  6  2  0  0  0  0
  5  7  1  0  0  0  0
  7  8  1  0  0  0  0
  7 17  1  0  0  0  0
  8  9  1  0  0  0  0
  8 10  1  0  0  0  0
  8 11  1  0  0  0  0
 11 12  1  0  0  0  0
 11 13  1  0  0  0  0
 11 14  1  0  0  0  0
 14 15  1  0  0  0  0
 14 16  1  0  0  0  0
 14 17  1  0  0  0  0
 17 18  1  0  0  0  0
 17 19  1  0  0  0  0
 19 20  2  0  0  0  0
 19 21  1  0  0  0  0
 21 22  1  0  0  0  0
 21 23  1  0  0  0  0
 23 24  1  0  0  0  0
 23 25  1  0  0  0  0
 23 26  1  0  0  0  0
M  END
$$$$

  -OEChem-11182114133D

 26 26  0     1  0  0  0  0  0999 V2000
   -1.5835   -4.2266   -0.2887 H   0  0  0  0  0  0  0  0  0  0  0  0
   -1.8065   -3.1561   -0.3051 C   0  0  0  0  0  0  0  0  0  0  0  0
   -2.5007   -2.9309    0.5078 H   0  0  0  0  0  0  0  0  0  0  0  0
   -2.2788   -2.9130   -1.2599 H   0  0  0  0  0  0  0  0  0  0  0  0
   -0.5252   -2.3523   -0.1366 C   0  0  0  0  0  0  0  0  0  0  0  0
    0.5241   -2.9507    0.0389 O   0  0  0  0  0  0  0  0  0  0  0  0
   -0.5267   -0.9617   -0.1512 N   0  0  0  0  0  0  0  0  0  0  0  0
   -1.7235   -0.1640   -0.3736 C   0  0  0  0  0  0  0  0  0  0  0  0
   -2.5194   -0.3981    0.3411 H   0  0  0  0  0  0  0  0  0  0  0  0
   -2.0997   -0.3150   -1.3911 H   0  0  0  0  0  0  0  0  0  0  0  0
   -1.2373    1.2692   -0.1924 C   0  0  0  0  0  0  0  0  0  0  0  0
   -1.3493    1.5723    0.8539 H   0  0  0  0  0  0  0  0  0  0  0  0
   -1.7925    1.9730   -0.8203 H   0  0  0  0  0  0  0  0  0  0  0  0
    0.2419    1.2162   -0.5605 C   0  0  0  0  0  0  0  0  0  0  0  0
    0.8104    2.0292   -0.0959 H   0  0  0  0  0  0  0  0  0  0  0  0
    0.3589    1.2928   -1.6465 H   0  0  0  0  0  0  0  0  0  0  0  0
    0.7082   -0.1640   -0.0913 C   0  0  1  0  0  0  0  0  0  0  0  0
    1.4532   -0.5575   -0.7915 H   0  0  0  0  0  0  0  0  0  0  0  0
    1.3643   -0.1097    1.3035 C   0  0  0  0  0  0  0  0  0  0  0  0
    2.5402    0.2132    1.4107 O   0  0  0  0  0  0  0  0  0  0  0  0
    0.5854   -0.2011    2.4434 N   0  0  0  0  0  0  0  0  0  0  0  0
   -0.3596   -0.5466    2.3104 H   0  0  0  0  0  0  0  0  0  0  0  0
    1.1393   -0.1579    3.7902 C   0  0  0  0  0  0  0  0  0  0  0  0
    1.6381    0.8005    3.9682 H   0  0  0  0  0  0  0  0  0  0  0  0
    0.3427   -0.2746    4.5310 H   0  0  0  0  0  0  0  0  0  0  0  0
    1.8654   -0.9655    3.9308 H   0  0  0  0  0  0  0  0  0  0  0  0
  1  2  1  0  0  0  0
  2  3  1  0  0  0  0
  2  4  1  0  0  0  0
  2  5  1  0  0  0  0
  5  6  2  0  0  0  0
  5  7  1  0  0  0  0
  7  8  1  0  0  0  0
  7 17  1  0  0  0  0
  8  9  1  0  0  0  0
  8 10  1  0  0  0  0
  8 11  1  0  0  0  0
 11 12  1  0  0  0  0
 11 13  1  0  0  0  0
 11 14  1  0  0  0  0
 14 15  1  0  0  0  0
 14 16  1  0  0  0  0
 14 17  1  0  0  0  0
 17 18  1  0  0  0  0
 17 19  1  0  0  0  0
 19 20  2  0  0  0  0
 19 21  1  0  0  0  0
 21 22  1  0  0  0  0
 21 23  1  0  0  0  0
 23 24  1  0  0  0  0
 23 25  1  0  0  0  0
 23 26  1  0  0  0  0
M  END
$$$$

  -OEChem-11182114133D

 26 26  0     1  0  0  0  0  0999 V2000
   -1.5987   -4.2262   -0.3113 H   0  0  0  0  0  0  0  0  0  0  0  0
   -1.8182   -3.1549   -0.3348 C   0  0  0  0  0  0  0  0  0  0  0  0
   -2.5288   -2.9257    0.4626 H   0  0  0  0  0  0  0  0  0  0  0  0
   -2.2700   -2.9128   -1.2996 H   0  0  0  0  0  0  0  0  0  0  0  0
   -0.5389   -2.3537   -0.1423 C   0  0  0  0  0  0  0  0  0  0  0  0
    0.5048   -2.9534    0.0609 O   0  0  0  0  0  0  0  0  0  0  0  0
   -0.5352   -0.9633   -0.1534 N   0  0  0  0  0  0  0  0  0  0  0  0
   -1.7300   -0.1632   -0.3763 C   0  0  0  0  0  0  0  0  0  0  0  0
   -2.5275   -0.3980    0.3363 H   0  0  0  0  0  0  0  0  0  0  0  0
   -2.1046   -0.3101   -1.3951 H   0  0  0  0  0  0  0  0  0  0  0  0
   -1.2428    1.2681   -0.1900 C   0  0  0  0  0  0  0  0  0  0  0  0
   -1.3563    1.5669    0.8576 H   0  0  0  0  0  0  0  0  0  0  0  0
   -1.7954    1.9754   -0.8164 H   0  0  0  0  0  0  0  0  0  0  0  0
    0.2368    1.2148   -0.5536 C   0  0  0  0  0  0  0  0  0  0  0  0
    0.8026    2.0282   -0.0865 H   0  0  0  0  0  0  0  0  0  0  0  0
    0.3568    1.2941   -1.6389 H   0  0  0  0  0  0  0  0  0  0  0  0
    0.7022   -0.1677   -0.0866 C   0  0  1  0  0  0  0  0  0  0  0  0
    1.4476   -0.5606   -0.7862 H   0  0  0  0  0  0  0  0  0  0  0  0
    1.3634   -0.1100    1.3075 C   0  0  0  0  0  0  0  0  0  0  0  0
    2.4520    0.4352    1.4392 O   0  0  0  0  0  0  0  0  0  0  0  0
    0.6655   -0.4989    2.4369 N   0  0  0  0  0  0  0  0  0  0  0  0
   -0.1694   -1.0513    2.2697 H   0  0  0  0  0  0  0  0  0  0  0  0
    1.2483   -0.4917    3.7722 C   0  0  0  0  0  0  0  0  0  0  0  0
    1.5555    0.5219    4.0505 H   0  0  0  0  0  0  0  0  0  0  0  0
    0.5166   -0.8434    4.5057 H   0  0  0  0  0  0  0  0  0  0  0  0
    2.1234   -1.1488    3.8106 H   0  0  0  0  0  0  0  0  0  0  0  0
  1  2  1  0  0  0  0
  2  3  1  0  0  0  0
  2  4  1  0  0  0  0
  2  5  1  0  0  0  0
  5  6  2  0  0  0  0
  5  7  1  0  0  0  0
  7  8  1  0  0  0  0
  7 17  1  0  0  0  0
  8  9  1  0  0  0  0
  8 10  1  0  0  0  0
  8 11  1  0  0  0  0
 11 12  1  0  0  0  0
 11 13  1  0  0  0  0
 11 14  1  0  0  0  0
 14 15  1  0  0  0  0
 14 16  1  0  0  0  0
 14 17  1  0  0  0  0
 17 18  1  0  0  0  0
 17 19  1  0  0  0  0
 19 20  2  0  0  0  0
 19 21  1  0  0  0  0
 21 22  1  0  0  0  0
 21 23  1  0  0  0  0
 23 24  1  0  0  0  0
 23 25  1  0  0  0  0
 23 26  1  0  0  0  0
M  END
$$$$

  -OEChem-11182114133D

 26 26  0     1  0  0  0  0  0999 V2000
   -1.6193   -4.2198   -0.3391 H   0  0  0  0  0  0  0  0  0  0  0  0
   -1.8343   -3.1477   -0.3673 C   0  0  0  0  0  0  0  0  0  0  0  0
   -2.5676   -2.9172    0.4089 H   0  0  0  0  0  0  0  0  0  0  0  0
   -2.2569   -2.9027   -1.3446 H   0  0  0  0  0  0  0  0  0  0  0  0
   -0.5582   -2.3513   -0.1365 C   0  0  0  0  0  0  0  0  0  0  0  0
    0.4746   -2.9538    0.1111 O   0  0  0  0  0  0  0  0  0  0  0  0
   -0.5466   -0.9613   -0.1428 N   0  0  0  0  0  0  0  0  0  0  0  0
   -1.7391   -0.1608   -0.3760 C   0  0  0  0  0  0  0  0  0  0  0  0
   -2.5401   -0.3917    0.3340 H   0  0  0  0  0  0  0  0  0  0  0  0
   -2.1088   -0.3128   -1.3958 H   0  0  0  0  0  0  0  0  0  0  0  0
   -1.2536    1.2706   -0.1955 C   0  0  0  0  0  0  0  0  0  0  0  0
   -1.3720    1.5745    0.8500 H   0  0  0  0  0  0  0  0  0  0  0  0
   -1.8032    1.9745   -0.8283 H   0  0  0  0  0  0  0  0  0  0  0  0
    0.2272    1.2146   -0.5507 C   0  0  0  0  0  0  0  0  0  0  0  0
    0.7874    2.0349   -0.0893 H   0  0  0  0  0  0  0  0  0  0  0  0
    0.3516    1.2864   -1.6361 H   0  0  0  0  0  0  0  0  0  0  0  0
    0.6929   -0.1666   -0.0731 C   0  0  1  0  0  0  0  0  0  0  0  0
    1.4368   -0.5632   -0.7720 H   0  0  0  0  0  0  0  0  0  0  0  0
    1.3624   -0.1086    1.3200 C   0  0  0  0  0  0  0  0  0  0  0  0
    2.3279    0.6238    1.5006 O   0  0  0  0  0  0  0  0  0  0  0  0
    0.8113   -0.7693    2.4031 N   0  0  0  0  0  0  0  0  0  0  0  0
    0.1566   -1.5095    2.1656 H   0  0  0  0  0  0  0  0  0  0  0  0
    1.4432   -0.7986    3.7157 C   0  0  0  0  0  0  0  0  0  0  0  0
    1.5584    0.2169    4.1090 H   0  0  0  0  0  0  0  0  0  0  0  0
    0.8284   -1.3709    4.4169 H   0  0  0  0  0  0  0  0  0  0  0  0
    2.4307   -1.2678    3.6545 H   0  0  0  0  0  0  0  0  0  0  0  0
  1  2  1  0  0  0  0
  2  3  1  0  0  0  0
  2  4  1  0  0  0  0
  2  5  1  0  0  0  0
  5  6  2  0  0  0  0
  5  7  1  0  0  0  0
  7  8  1  0  0  0  0
  7 17  1  0  0  0  0
  8  9  1  0  0  0  0
  8 10  1  0  0  0  0
  8 11  1  0  0  0  0
 11 12  1  0  0  0  0
 11 13  1  0  0  0  0
 11 14  1  0  0  0  0
 14 15  1  0  0  0  0
 14 16  1  0  0  0  0
 14 17  1  0  0  0  0
 17 18  1  0  0  0  0
 17 19  1  0  0  0  0
 19 20  2  0  0  0  0
 19 21  1  0  0  0  0
 21 22  1  0  0  0  0
 21 23  1  0  0  0  0
 23 24  1  0  0  0  0
 23 25  1  0  0  0  0
 23 26  1  0  0  0  0
M  END
$$$$

  -OEChem-11182114133D

 26 26  0     1  0  0  0  0  0999 V2000
   -1.6360   -4.2108   -0.3323 H   0  0  0  0  0  0  0  0  0  0  0  0
   -1.8461   -3.1379   -0.3630 C   0  0  0  0  0  0  0  0  0  0  0  0
   -2.5759   -2.9020    0.4151 H   0  0  0  0  0  0  0  0  0  0  0  0
   -2.2707   -2.8937   -1.3396 H   0  0  0  0  0  0  0  0  0  0  0  0
   -0.5661   -2.3460   -0.1368 C   0  0  0  0  0  0  0  0  0  0  0  0
    0.4638   -2.9536    0.1150 O   0  0  0  0  0  0  0  0  0  0  0  0
   -0.5490   -0.9560   -0.1343 N   0  0  0  0  0  0  0  0  0  0  0  0
   -1.7418   -0.1577   -0.3747 C   0  0  0  0  0  0  0  0  0  0  0  0
   -2.5438   -0.3849    0.3355 H   0  0  0  0  0  0  0  0  0  0  0  0
   -2.1097   -0.3163   -1.3942 H   0  0  0  0  0  0  0  0  0  0  0  0
   -1.2598    1.2749   -0.2022 C   0  0  0  0  0  0  0  0  0  0  0  0
   -1.3815    1.5850    0.8411 H   0  0  0  0  0  0  0  0  0  0  0  0
   -1.8093    1.9735   -0.8407 H   0  0  0  0  0  0  0  0  0  0  0  0
    0.2216    1.2199   -0.5524 C   0  0  0  0  0  0  0  0  0  0  0  0
    0.7758    2.0493   -0.1008 H   0  0  0  0  0  0  0  0  0  0  0  0
    0.3471    1.2823   -1.6381 H   0  0  0  0  0  0  0  0  0  0  0  0
    0.6908   -0.1590   -0.0643 C   0  0  1  0  0  0  0  0  0  0  0  0
    1.4342   -0.5556   -0.7633 H   0  0  0  0  0  0  0  0  0  0  0  0
    1.3642   -0.1107    1.3308 C   0  0  0  0  0  0  0  0  0  0  0  0
    2.1733    0.7708    1.5962 O   0  0  0  0  0  0  0  0  0  0  0  0
    1.0083   -1.0071    2.3221 N   0  0  0  0  0  0  0  0  0  0  0  0
    0.5536   -1.8525    1.9796 H   0  0  0  0  0  0  0  0  0  0  0  0
    1.6827   -1.0662    3.6123 C   0  0  0  0  0  0  0  0  0  0  0  0
    1.5885   -0.1107    4.1386 H   0  0  0  0  0  0  0  0  0  0  0  0
    1.2361   -1.8471    4.2349 H   0  0  0  0  0  0  0  0  0  0  0  0
    2.7458   -1.2925    3.4790 H   0  0  0  0  0  0  0  0  0  0  0  0
  1  2  1  0  0  0  0
  2  3  1  0  0  0  0
  2  4  1  0  0  0  0
  2  5  1  0  0  0  0
  5  6  2  0  0  0  0
  5  7  1  0  0  0  0
  7  8  1  0  0  0  0
  7 17  1  0  0  0  0
  8  9  1  0  0  0  0
  8 10  1  0  0  0  0
  8 11  1  0  0  0  0
 11 12  1  0  0  0  0
 11 13  1  0  0  0  0
 11 14  1  0  0  0  0
 14 15  1  0  0  0  0
 14 16  1  0  0  0  0
 14 17  1  0  0  0  0
 17 18  1  0  0  0  0
 17 19  1  0  0  0  0
 19 20  2  0  0  0  0
 19 21  1  0  0  0  0
 21 22  1  0  0  0  0
 21 23  1  0  0  0  0
 23 24  1  0  0  0  0
 23 25  1  0  0  0  0
 23 26  1  0  0  0  0
M  END
$$$$

  -OEChem-11182114133D

 26 26  0     1  0  0  0  0  0999 V2000
   -1.6406   -4.2056   -0.3212 H   0  0  0  0  0  0  0  0  0  0  0  0
   -1.8485   -3.1321   -0.3415 C   0  0  0  0  0  0  0  0  0  0  0  0
   -2.5573   -2.8986    0.4565 H   0  0  0  0  0  0  0  0  0  0  0  0
   -2.2977   -2.8821   -1.3057 H   0  0  0  0  0  0  0  0  0  0  0  0
   -0.5612   -2.3442   -0.1440 C   0  0  0  0  0  0  0  0  0  0  0  0
    0.4775   -2.9596    0.0511 O   0  0  0  0  0  0  0  0  0  0  0  0
   -0.5428   -0.9535   -0.1329 N   0  0  0  0  0  0  0  0  0  0  0  0
   -1.7392   -0.1581   -0.3673 C   0  0  0  0  0  0  0  0  0  0  0  0
   -2.5368   -0.3860    0.3476 H   0  0  0  0  0  0  0  0  0  0  0  0
   -2.1125   -0.3184   -1.3844 H   0  0  0  0  0  0  0  0  0  0  0  0
   -1.2601    1.2750   -0.2000 C   0  0  0  0  0  0  0  0  0  0  0  0
   -1.3782    1.5866    0.8434 H   0  0  0  0  0  0  0  0  0  0  0  0
   -1.8138    1.9715   -0.8371 H   0  0  0  0  0  0  0  0  0  0  0  0
    0.2199    1.2243   -0.5554 C   0  0  0  0  0  0  0  0  0  0  0  0
    0.7721    2.0601   -0.1141 H   0  0  0  0  0  0  0  0  0  0  0  0
    0.3388    1.2823   -1.6421 H   0  0  0  0  0  0  0  0  0  0  0  0
    0.6962   -0.1537   -0.0663 C   0  0  1  0  0  0  0  0  0  0  0  0
    1.4380   -0.5474   -0.7685 H   0  0  0  0  0  0  0  0  0  0  0  0
    1.3730   -0.1169    1.3307 C   0  0  0  0  0  0  0  0  0  0  0  0
    1.9998    0.8694    1.7006 O   0  0  0  0  0  0  0  0  0  0  0  0
    1.2574   -1.1845    2.2018 N   0  0  0  0  0  0  0  0  0  0  0  0
    0.9351   -2.0543    1.7741 H   0  0  0  0  0  0  0  0  0  0  0  0
    1.9569   -1.2561    3.4780 C   0  0  0  0  0  0  0  0  0  0  0  0
    1.6696   -0.4172    4.1204 H   0  0  0  0  0  0  0  0  0  0  0  0
    1.7032   -2.1868    3.9943 H   0  0  0  0  0  0  0  0  0  0  0  0
    3.0406   -1.2280    3.3234 H   0  0  0  0  0  0  0  0  0  0  0  0
  1  2  1  0  0  0  0
  2  3  1  0  0  0  0
  2  4  1  0  0  0  0
  2  5  1  0  0  0  0
  5  6  2  0  0  0  0
  5  7  1  0  0  0  0
  7  8  1  0  0  0  0
  7 17  1  0  0  0  0
  8  9  1  0  0  0  0
  8 10  1  0  0  0  0
  8 11  1  0  0  0  0
 11 12  1  0  0  0  0
 11 13  1  0  0  0  0
 11 14  1  0  0  0  0
 14 15  1  0  0  0  0
 14 16  1  0  0  0  0
 14 17  1  0  0  0  0
 17 18  1  0  0  0  0
 17 19  1  0  0  0  0
 19 20  2  0  0  0  0
 19 21  1  0  0  0  0
 21 22  1  0  0  0  0
 21 23  1  0  0  0  0
 23 24  1  0  0  0  0
 23 25  1  0  0  0  0
 23 26  1  0  0  0  0
M  END
$$$$

  -OEChem-11182114133D

 26 26  0     1  0  0  0  0  0999 V2000
   -1.6238   -4.2040   -0.2808 H   0  0  0  0  0  0  0  0  0  0  0  0
   -1.8334   -3.1308   -0.3000 C   0  0  0  0  0  0  0  0  0  0  0  0
   -2.5146   -2.8933    0.5206 H   0  0  0  0  0  0  0  0  0  0  0  0
   -2.3154   -2.8866   -1.2496 H   0  0  0  0  0  0  0  0  0  0  0  0
   -0.5411   -2.3405   -0.1511 C   0  0  0  0  0  0  0  0  0  0  0  0
    0.5086   -2.9573   -0.0275 O   0  0  0  0  0  0  0  0  0  0  0  0
   -0.5278   -0.9491   -0.1362 N   0  0  0  0  0  0  0  0  0  0  0  0
   -1.7306   -0.1586   -0.3542 C   0  0  0  0  0  0  0  0  0  0  0  0
   -2.5172   -0.3895    0.3717 H   0  0  0  0  0  0  0  0  0  0  0  0
   -2.1170   -0.3201   -1.3661 H   0  0  0  0  0  0  0  0  0  0  0  0
   -1.2549    1.2759   -0.1929 C   0  0  0  0  0  0  0  0  0  0  0  0
   -1.3612    1.5872    0.8519 H   0  0  0  0  0  0  0  0  0  0  0  0
   -1.8192    1.9703   -0.8229 H   0  0  0  0  0  0  0  0  0  0  0  0
    0.2212    1.2325   -0.5654 C   0  0  0  0  0  0  0  0  0  0  0  0
    0.7764    2.0718   -0.1346 H   0  0  0  0  0  0  0  0  0  0  0  0
    0.3250    1.2889   -1.6537 H   0  0  0  0  0  0  0  0  0  0  0  0
    0.7081   -0.1443   -0.0817 C   0  0  1  0  0  0  0  0  0  0  0  0
    1.4465   -0.5320   -0.7908 H   0  0  0  0  0  0  0  0  0  0  0  0
    1.3874   -0.1188    1.3156 C   0  0  0  0  0  0  0  0  0  0  0  0
    1.7996    0.9255    1.8077 O   0  0  0  0  0  0  0  0  0  0  0  0
    1.5389   -1.2842    2.0431 N   0  0  0  0  0  0  0  0  0  0  0  0
    1.3013   -2.1490    1.5518 H   0  0  0  0  0  0  0  0  0  0  0  0
    2.2397   -1.3644    3.3176 C   0  0  0  0  0  0  0  0  0  0  0  0
    1.7700   -0.7059    4.0557 H   0  0  0  0  0  0  0  0  0  0  0  0
    2.2077   -2.3890    3.7000 H   0  0  0  0  0  0  0  0  0  0  0  0
    3.2876   -1.0706    3.1975 H   0  0  0  0  0  0  0  0  0  0  0  0
  1  2  1  0  0  0  0
  2  3  1  0  0  0  0
  2  4  1  0  0  0  0
  2  5  1  0  0  0  0
  5  6  2  0  0  0  0
  5  7  1  0  0  0  0
  7  8  1  0  0  0  0
  7 17  1  0  0  0  0
  8  9  1  0  0  0  0
  8 10  1  0  0  0  0
  8 11  1  0  0  0  0
 11 12  1  0  0  0  0
 11 13  1  0  0  0  0
 11 14  1  0  0  0  0
 14 15  1  0  0  0  0
 14 16  1  0  0  0  0
 14 17  1  0  0  0  0
 17 18  1  0  0  0  0
 17 19  1  0  0  0  0
 19 20  2  0  0  0  0
 19 21  1  0  0  0  0
 21 22  1  0  0  0  0
 21 23  1  0  0  0  0
 23 24  1  0  0  0  0
 23 25  1  0  0  0  0
 23 26  1  0  0  0  0
M  END
$$$$

  -OEChem-11182114133D

 26 26  0     1  0  0  0  0  0999 V2000
   -1.5845   -4.2031   -0.2446 H   0  0  0  0  0  0  0  0  0  0  0  0
   -1.8019   -3.1313   -0.2428 C   0  0  0  0  0  0  0  0  0  0  0  0
   -2.4441   -2.9062    0.6121 H   0  0  0  0  0  0  0  0  0  0  0  0
   -2.3311   -2.8816   -1.1654 H   0  0  0  0  0  0  0  0  0  0  0  0
   -0.5091   -2.3336   -0.1478 C   0  0  0  0  0  0  0  0  0  0  0  0
    0.5494   -2.9440   -0.0741 O   0  0  0  0  0  0  0  0  0  0  0  0
   -0.5039   -0.9421   -0.1405 N   0  0  0  0  0  0  0  0  0  0  0  0
   -1.7153   -0.1565   -0.3256 C   0  0  0  0  0  0  0  0  0  0  0  0
   -2.4804   -0.3893    0.4225 H   0  0  0  0  0  0  0  0  0  0  0  0
   -2.1296   -0.3210   -1.3259 H   0  0  0  0  0  0  0  0  0  0  0  0
   -1.2391    1.2796   -0.1789 C   0  0  0  0  0  0  0  0  0  0  0  0
   -1.3170    1.5908    0.8685 H   0  0  0  0  0  0  0  0  0  0  0  0
   -1.8232    1.9719   -0.7930 H   0  0  0  0  0  0  0  0  0  0  0  0
    0.2269    1.2410   -0.5919 C   0  0  0  0  0  0  0  0  0  0  0  0
    0.7940    2.0799   -0.1757 H   0  0  0  0  0  0  0  0  0  0  0  0
    0.3014    1.2971   -1.6826 H   0  0  0  0  0  0  0  0  0  0  0  0
    0.7288   -0.1337   -0.1203 C   0  0  1  0  0  0  0  0  0  0  0  0
    1.4541   -0.5171   -0.8450 H   0  0  0  0  0  0  0  0  0  0  0  0
    1.4271   -0.1105    1.2663 C   0  0  0  0  0  0  0  0  0  0  0  0
    1.6078    0.9337    1.8831 O   0  0  0  0  0  0  0  0  0  0  0  0
    1.8614   -1.2906    1.8385 N   0  0  0  0  0  0  0  0  0  0  0  0
    1.6559   -2.1472    1.3179 H   0  0  0  0  0  0  0  0  0  0  0  0
    2.4919   -1.3847    3.1480 C   0  0  0  0  0  0  0  0  0  0  0  0
    1.7998   -1.0564    3.9301 H   0  0  0  0  0  0  0  0  0  0  0  0
    2.7817   -2.4197    3.3525 H   0  0  0  0  0  0  0  0  0  0  0  0
    3.3909   -0.7608    3.1865 H   0  0  0  0  0  0  0  0  0  0  0  0
  1  2  1  0  0  0  0
  2  3  1  0  0  0  0
  2  4  1  0  0  0  0
  2  5  1  0  0  0  0
  5  6  2  0  0  0  0
  5  7  1  0  0  0  0
  7  8  1  0  0  0  0
  7 17  1  0  0  0  0
  8  9  1  0  0  0  0
  8 10  1  0  0  0  0
  8 11  1  0  0  0  0
 11 12  1  0  0  0  0
 11 13  1  0  0  0  0
 11 14  1  0  0  0  0
 14 15  1  0  0  0  0
 14 16  1  0  0  0  0
 14 17  1  0  0  0  0
 17 18  1  0  0  0  0
 17 19  1  0  0  0  0
 19 20  2  0  0  0  0
 19 21  1  0  0  0  0
 21 22  1  0  0  0  0
 21 23  1  0  0  0  0
 23 24  1  0  0  0  0
 23 25  1  0  0  0  0
 23 26  1  0  0  0  0
M  END
$$$$

  -OEChem-11182114133D

 26 26  0     1  0  0  0  0  0999 V2000
   -1.5193   -4.2047   -0.1536 H   0  0  0  0  0  0  0  0  0  0  0  0
   -1.7513   -3.1367   -0.1943 C   0  0  0  0  0  0  0  0  0  0  0  0
   -2.3942   -2.8866    0.6530 H   0  0  0  0  0  0  0  0  0  0  0  0
   -2.2858   -2.9297   -1.1243 H   0  0  0  0  0  0  0  0  0  0  0  0
   -0.4691   -2.3189   -0.1364 C   0  0  0  0  0  0  0  0  0  0  0  0
    0.6025   -2.9098   -0.0828 O   0  0  0  0  0  0  0  0  0  0  0  0
   -0.4854   -0.9279   -0.1439 N   0  0  0  0  0  0  0  0  0  0  0  0
   -1.7062   -0.1518   -0.3040 C   0  0  0  0  0  0  0  0  0  0  0  0
   -2.4533   -0.3881    0.4609 H   0  0  0  0  0  0  0  0  0  0  0  0
   -2.1406   -0.3206   -1.2952 H   0  0  0  0  0  0  0  0  0  0  0  0
   -1.2336    1.2876   -0.1685 C   0  0  0  0  0  0  0  0  0  0  0  0
   -1.2914    1.5998    0.8801 H   0  0  0  0  0  0  0  0  0  0  0  0
   -1.8339    1.9762   -0.7708 H   0  0  0  0  0  0  0  0  0  0  0  0
    0.2246    1.2554   -0.6126 C   0  0  0  0  0  0  0  0  0  0  0  0
    0.7991    2.0927   -0.2028 H   0  0  0  0  0  0  0  0  0  0  0  0
    0.2769    1.3137   -1.7045 H   0  0  0  0  0  0  0  0  0  0  0  0
    0.7415   -0.1155   -0.1508 C   0  0  1  0  0  0  0  0  0  0  0  0
    1.4599   -0.4937   -0.8851 H   0  0  0  0  0  0  0  0  0  0  0  0
    1.4429   -0.0890    1.2308 C   0  0  0  0  0  0  0  0  0  0  0  0
    1.4109    0.8990    1.9568 O   0  0  0  0  0  0  0  0  0  0  0  0
    2.1447   -1.2026    1.6507 N   0  0  0  0  0  0  0  0  0  0  0  0
    1.9901   -2.0507    1.0993 H   0  0  0  0  0  0  0  0  0  0  0  0
    2.7388   -1.3264    2.9751 C   0  0  0  0  0  0  0  0  0  0  0  0
    1.9621   -1.2995    3.7462 H   0  0  0  0  0  0  0  0  0  0  0  0
    3.2796   -2.2740    3.0580 H   0  0  0  0  0  0  0  0  0  0  0  0
    3.4459   -0.5102    3.1569 H   0  0  0  0  0  0  0  0  0  0  0  0
  1  2  1  0  0  0  0
  2  3  1  0  0  0  0
  2  4  1  0  0  0  0
  2  5  1  0  0  0  0
  5  6  2  0  0  0  0
  5  7  1  0  0  0  0
  7  8  1  0  0  0  0
  7 17  1  0  0  0  0
  8  9  1  0  0  0  0
  8 10  1  0  0  0  0
  8 11  1  0  0  0  0
 11 12  1  0  0  0  0
 11 13  1  0  0  0  0
 11 14  1  0  0  0  0
 14 15  1  0  0  0  0
 14 16  1  0  0  0  0
 14 17  1  0  0  0  0
 17 18  1  0  0  0  0
 17 19  1  0  0  0  0
 19 20  2  0  0  0  0
 19 21  1  0  0  0  0
 21 22  1  0  0  0  0
 21 23  1  0  0  0  0
 23 24  1  0  0  0  0
 23 25  1  0  0  0  0
 23 26  1  0  0  0  0
M  END
$$$$

  -OEChem-11182114133D

 26 26  0     1  0  0  0  0  0999 V2000
   -1.4723   -4.2068   -0.1302 H   0  0  0  0  0  0  0  0  0  0  0  0
   -1.7191   -3.1426   -0.1793 C   0  0  0  0  0  0  0  0  0  0  0  0
   -2.3665   -2.8949    0.6652 H   0  0  0  0  0  0  0  0  0  0  0  0
   -2.2554   -2.9499   -1.1114 H   0  0  0  0  0  0  0  0  0  0  0  0
   -0.4489   -2.3067   -0.1259 C   0  0  0  0  0  0  0  0  0  0  0  0
    0.6336   -2.8782   -0.0664 O   0  0  0  0  0  0  0  0  0  0  0  0
   -0.4841   -0.9168   -0.1476 N   0  0  0  0  0  0  0  0  0  0  0  0
   -1.7084   -0.1457   -0.3013 C   0  0  0  0  0  0  0  0  0  0  0  0
   -2.4496   -0.3838    0.4689 H   0  0  0  0  0  0  0  0  0  0  0  0
   -2.1485   -0.3166   -1.2895 H   0  0  0  0  0  0  0  0  0  0  0  0
   -1.2359    1.2944   -0.1680 C   0  0  0  0  0  0  0  0  0  0  0  0
   -1.2904    1.6068    0.8804 H   0  0  0  0  0  0  0  0  0  0  0  0
   -1.8389    1.9824   -0.7682 H   0  0  0  0  0  0  0  0  0  0  0  0
    0.2211    1.2627   -0.6193 C   0  0  0  0  0  0  0  0  0  0  0  0
    0.7982    2.0959   -0.2042 H   0  0  0  0  0  0  0  0  0  0  0  0
    0.2707    1.3250   -1.7111 H   0  0  0  0  0  0  0  0  0  0  0  0
    0.7407   -0.1070   -0.1606 C   0  0  1  0  0  0  0  0  0  0  0  0
    1.4604   -0.4831   -0.8948 H   0  0  0  0  0  0  0  0  0  0  0  0
    1.4284   -0.0760    1.2250 C   0  0  0  0  0  0  0  0  0  0  0  0
    1.2138    0.8188    2.0362 O   0  0  0  0  0  0  0  0  0  0  0  0
    2.3669   -1.0462    1.5199 N   0  0  0  0  0  0  0  0  0  0  0  0
    2.3170   -1.8798    0.9309 H   0  0  0  0  0  0  0  0  0  0  0  0
    2.9989   -1.1639    2.8274 C   0  0  0  0  0  0  0  0  0  0  0  0
    2.2524   -1.3970    3.5936 H   0  0  0  0  0  0  0  0  0  0  0  0
    3.7459   -1.9633    2.8138 H   0  0  0  0  0  0  0  0  0  0  0  0
    3.5017   -0.2293    3.0973 H   0  0  0  0  0  0  0  0  0  0  0  0
  1  2  1  0  0  0  0
  2  3  1  0  0  0  0
  2  4  1  0  0  0  0
  2  5  1  0  0  0  0
  5  6  2  0  0  0  0
  5  7  1  0  0  0  0
  7  8  1  0  0  0  0
  7 17  1  0  0  0  0
  8  9  1  0  0  0  0
  8 10  1  0  0  0  0
  8 11  1  0  0  0  0
 11 12  1  0  0  0  0
 11 13  1  0  0  0  0
 11 14  1  0  0  0  0
 14 15  1  0  0  0  0
 14 16  1  0  0  0  0
 14 17  1  0  0  0  0
 17 18  1  0  0  0  0
 17 19  1  0  0  0  0
 19 20  2  0  0  0  0
 19 21  1  0  0  0  0
 21 22  1  0  0  0  0
 21 23  1  0  0  0  0
 23 24  1  0  0  0  0
 23 25  1  0  0  0  0
 23 26  1  0  0  0  0
M  END
$$$$

  -OEChem-11182114133D

 26 26  0     1  0  0  0  0  0999 V2000
   -1.4590   -4.2087   -0.1416 H   0  0  0  0  0  0  0  0  0  0  0  0
   -1.7120   -3.1452   -0.1688 C   0  0  0  0  0  0  0  0  0  0  0  0
   -2.3373   -2.9120    0.6963 H   0  0  0  0  0  0  0  0  0  0  0  0
   -2.2739   -2.9421   -1.0834 H   0  0  0  0  0  0  0  0  0  0  0  0
   -0.4450   -2.3035   -0.1360 C   0  0  0  0  0  0  0  0  0  0  0  0
    0.6417   -2.8677   -0.0885 O   0  0  0  0  0  0  0  0  0  0  0  0
   -0.4872   -0.9146   -0.1614 N   0  0  0  0  0  0  0  0  0  0  0  0
   -1.7123   -0.1448   -0.3112 C   0  0  0  0  0  0  0  0  0  0  0  0
   -2.4543   -0.3894    0.4563 H   0  0  0  0  0  0  0  0  0  0  0  0
   -2.1505   -0.3092   -1.3014 H   0  0  0  0  0  0  0  0  0  0  0  0
   -1.2400    1.2946   -0.1668 C   0  0  0  0  0  0  0  0  0  0  0  0
   -1.2986    1.6003    0.8834 H   0  0  0  0  0  0  0  0  0  0  0  0
   -1.8416    1.9862   -0.7642 H   0  0  0  0  0  0  0  0  0  0  0  0
    0.2186    1.2649   -0.6160 C   0  0  0  0  0  0  0  0  0  0  0  0
    0.7949    2.0919   -0.1877 H   0  0  0  0  0  0  0  0  0  0  0  0
    0.2716    1.3385   -1.7069 H   0  0  0  0  0  0  0  0  0  0  0  0
    0.7372   -0.1074   -0.1667 C   0  0  1  0  0  0  0  0  0  0  0  0
    1.4583   -0.4799   -0.9014 H   0  0  0  0  0  0  0  0  0  0  0  0
    1.4160   -0.0726    1.2221 C   0  0  0  0  0  0  0  0  0  0  0  0
    1.0230    0.6753    2.1116 O   0  0  0  0  0  0  0  0  0  0  0  0
    2.5576   -0.8246    1.4255 N   0  0  0  0  0  0  0  0  0  0  0  0
    2.6896   -1.5919    0.7680 H   0  0  0  0  0  0  0  0  0  0  0  0
    3.2219   -0.9102    2.7198 C   0  0  0  0  0  0  0  0  0  0  0  0
    2.5549   -1.3585    3.4634 H   0  0  0  0  0  0  0  0  0  0  0  0
    4.1217   -1.5279    2.6412 H   0  0  0  0  0  0  0  0  0  0  0  0
    3.5185    0.0853    3.0663 H   0  0  0  0  0  0  0  0  0  0  0  0
  1  2  1  0  0  0  0
  2  3  1  0  0  0  0
  2  4  1  0  0  0  0
  2  5  1  0  0  0  0
  5  6  2  0  0  0  0
  5  7  1  0  0  0  0
  7  8  1  0  0  0  0
  7 17  1  0  0  0  0
  8  9  1  0  0  0  0
  8 10  1  0  0  0  0
  8 11  1  0  0  0  0
 11 12  1  0  0  0  0
 11 13  1  0  0  0  0
 11 14  1  0  0  0  0
 14 15  1  0  0  0  0
 14 16  1  0  0  0  0
 14 17  1  0  0  0  0
 17 18  1  0  0  0  0
 17 19  1  0  0  0  0
 19 20  2  0  0  0  0
 19 21  1  0  0  0  0
 21 22  1  0  0  0  0
 21 23  1  0  0  0  0
 23 24  1  0  0  0  0
 23 25  1  0  0  0  0
 23 26  1  0  0  0  0
M  END
$$$$

  -OEChem-11182114133D

 26 26  0     1  0  0  0  0  0999 V2000
   -1.4744   -4.2097   -0.1323 H   0  0  0  0  0  0  0  0  0  0  0  0
   -1.7235   -3.1455   -0.1664 C   0  0  0  0  0  0  0  0  0  0  0  0
   -2.3493   -2.9049    0.6963 H   0  0  0  0  0  0  0  0  0  0  0  0
   -2.2827   -2.9456   -1.0835 H   0  0  0  0  0  0  0  0  0  0  0  0
   -0.4535   -2.3082   -0.1366 C   0  0  0  0  0  0  0  0  0  0  0  0
    0.6314   -2.8755   -0.0974 O   0  0  0  0  0  0  0  0  0  0  0  0
   -0.4920   -0.9197   -0.1685 N   0  0  0  0  0  0  0  0  0  0  0  0
   -1.7162   -0.1478   -0.3164 C   0  0  0  0  0  0  0  0  0  0  0  0
   -2.4588   -0.3944    0.4497 H   0  0  0  0  0  0  0  0  0  0  0  0
   -2.1536   -0.3080   -1.3075 H   0  0  0  0  0  0  0  0  0  0  0  0
   -1.2423    1.2903   -0.1654 C   0  0  0  0  0  0  0  0  0  0  0  0
   -1.3030    1.5914    0.8859 H   0  0  0  0  0  0  0  0  0  0  0  0
   -1.8421    1.9848   -0.7612 H   0  0  0  0  0  0  0  0  0  0  0  0
    0.2173    1.2604   -0.6126 C   0  0  0  0  0  0  0  0  0  0  0  0
    0.7935    2.0833   -0.1764 H   0  0  0  0  0  0  0  0  0  0  0  0
    0.2730    1.3400   -1.7030 H   0  0  0  0  0  0  0  0  0  0  0  0
    0.7331   -0.1135   -0.1687 C   0  0  1  0  0  0  0  0  0  0  0  0
    1.4529   -0.4882   -0.9033 H   0  0  0  0  0  0  0  0  0  0  0  0
    1.4136   -0.0638    1.2189 C   0  0  0  0  0  0  0  0  0  0  0  0
    0.8704    0.4810    2.1744 O   0  0  0  0  0  0  0  0  0  0  0  0
    2.7041   -0.5406    1.3595 N   0  0  0  0  0  0  0  0  0  0  0  0
    3.0307   -1.1540    0.6168 H   0  0  0  0  0  0  0  0  0  0  0  0
    3.3857   -0.5976    2.6465 C   0  0  0  0  0  0  0  0  0  0  0  0
    2.8569   -1.2707    3.3292 H   0  0  0  0  0  0  0  0  0  0  0  0
    4.4077   -0.9660    2.5160 H   0  0  0  0  0  0  0  0  0  0  0  0
    3.4352    0.3978    3.1003 H   0  0  0  0  0  0  0  0  0  0  0  0
  1  2  1  0  0  0  0
  2  3  1  0  0  0  0
  2  4  1  0  0  0  0
  2  5  1  0  0  0  0
  5  6  2  0  0  0  0
  5  7  1  0  0  0  0
  7  8  1  0  0  0  0
  7 17  1  0  0  0  0
  8  9  1  0  0  0  0
  8 10  1  0  0  0  0
  8 11  1  0  0  0  0
 11 12  1  0  0  0  0
 11 13  1  0  0  0  0
 11 14  1  0  0  0  0
 14 15  1  0  0  0  0
 14 16  1  0  0  0  0
 14 17  1  0  0  0  0
 17 18  1  0  0  0  0
 17 19  1  0  0  0  0
 19 20  2  0  0  0  0
 19 21  1  0  0  0  0
 21 22  1  0  0  0  0
 21 23  1  0  0  0  0
 23 24  1  0  0  0  0
 23 25  1  0  0  0  0
 23 26  1  0  0  0  0
M  END
$$$$

  -OEChem-11182114133D

 26 26  0     1  0  0  0  0  0999 V2000
   -1.4869   -4.2127   -0.1318 H   0  0  0  0  0  0  0  0  0  0  0  0
   -1.7327   -3.1476   -0.1590 C   0  0  0  0  0  0  0  0  0  0  0  0
   -2.3453   -2.9076    0.7134 H   0  0  0  0  0  0  0  0  0  0  0  0
   -2.3045   -2.9428   -1.0669 H   0  0  0  0  0  0  0  0  0  0  0  0
   -0.4598   -2.3143   -0.1439 C   0  0  0  0  0  0  0  0  0  0  0  0
    0.6227   -2.8860   -0.1183 O   0  0  0  0  0  0  0  0  0  0  0  0
   -0.4947   -0.9260   -0.1813 N   0  0  0  0  0  0  0  0  0  0  0  0
   -1.7177   -0.1524   -0.3274 C   0  0  0  0  0  0  0  0  0  0  0  0
   -2.4624   -0.4028    0.4355 H   0  0  0  0  0  0  0  0  0  0  0  0
   -2.1527   -0.3058   -1.3206 H   0  0  0  0  0  0  0  0  0  0  0  0
   -1.2422    1.2837   -0.1653 C   0  0  0  0  0  0  0  0  0  0  0  0
   -1.3059    1.5763    0.8883 H   0  0  0  0  0  0  0  0  0  0  0  0
   -1.8394    1.9836   -0.7577 H   0  0  0  0  0  0  0  0  0  0  0  0
    0.2190    1.2566   -0.6070 C   0  0  0  0  0  0  0  0  0  0  0  0
    0.7936    2.0762   -0.1623 H   0  0  0  0  0  0  0  0  0  0  0  0
    0.2795    1.3436   -1.6966 H   0  0  0  0  0  0  0  0  0  0  0  0
    0.7311   -0.1202   -0.1706 C   0  0  1  0  0  0  0  0  0  0  0  0
    1.4549   -0.4959   -0.9006 H   0  0  0  0  0  0  0  0  0  0  0  0
    1.4045   -0.0584    1.2199 C   0  0  0  0  0  0  0  0  0  0  0  0
    0.7645    0.2485    2.2204 O   0  0  0  0  0  0  0  0  0  0  0  0
    2.7733   -0.2305    1.3258 N   0  0  0  0  0  0  0  0  0  0  0  0
    3.2420   -0.6291    0.5173 H   0  0  0  0  0  0  0  0  0  0  0  0
    3.4692   -0.2490    2.6066 C   0  0  0  0  0  0  0  0  0  0  0  0
    3.1171   -1.0849    3.2201 H   0  0  0  0  0  0  0  0  0  0  0  0
    4.5463   -0.3618    2.4499 H   0  0  0  0  0  0  0  0  0  0  0  0
    3.2974    0.6852    3.1515 H   0  0  0  0  0  0  0  0  0  0  0  0
  1  2  1  0  0  0  0
  2  3  1  0  0  0  0
  2  4  1  0  0  0  0
  2  5  1  0  0  0  0
  5  6  2  0  0  0  0
  5  7  1  0  0  0  0
  7  8  1  0  0  0  0
  7 17  1  0  0  0  0
  8  9  1  0  0  0  0
  8 10  1  0  0  0  0
  8 11  1  0  0  0  0
 11 12  1  0  0  0  0
 11 13  1  0  0  0  0
 11 14  1  0  0  0  0
 14 15  1  0  0  0  0
 14 16  1  0  0  0  0
 14 17  1  0  0  0  0
 17 18  1  0  0  0  0
 17 19  1  0  0  0  0
 19 20  2  0  0  0  0
 19 21  1  0  0  0  0
 21 22  1  0  0  0  0
 21 23  1  0  0  0  0
 23 24  1  0  0  0  0
 23 25  1  0  0  0  0
 23 26  1  0  0  0  0
M  END
$$$$

  -OEChem-11182114133D

 26 26  0     1  0  0  0  0  0999 V2000
   -1.4952   -4.2160   -0.1362 H   0  0  0  0  0  0  0  0  0  0  0  0
   -1.7397   -3.1504   -0.1544 C   0  0  0  0  0  0  0  0  0  0  0  0
   -2.3371   -2.9135    0.7292 H   0  0  0  0  0  0  0  0  0  0  0  0
   -2.3257   -2.9398   -1.0519 H   0  0  0  0  0  0  0  0  0  0  0  0
   -0.4646   -2.3203   -0.1547 C   0  0  0  0  0  0  0  0  0  0  0  0
    0.6158   -2.8963   -0.1466 O   0  0  0  0  0  0  0  0  0  0  0  0
   -0.4967   -0.9317   -0.1948 N   0  0  0  0  0  0  0  0  0  0  0  0
   -1.7183   -0.1561   -0.3379 C   0  0  0  0  0  0  0  0  0  0  0  0
   -2.4649   -0.4111    0.4214 H   0  0  0  0  0  0  0  0  0  0  0  0
   -2.1513   -0.3017   -1.3332 H   0  0  0  0  0  0  0  0  0  0  0  0
   -1.2398    1.2772   -0.1633 C   0  0  0  0  0  0  0  0  0  0  0  0
   -1.3063    1.5606    0.8927 H   0  0  0  0  0  0  0  0  0  0  0  0
   -1.8340    1.9828   -0.7517 H   0  0  0  0  0  0  0  0  0  0  0  0
    0.2234    1.2524   -0.5987 C   0  0  0  0  0  0  0  0  0  0  0  0
    0.7964    2.0692   -0.1473 H   0  0  0  0  0  0  0  0  0  0  0  0
    0.2877    1.3461   -1.6876 H   0  0  0  0  0  0  0  0  0  0  0  0
    0.7312   -0.1284   -0.1706 C   0  0  1  0  0  0  0  0  0  0  0  0
    1.4615   -0.5044   -0.8939 H   0  0  0  0  0  0  0  0  0  0  0  0
    1.3931   -0.0620    1.2256 C   0  0  0  0  0  0  0  0  0  0  0  0
    0.7171   -0.0013    2.2475 O   0  0  0  0  0  0  0  0  0  0  0  0
    2.7663    0.0776    1.3247 N   0  0  0  0  0  0  0  0  0  0  0  0
    3.3059   -0.0838    0.4797 H   0  0  0  0  0  0  0  0  0  0  0  0
    3.4679    0.1160    2.6019 C   0  0  0  0  0  0  0  0  0  0  0  0
    3.3222   -0.8229    3.1465 H   0  0  0  0  0  0  0  0  0  0  0  0
    4.5401    0.2608    2.4393 H   0  0  0  0  0  0  0  0  0  0  0  0
    3.0991    0.9424    3.2186 H   0  0  0  0  0  0  0  0  0  0  0  0
  1  2  1  0  0  0  0
  2  3  1  0  0  0  0
  2  4  1  0  0  0  0
  2  5  1  0  0  0  0
  5  6  2  0  0  0  0
  5  7  1  0  0  0  0
  7  8  1  0  0  0  0
  7 17  1  0  0  0  0
  8  9  1  0  0  0  0
  8 10  1  0  0  0  0
  8 11  1  0  0  0  0
 11 12  1  0  0  0  0
 11 13  1  0  0  0  0
 11 14  1  0  0  0  0
 14 15  1  0  0  0  0
 14 16  1  0  0  0  0
 14 17  1  0  0  0  0
 17 18  1  0  0  0  0
 17 19  1  0  0  0  0
 19 20  2  0  0  0  0
 19 21  1  0  0  0  0
 21 22  1  0  0  0  0
 21 23  1  0  0  0  0
 23 24  1  0  0  0  0
 23 25  1  0  0  0  0
 23 26  1  0  0  0  0
M  END
$$$$

  -OEChem-11182114133D

 26 26  0     1  0  0  0  0  0999 V2000
   -1.5059   -4.2193   -0.1445 H   0  0  0  0  0  0  0  0  0  0  0  0
   -1.7468   -3.1527   -0.1520 C   0  0  0  0  0  0  0  0  0  0  0  0
   -2.3286   -2.9193    0.7429 H   0  0  0  0  0  0  0  0  0  0  0  0
   -2.3464   -2.9344   -1.0386 H   0  0  0  0  0  0  0  0  0  0  0  0
   -0.4691   -2.3267   -0.1674 C   0  0  0  0  0  0  0  0  0  0  0  0
    0.6084   -2.9076   -0.1811 O   0  0  0  0  0  0  0  0  0  0  0  0
   -0.4981   -0.9375   -0.2056 N   0  0  0  0  0  0  0  0  0  0  0  0
   -1.7182   -0.1603   -0.3479 C   0  0  0  0  0  0  0  0  0  0  0  0
   -2.4678   -0.4193    0.4071 H   0  0  0  0  0  0  0  0  0  0  0  0
   -2.1481   -0.2985   -1.3456 H   0  0  0  0  0  0  0  0  0  0  0  0
   -1.2378    1.2701   -0.1615 C   0  0  0  0  0  0  0  0  0  0  0  0
   -1.3103    1.5463    0.8961 H   0  0  0  0  0  0  0  0  0  0  0  0
   -1.8275    1.9804   -0.7489 H   0  0  0  0  0  0  0  0  0  0  0  0
    0.2279    1.2465   -0.5883 C   0  0  0  0  0  0  0  0  0  0  0  0
    0.7974    2.0615   -0.1293 H   0  0  0  0  0  0  0  0  0  0  0  0
    0.2982    1.3467   -1.6761 H   0  0  0  0  0  0  0  0  0  0  0  0
    0.7328   -0.1379   -0.1669 C   0  0  1  0  0  0  0  0  0  0  0  0
    1.4690   -0.5119   -0.8853 H   0  0  0  0  0  0  0  0  0  0  0  0
    1.3869   -0.0704    1.2341 C   0  0  0  0  0  0  0  0  0  0  0  0
    0.7341   -0.2578    2.2556 O   0  0  0  0  0  0  0  0  0  0  0  0
    2.6929    0.3729    1.3547 N   0  0  0  0  0  0  0  0  0  0  0  0
    3.2350    0.4563    0.5002 H   0  0  0  0  0  0  0  0  0  0  0  0
    3.3843    0.4718    2.6345 C   0  0  0  0  0  0  0  0  0  0  0  0
    3.4585   -0.5138    3.1062 H   0  0  0  0  0  0  0  0  0  0  0  0
    4.3953    0.8640    2.4888 H   0  0  0  0  0  0  0  0  0  0  0  0
    2.8476    1.1465    3.3098 H   0  0  0  0  0  0  0  0  0  0  0  0
  1  2  1  0  0  0  0
  2  3  1  0  0  0  0
  2  4  1  0  0  0  0
  2  5  1  0  0  0  0
  5  6  2  0  0  0  0
  5  7  1  0  0  0  0
  7  8  1  0  0  0  0
  7 17  1  0  0  0  0
  8  9  1  0  0  0  0
  8 10  1  0  0  0  0
  8 11  1  0  0  0  0
 11 12  1  0  0  0  0
 11 13  1  0  0  0  0
 11 14  1  0  0  0  0
 14 15  1  0  0  0  0
 14 16  1  0  0  0  0
 14 17  1  0  0  0  0
 17 18  1  0  0  0  0
 17 19  1  0  0  0  0
 19 20  2  0  0  0  0
 19 21  1  0  0  0  0
 21 22  1  0  0  0  0
 21 23  1  0  0  0  0
 23 24  1  0  0  0  0
 23 25  1  0  0  0  0
 23 26  1  0  0  0  0
M  END
$$$$

  -OEChem-11182114133D

 26 26  0     1  0  0  0  0  0999 V2000
   -1.4696   -4.2292   -0.3018 H   0  0  0  0  0  0  0  0  0  0  0  0
   -1.7039   -3.1704   -0.1618 C   0  0  0  0  0  0  0  0  0  0  0  0
   -2.1166   -3.0335    0.8407 H   0  0  0  0  0  0  0  0  0  0  0  0
   -2.4501   -2.8756   -0.9032 H   0  0  0  0  0  0  0  0  0  0  0  0
   -0.4452   -2.3300   -0.3201 C   0  0  0  0  0  0  0  0  0  0  0  0
    0.6136   -2.9000   -0.5509 O   0  0  0  0  0  0  0  0  0  0  0  0
   -0.4807   -0.9382   -0.3085 N   0  0  0  0  0  0  0  0  0  0  0  0
   -1.7039   -0.1683   -0.1429 C   0  0  0  0  0  0  0  0  0  0  0  0
   -2.3813   -0.6036    0.5992 H   0  0  0  0  0  0  0  0  0  0  0  0
   -2.2295   -0.0792   -1.0994 H   0  0  0  0  0  0  0  0  0  0  0  0
   -1.2024    1.1863    0.3289 C   0  0  0  0  0  0  0  0  0  0  0  0
   -1.1672    1.2043    1.4236 H   0  0  0  0  0  0  0  0  0  0  0  0
   -1.8447    2.0033   -0.0133 H   0  0  0  0  0  0  0  0  0  0  0  0
    0.2115    1.2922   -0.2327 C   0  0  0  0  0  0  0  0  0  0  0  0
    0.8236    1.9928    0.3444 H   0  0  0  0  0  0  0  0  0  0  0  0
    0.1716    1.6446   -1.2687 H   0  0  0  0  0  0  0  0  0  0  0  0
    0.7523   -0.1432   -0.2030 C   0  0  1  0  0  0  0  0  0  0  0  0
    1.3996   -0.3255   -1.0662 H   0  0  0  0  0  0  0  0  0  0  0  0
    1.5785   -0.3941    1.0863 C   0  0  0  0  0  0  0  0  0  0  0  0
    1.1133   -1.0126    2.0381 O   0  0  0  0  0  0  0  0  0  0  0  0
    2.7602    0.3020    1.2812 N   0  0  0  0  0  0  0  0  0  0  0  0
    3.1480    0.7929    0.4817 H   0  0  0  0  0  0  0  0  0  0  0  0
    3.5665    0.1847    2.4905 C   0  0  0  0  0  0  0  0  0  0  0  0
    3.9204   -0.8441    2.6152 H   0  0  0  0  0  0  0  0  0  0  0  0
    4.4359    0.8464    2.4309 H   0  0  0  0  0  0  0  0  0  0  0  0
    2.9807    0.4652    3.3723 H   0  0  0  0  0  0  0  0  0  0  0  0
  1  2  1  0  0  0  0
  2  3  1  0  0  0  0
  2  4  1  0  0  0  0
  2  5  1  0  0  0  0
  5  6  2  0  0  0  0
  5  7  1  0  0  0  0
  7  8  1  0  0  0  0
  7 17  1  0  0  0  0
  8  9  1  0  0  0  0
  8 10  1  0  0  0  0
  8 11  1  0  0  0  0
 11 12  1  0  0  0  0
 11 13  1  0  0  0  0
 11 14  1  0  0  0  0
 14 15  1  0  0  0  0
 14 16  1  0  0  0  0
 14 17  1  0  0  0  0
 17 18  1  0  0  0  0
 17 19  1  0  0  0  0
 19 20  2  0  0  0  0
 19 21  1  0  0  0  0
 21 22  1  0  0  0  0
 21 23  1  0  0  0  0
 23 24  1  0  0  0  0
 23 25  1  0  0  0  0
 23 26  1  0  0  0  0
M  END
$$$$

  -OEChem-11182114133D

 26 26  0     1  0  0  0  0  0999 V2000
   -1.4691   -4.2281   -0.2920 H   0  0  0  0  0  0  0  0  0  0  0  0
   -1.7003   -3.1695   -0.1441 C   0  0  0  0  0  0  0  0  0  0  0  0
   -2.0891   -3.0356    0.8683 H   0  0  0  0  0  0  0  0  0  0  0  0
   -2.4638   -2.8734   -0.8670 H   0  0  0  0  0  0  0  0  0  0  0  0
   -0.4453   -2.3291   -0.3296 C   0  0  0  0  0  0  0  0  0  0  0  0
    0.6009   -2.8986   -0.6124 O   0  0  0  0  0  0  0  0  0  0  0  0
   -0.4774   -0.9365   -0.3057 N   0  0  0  0  0  0  0  0  0  0  0  0
   -1.7043   -0.1709   -0.1509 C   0  0  0  0  0  0  0  0  0  0  0  0
   -2.3837   -0.6038    0.5909 H   0  0  0  0  0  0  0  0  0  0  0  0
   -2.2252   -0.0908   -1.1108 H   0  0  0  0  0  0  0  0  0  0  0  0
   -1.2112    1.1879    0.3126 C   0  0  0  0  0  0  0  0  0  0  0  0
   -1.1835    1.2153    1.4072 H   0  0  0  0  0  0  0  0  0  0  0  0
   -1.8544    1.9997   -0.0408 H   0  0  0  0  0  0  0  0  0  0  0  0
    0.2057    1.2942   -0.2398 C   0  0  0  0  0  0  0  0  0  0  0  0
    0.8045    2.0115    0.3291 H   0  0  0  0  0  0  0  0  0  0  0  0
    0.1684    1.6338   -1.2802 H   0  0  0  0  0  0  0  0  0  0  0  0
    0.7568   -0.1405   -0.1962 C   0  0  1  0  0  0  0  0  0  0  0  0
    1.4046   -0.3218   -1.0596 H   0  0  0  0  0  0  0  0  0  0  0  0
    1.5942   -0.3949    1.0904 C   0  0  0  0  0  0  0  0  0  0  0  0
    1.2516   -1.2147    1.9353 O   0  0  0  0  0  0  0  0  0  0  0  0
    2.5929    0.4977    1.4481 N   0  0  0  0  0  0  0  0  0  0  0  0
    2.8793    1.1796    0.7528 H   0  0  0  0  0  0  0  0  0  0  0  0
    3.3585    0.3936    2.6852 C   0  0  0  0  0  0  0  0  0  0  0  0
    3.9130   -0.5502    2.7130 H   0  0  0  0  0  0  0  0  0  0  0  0
    4.0736    1.2185    2.7578 H   0  0  0  0  0  0  0  0  0  0  0  0
    2.6934    0.4375    3.5541 H   0  0  0  0  0  0  0  0  0  0  0  0
  1  2  1  0  0  0  0
  2  3  1  0  0  0  0
  2  4  1  0  0  0  0
  2  5  1  0  0  0  0
  5  6  2  0  0  0  0
  5  7  1  0  0  0  0
  7  8  1  0  0  0  0
  7 17  1  0  0  0  0
  8  9  1  0  0  0  0
  8 10  1  0  0  0  0
  8 11  1  0  0  0  0
 11 12  1  0  0  0  0
 11 13  1  0  0  0  0
 11 14  1  0  0  0  0
 14 15  1  0  0  0  0
 14 16  1  0  0  0  0
 14 17  1  0  0  0  0
 17 18  1  0  0  0  0
 17 19  1  0  0  0  0
 19 20  2  0  0  0  0
 19 21  1  0  0  0  0
 21 22  1  0  0  0  0
 21 23  1  0  0  0  0
 23 24  1  0  0  0  0
 23 25  1  0  0  0  0
 23 26  1  0  0  0  0
M  END
$$$$

  -OEChem-11182114133D

 26 26  0     1  0  0  0  0  0999 V2000
   -1.4621   -4.2277   -0.2537 H   0  0  0  0  0  0  0  0  0  0  0  0
   -1.6957   -3.1667   -0.1290 C   0  0  0  0  0  0  0  0  0  0  0  0
   -2.0881   -3.0128    0.8789 H   0  0  0  0  0  0  0  0  0  0  0  0
   -2.4569   -2.8864   -0.8603 H   0  0  0  0  0  0  0  0  0  0  0  0
   -0.4416   -2.3276   -0.3294 C   0  0  0  0  0  0  0  0  0  0  0  0
    0.5888   -2.8962   -0.6652 O   0  0  0  0  0  0  0  0  0  0  0  0
   -0.4713   -0.9346   -0.2930 N   0  0  0  0  0  0  0  0  0  0  0  0
   -1.7050   -0.1768   -0.1561 C   0  0  0  0  0  0  0  0  0  0  0  0
   -2.3853   -0.6047    0.5876 H   0  0  0  0  0  0  0  0  0  0  0  0
   -2.2207   -0.1151   -1.1201 H   0  0  0  0  0  0  0  0  0  0  0  0
   -1.2276    1.1920    0.2896 C   0  0  0  0  0  0  0  0  0  0  0  0
   -1.2100    1.2372    1.3837 H   0  0  0  0  0  0  0  0  0  0  0  0
   -1.8749    1.9920   -0.0827 H   0  0  0  0  0  0  0  0  0  0  0  0
    0.1923    1.3017   -0.2526 C   0  0  0  0  0  0  0  0  0  0  0  0
    0.7758    2.0435    0.2983 H   0  0  0  0  0  0  0  0  0  0  0  0
    0.1559    1.6188   -1.3000 H   0  0  0  0  0  0  0  0  0  0  0  0
    0.7593   -0.1291   -0.1838 C   0  0  1  0  0  0  0  0  0  0  0  0
    1.4078   -0.3113   -1.0465 H   0  0  0  0  0  0  0  0  0  0  0  0
    1.6114   -0.3828    1.0986 C   0  0  0  0  0  0  0  0  0  0  0  0
    1.4569   -1.3756    1.7992 O   0  0  0  0  0  0  0  0  0  0  0  0
    2.3829    0.6345    1.6408 N   0  0  0  0  0  0  0  0  0  0  0  0
    2.5155    1.4691    1.0793 H   0  0  0  0  0  0  0  0  0  0  0  0
    3.1126    0.5138    2.8983 C   0  0  0  0  0  0  0  0  0  0  0  0
    3.8366   -0.3061    2.8439 H   0  0  0  0  0  0  0  0  0  0  0  0
    3.6540    1.4403    3.1119 H   0  0  0  0  0  0  0  0  0  0  0  0
    2.4216    0.3199    3.7256 H   0  0  0  0  0  0  0  0  0  0  0  0
  1  2  1  0  0  0  0
  2  3  1  0  0  0  0
  2  4  1  0  0  0  0
  2  5  1  0  0  0  0
  5  6  2  0  0  0  0
  5  7  1  0  0  0  0
  7  8  1  0  0  0  0
  7 17  1  0  0  0  0
  8  9  1  0  0  0  0
  8 10  1  0  0  0  0
  8 11  1  0  0  0  0
 11 12  1  0  0  0  0
 11 13  1  0  0  0  0
 11 14  1  0  0  0  0
 14 15  1  0  0  0  0
 14 16  1  0  0  0  0
 14 17  1  0  0  0  0
 17 18  1  0  0  0  0
 17 19  1  0  0  0  0
 19 20  2  0  0  0  0
 19 21  1  0  0  0  0
 21 22  1  0  0  0  0
 21 23  1  0  0  0  0
 23 24  1  0  0  0  0
 23 25  1  0  0  0  0
 23 26  1  0  0  0  0
M  END
$$$$

  -OEChem-11182114133D

 26 26  0     1  0  0  0  0  0999 V2000
   -1.4603   -4.2241   -0.2157 H   0  0  0  0  0  0  0  0  0  0  0  0
   -1.6928   -3.1615   -0.1016 C   0  0  0  0  0  0  0  0  0  0  0  0
   -2.0781   -2.9967    0.9072 H   0  0  0  0  0  0  0  0  0  0  0  0
   -2.4595   -2.8903   -0.8309 H   0  0  0  0  0  0  0  0  0  0  0  0
   -0.4392   -2.3256   -0.3202 C   0  0  0  0  0  0  0  0  0  0  0  0
    0.5756   -2.8982   -0.6904 O   0  0  0  0  0  0  0  0  0  0  0  0
   -0.4648   -0.9322   -0.2806 N   0  0  0  0  0  0  0  0  0  0  0  0
   -1.7046   -0.1773   -0.1782 C   0  0  0  0  0  0  0  0  0  0  0  0
   -2.3948   -0.5942    0.5626 H   0  0  0  0  0  0  0  0  0  0  0  0
   -2.2053   -0.1375   -1.1513 H   0  0  0  0  0  0  0  0  0  0  0  0
   -1.2436    1.2035    0.2476 C   0  0  0  0  0  0  0  0  0  0  0  0
   -1.2452    1.2721    1.3405 H   0  0  0  0  0  0  0  0  0  0  0  0
   -1.8894    1.9914   -0.1525 H   0  0  0  0  0  0  0  0  0  0  0  0
    0.1841    1.3122   -0.2734 C   0  0  0  0  0  0  0  0  0  0  0  0
    0.7562    2.0741    0.2609 H   0  0  0  0  0  0  0  0  0  0  0  0
    0.1597    1.6024   -1.3292 H   0  0  0  0  0  0  0  0  0  0  0  0
    0.7584   -0.1137   -0.1663 C   0  0  1  0  0  0  0  0  0  0  0  0
    1.4160   -0.3032   -1.0207 H   0  0  0  0  0  0  0  0  0  0  0  0
    1.6079   -0.3622    1.1214 C   0  0  0  0  0  0  0  0  0  0  0  0
    1.7218   -1.4696    1.6281 O   0  0  0  0  0  0  0  0  0  0  0  0
    2.1199    0.6961    1.8586 N   0  0  0  0  0  0  0  0  0  0  0  0
    2.0336    1.6265    1.4646 H   0  0  0  0  0  0  0  0  0  0  0  0
    2.8455    0.5338    3.1142 C   0  0  0  0  0  0  0  0  0  0  0  0
    3.7496   -0.0648    2.9600 H   0  0  0  0  0  0  0  0  0  0  0  0
    3.1403    1.5104    3.5094 H   0  0  0  0  0  0  0  0  0  0  0  0
    2.2160    0.0365    3.8596 H   0  0  0  0  0  0  0  0  0  0  0  0
  1  2  1  0  0  0  0
  2  3  1  0  0  0  0
  2  4  1  0  0  0  0
  2  5  1  0  0  0  0
  5  6  2  0  0  0  0
  5  7  1  0  0  0  0
  7  8  1  0  0  0  0
  7 17  1  0  0  0  0
  8  9  1  0  0  0  0
  8 10  1  0  0  0  0
  8 11  1  0  0  0  0
 11 12  1  0  0  0  0
 11 13  1  0  0  0  0
 11 14  1  0  0  0  0
 14 15  1  0  0  0  0
 14 16  1  0  0  0  0
 14 17  1  0  0  0  0
 17 18  1  0  0  0  0
 17 19  1  0  0  0  0
 19 20  2  0  0  0  0
 19 21  1  0  0  0  0
 21 22  1  0  0  0  0
 21 23  1  0  0  0  0
 23 24  1  0  0  0  0
 23 25  1  0  0  0  0
 23 26  1  0  0  0  0
M  END
$$$$

  -OEChem-11182114133D

 26 26  0     1  0  0  0  0  0999 V2000
   -1.5000   -4.2195   -0.2253 H   0  0  0  0  0  0  0  0  0  0  0  0
   -1.7219   -3.1537   -0.1217 C   0  0  0  0  0  0  0  0  0  0  0  0
   -2.1469   -2.9822    0.8698 H   0  0  0  0  0  0  0  0  0  0  0  0
   -2.4538   -2.8735   -0.8826 H   0  0  0  0  0  0  0  0  0  0  0  0
   -0.4488   -2.3354   -0.2906 C   0  0  0  0  0  0  0  0  0  0  0  0
    0.5693   -2.9285   -0.6088 O   0  0  0  0  0  0  0  0  0  0  0  0
   -0.4613   -0.9417   -0.2564 N   0  0  0  0  0  0  0  0  0  0  0  0
   -1.6995   -0.1779   -0.1949 C   0  0  0  0  0  0  0  0  0  0  0  0
   -2.4097   -0.5801    0.5350 H   0  0  0  0  0  0  0  0  0  0  0  0
   -2.1762   -0.1513   -1.1806 H   0  0  0  0  0  0  0  0  0  0  0  0
   -1.2461    1.2104    0.2203 C   0  0  0  0  0  0  0  0  0  0  0  0
   -1.2704    1.2957    1.3116 H   0  0  0  0  0  0  0  0  0  0  0  0
   -1.8831    1.9922   -0.2052 H   0  0  0  0  0  0  0  0  0  0  0  0
    0.1914    1.3086   -0.2750 C   0  0  0  0  0  0  0  0  0  0  0  0
    0.7646    2.0750    0.2527 H   0  0  0  0  0  0  0  0  0  0  0  0
    0.1860    1.5791   -1.3362 H   0  0  0  0  0  0  0  0  0  0  0  0
    0.7557   -0.1156   -0.1336 C   0  0  1  0  0  0  0  0  0  0  0  0
    1.4267   -0.3175   -0.9749 H   0  0  0  0  0  0  0  0  0  0  0  0
    1.5885   -0.3567    1.1631 C   0  0  0  0  0  0  0  0  0  0  0  0
    2.0606   -1.4482    1.4424 O   0  0  0  0  0  0  0  0  0  0  0  0
    1.8237    0.6666    2.0702 N   0  0  0  0  0  0  0  0  0  0  0  0
    1.4221    1.5752    1.8668 H   0  0  0  0  0  0  0  0  0  0  0  0
    2.5885    0.4978    3.3012 C   0  0  0  0  0  0  0  0  0  0  0  0
    3.6168    0.1963    3.0753 H   0  0  0  0  0  0  0  0  0  0  0  0
    2.6195    1.4382    3.8595 H   0  0  0  0  0  0  0  0  0  0  0  0
    2.1286   -0.2664    3.9366 H   0  0  0  0  0  0  0  0  0  0  0  0
  1  2  1  0  0  0  0
  2  3  1  0  0  0  0
  2  4  1  0  0  0  0
  2  5  1  0  0  0  0
  5  6  2  0  0  0  0
  5  7  1  0  0  0  0
  7  8  1  0  0  0  0
  7 17  1  0  0  0  0
  8  9  1  0  0  0  0
  8 10  1  0  0  0  0
  8 11  1  0  0  0  0
 11 12  1  0  0  0  0
 11 13  1  0  0  0  0
 11 14  1  0  0  0  0
 14 15  1  0  0  0  0
 14 16  1  0  0  0  0
 14 17  1  0  0  0  0
 17 18  1  0  0  0  0
 17 19  1  0  0  0  0
 19 20  2  0  0  0  0
 19 21  1  0  0  0  0
 21 22  1  0  0  0  0
 21 23  1  0  0  0  0
 23 24  1  0  0  0  0
 23 25  1  0  0  0  0
 23 26  1  0  0  0  0
M  END
$$$$

  -OEChem-11182114133D

 26 26  0     1  0  0  0  0  0999 V2000
   -1.5523   -4.2189   -0.2967 H   0  0  0  0  0  0  0  0  0  0  0  0
   -1.7652   -3.1508   -0.1957 C   0  0  0  0  0  0  0  0  0  0  0  0
   -2.2643   -2.9847    0.7616 H   0  0  0  0  0  0  0  0  0  0  0  0
   -2.4311   -2.8499   -1.0077 H   0  0  0  0  0  0  0  0  0  0  0  0
   -0.4703   -2.3515   -0.2544 C   0  0  0  0  0  0  0  0  0  0  0  0
    0.5678   -2.9676   -0.4223 O   0  0  0  0  0  0  0  0  0  0  0  0
   -0.4681   -0.9578   -0.2267 N   0  0  0  0  0  0  0  0  0  0  0  0
   -1.6980   -0.1780   -0.1911 C   0  0  0  0  0  0  0  0  0  0  0  0
   -2.4253   -0.5693    0.5278 H   0  0  0  0  0  0  0  0  0  0  0  0
   -2.1575   -0.1510   -1.1850 H   0  0  0  0  0  0  0  0  0  0  0  0
   -1.2383    1.2104    0.2260 C   0  0  0  0  0  0  0  0  0  0  0  0
   -1.2768    1.3011    1.3163 H   0  0  0  0  0  0  0  0  0  0  0  0
   -1.8627    1.9959   -0.2112 H   0  0  0  0  0  0  0  0  0  0  0  0
    0.2055    1.2919   -0.2548 C   0  0  0  0  0  0  0  0  0  0  0  0
    0.7869    2.0446    0.2860 H   0  0  0  0  0  0  0  0  0  0  0  0
    0.2189    1.5647   -1.3156 H   0  0  0  0  0  0  0  0  0  0  0  0
    0.7500   -0.1363   -0.1001 C   0  0  1  0  0  0  0  0  0  0  0  0
    1.4251   -0.3494   -0.9358 H   0  0  0  0  0  0  0  0  0  0  0  0
    1.5689   -0.3773    1.1994 C   0  0  0  0  0  0  0  0  0  0  0  0
    2.3782   -1.2885    1.2854 O   0  0  0  0  0  0  0  0  0  0  0  0
    1.5400    0.5389    2.2398 N   0  0  0  0  0  0  0  0  0  0  0  0
    0.8730    1.2999    2.1720 H   0  0  0  0  0  0  0  0  0  0  0  0
    2.3420    0.4099    3.4510 C   0  0  0  0  0  0  0  0  0  0  0  0
    3.4094    0.4266    3.2070 H   0  0  0  0  0  0  0  0  0  0  0  0
    2.1310    1.2378    4.1344 H   0  0  0  0  0  0  0  0  0  0  0  0
    2.1125   -0.5299    3.9642 H   0  0  0  0  0  0  0  0  0  0  0  0
  1  2  1  0  0  0  0
  2  3  1  0  0  0  0
  2  4  1  0  0  0  0
  2  5  1  0  0  0  0
  5  6  2  0  0  0  0
  5  7  1  0  0  0  0
  7  8  1  0  0  0  0
  7 17  1  0  0  0  0
  8  9  1  0  0  0  0
  8 10  1  0  0  0  0
  8 11  1  0  0  0  0
 11 12  1  0  0  0  0
 11 13  1  0  0  0  0
 11 14  1  0  0  0  0
 14 15  1  0  0  0  0
 14 16  1  0  0  0  0
 14 17  1  0  0  0  0
 17 18  1  0  0  0  0
 17 19  1  0  0  0  0
 19 20  2  0  0  0  0
 19 21  1  0  0  0  0
 21 22  1  0  0  0  0
 21 23  1  0  0  0  0
 23 24  1  0  0  0  0
 23 25  1  0  0  0  0
 23 26  1  0  0  0  0
M  END
$$$$

  -OEChem-11182114133D

 26 26  0     1  0  0  0  0  0999 V2000
   -1.5708   -4.2189   -0.3687 H   0  0  0  0  0  0  0  0  0  0  0  0
   -1.7834   -3.1523   -0.2534 C   0  0  0  0  0  0  0  0  0  0  0  0
   -2.3282   -3.0045    0.6818 H   0  0  0  0  0  0  0  0  0  0  0  0
   -2.4073   -2.8297   -1.0902 H   0  0  0  0  0  0  0  0  0  0  0  0
   -0.4838   -2.3591   -0.2317 C   0  0  0  0  0  0  0  0  0  0  0  0
    0.5636   -2.9795   -0.2894 O   0  0  0  0  0  0  0  0  0  0  0  0
   -0.4772   -0.9662   -0.2091 N   0  0  0  0  0  0  0  0  0  0  0  0
   -1.7003   -0.1760   -0.1768 C   0  0  0  0  0  0  0  0  0  0  0  0
   -2.4336   -0.5643    0.5378 H   0  0  0  0  0  0  0  0  0  0  0  0
   -2.1552   -0.1424   -1.1727 H   0  0  0  0  0  0  0  0  0  0  0  0
   -1.2297    1.2095    0.2451 C   0  0  0  0  0  0  0  0  0  0  0  0
   -1.2698    1.3001    1.3350 H   0  0  0  0  0  0  0  0  0  0  0  0
   -1.8466    2.0009   -0.1923 H   0  0  0  0  0  0  0  0  0  0  0  0
    0.2148    1.2775   -0.2387 C   0  0  0  0  0  0  0  0  0  0  0  0
    0.8068    2.0133    0.3151 H   0  0  0  0  0  0  0  0  0  0  0  0
    0.2336    1.5593   -1.2968 H   0  0  0  0  0  0  0  0  0  0  0  0
    0.7455   -0.1539   -0.0878 C   0  0  1  0  0  0  0  0  0  0  0  0
    1.4137   -0.3727   -0.9279 H   0  0  0  0  0  0  0  0  0  0  0  0
    1.5668   -0.3945    1.2053 C   0  0  0  0  0  0  0  0  0  0  0  0
    2.5809   -1.0771    1.1861 O   0  0  0  0  0  0  0  0  0  0  0  0
    1.3148    0.3474    2.3486 N   0  0  0  0  0  0  0  0  0  0  0  0
    0.4790    0.9214    2.3533 H   0  0  0  0  0  0  0  0  0  0  0  0
    2.0996    0.2317    3.5720 C   0  0  0  0  0  0  0  0  0  0  0  0
    3.1418    0.5122    3.3871 H   0  0  0  0  0  0  0  0  0  0  0  0
    1.6958    0.8932    4.3443 H   0  0  0  0  0  0  0  0  0  0  0  0
    2.0727   -0.7966    3.9477 H   0  0  0  0  0  0  0  0  0  0  0  0
  1  2  1  0  0  0  0
  2  3  1  0  0  0  0
  2  4  1  0  0  0  0
  2  5  1  0  0  0  0
  5  6  2  0  0  0  0
  5  7  1  0  0  0  0
  7  8  1  0  0  0  0
  7 17  1  0  0  0  0
  8  9  1  0  0  0  0
  8 10  1  0  0  0  0
  8 11  1  0  0  0  0
 11 12  1  0  0  0  0
 11 13  1  0  0  0  0
 11 14  1  0  0  0  0
 14 15  1  0  0  0  0
 14 16  1  0  0  0  0
 14 17  1  0  0  0  0
 17 18  1  0  0  0  0
 17 19  1  0  0  0  0
 19 20  2  0  0  0  0
 19 21  1  0  0  0  0
 21 22  1  0  0  0  0
 21 23  1  0  0  0  0
 23 24  1  0  0  0  0
 23 25  1  0  0  0  0
 23 26  1  0  0  0  0
M  END
$$$$

  -OEChem-11182114133D

 26 26  0     1  0  0  0  0  0999 V2000
   -1.5722   -4.2192   -0.4088 H   0  0  0  0  0  0  0  0  0  0  0  0
   -1.7890   -3.1541   -0.2870 C   0  0  0  0  0  0  0  0  0  0  0  0
   -2.3580   -3.0167    0.6352 H   0  0  0  0  0  0  0  0  0  0  0  0
   -2.3915   -2.8225   -1.1359 H   0  0  0  0  0  0  0  0  0  0  0  0
   -0.4911   -2.3609   -0.2228 C   0  0  0  0  0  0  0  0  0  0  0  0
    0.5601   -2.9785   -0.2162 O   0  0  0  0  0  0  0  0  0  0  0  0
   -0.4838   -0.9687   -0.2019 N   0  0  0  0  0  0  0  0  0  0  0  0
   -1.7017   -0.1704   -0.1657 C   0  0  0  0  0  0  0  0  0  0  0  0
   -2.4366   -0.5569    0.5484 H   0  0  0  0  0  0  0  0  0  0  0  0
   -2.1580   -0.1301   -1.1606 H   0  0  0  0  0  0  0  0  0  0  0  0
   -1.2204    1.2118    0.2611 C   0  0  0  0  0  0  0  0  0  0  0  0
   -1.2566    1.3025    1.3509 H   0  0  0  0  0  0  0  0  0  0  0  0
   -1.8324    2.0087   -0.1730 H   0  0  0  0  0  0  0  0  0  0  0  0
    0.2227    1.2702   -0.2285 C   0  0  0  0  0  0  0  0  0  0  0  0
    0.8220    1.9915    0.3372 H   0  0  0  0  0  0  0  0  0  0  0  0
    0.2444    1.5621   -1.2838 H   0  0  0  0  0  0  0  0  0  0  0  0
    0.7425   -0.1639   -0.0853 C   0  0  1  0  0  0  0  0  0  0  0  0
    1.4037   -0.3857   -0.9302 H   0  0  0  0  0  0  0  0  0  0  0  0
    1.5676   -0.4062    1.2009 C   0  0  0  0  0  0  0  0  0  0  0  0
    2.7140   -0.8274    1.1299 O   0  0  0  0  0  0  0  0  0  0  0  0
    1.1330    0.1014    2.4140 N   0  0  0  0  0  0  0  0  0  0  0  0
    0.1727    0.4239    2.4579 H   0  0  0  0  0  0  0  0  0  0  0  0
    1.8930   -0.0236    3.6516 C   0  0  0  0  0  0  0  0  0  0  0  0
    2.8613    0.4796    3.5594 H   0  0  0  0  0  0  0  0  0  0  0  0
    1.3443    0.4341    4.4801 H   0  0  0  0  0  0  0  0  0  0  0  0
    2.0650   -1.0786    3.8898 H   0  0  0  0  0  0  0  0  0  0  0  0
  1  2  1  0  0  0  0
  2  3  1  0  0  0  0
  2  4  1  0  0  0  0
  2  5  1  0  0  0  0
  5  6  2  0  0  0  0
  5  7  1  0  0  0  0
  7  8  1  0  0  0  0
  7 17  1  0  0  0  0
  8  9  1  0  0  0  0
  8 10  1  0  0  0  0
  8 11  1  0  0  0  0
 11 12  1  0  0  0  0
 11 13  1  0  0  0  0
 11 14  1  0  0  0  0
 14 15  1  0  0  0  0
 14 16  1  0  0  0  0
 14 17  1  0  0  0  0
 17 18  1  0  0  0  0
 17 19  1  0  0  0  0
 19 20  2  0  0  0  0
 19 21  1  0  0  0  0
 21 22  1  0  0  0  0
 21 23  1  0  0  0  0
 23 24  1  0  0  0  0
 23 25  1  0  0  0  0
 23 26  1  0  0  0  0
M  END
$$$$

  -OEChem-11182114133D

 26 26  0     1  0  0  0  0  0999 V2000
   -1.5718   -4.2195   -0.4140 H   0  0  0  0  0  0  0  0  0  0  0  0
   -1.7894   -3.1540   -0.2978 C   0  0  0  0  0  0  0  0  0  0  0  0
   -2.3675   -3.0132    0.6182 H   0  0  0  0  0  0  0  0  0  0  0  0
   -2.3838   -2.8252   -1.1534 H   0  0  0  0  0  0  0  0  0  0  0  0
   -0.4926   -2.3603   -0.2250 C   0  0  0  0  0  0  0  0  0  0  0  0
    0.5611   -2.9742   -0.1964 O   0  0  0  0  0  0  0  0  0  0  0  0
   -0.4857   -0.9685   -0.2057 N   0  0  0  0  0  0  0  0  0  0  0  0
   -1.6998   -0.1655   -0.1564 C   0  0  0  0  0  0  0  0  0  0  0  0
   -2.4328   -0.5543    0.5580 H   0  0  0  0  0  0  0  0  0  0  0  0
   -2.1609   -0.1153   -1.1488 H   0  0  0  0  0  0  0  0  0  0  0  0
   -1.2093    1.2119    0.2791 C   0  0  0  0  0  0  0  0  0  0  0  0
   -1.2335    1.2931    1.3701 H   0  0  0  0  0  0  0  0  0  0  0  0
   -1.8215    2.0157   -0.1420 H   0  0  0  0  0  0  0  0  0  0  0  0
    0.2301    1.2687   -0.2208 C   0  0  0  0  0  0  0  0  0  0  0  0
    0.8362    1.9799    0.3507 H   0  0  0  0  0  0  0  0  0  0  0  0
    0.2473    1.5713   -1.2731 H   0  0  0  0  0  0  0  0  0  0  0  0
    0.7430   -0.1678   -0.0929 C   0  0  1  0  0  0  0  0  0  0  0  0
    1.4006   -0.3883   -0.9408 H   0  0  0  0  0  0  0  0  0  0  0  0
    1.5691   -0.4118    1.1895 C   0  0  0  0  0  0  0  0  0  0  0  0
    2.7817   -0.5616    1.1188 O   0  0  0  0  0  0  0  0  0  0  0  0
    1.0017   -0.1819    2.4311 N   0  0  0  0  0  0  0  0  0  0  0  0
   -0.0097   -0.1118    2.4599 H   0  0  0  0  0  0  0  0  0  0  0  0
    1.7335   -0.3378    3.6818 C   0  0  0  0  0  0  0  0  0  0  0  0
    2.5843    0.3509    3.7165 H   0  0  0  0  0  0  0  0  0  0  0  0
    1.0800   -0.1207    4.5319 H   0  0  0  0  0  0  0  0  0  0  0  0
    2.1053   -1.3630    3.7819 H   0  0  0  0  0  0  0  0  0  0  0  0
  1  2  1  0  0  0  0
  2  3  1  0  0  0  0
  2  4  1  0  0  0  0
  2  5  1  0  0  0  0
  5  6  2  0  0  0  0
  5  7  1  0  0  0  0
  7  8  1  0  0  0  0
  7 17  1  0  0  0  0
  8  9  1  0  0  0  0
  8 10  1  0  0  0  0
  8 11  1  0  0  0  0
 11 12  1  0  0  0  0
 11 13  1  0  0  0  0
 11 14  1  0  0  0  0
 14 15  1  0  0  0  0
 14 16  1  0  0  0  0
 14 17  1  0  0  0  0
 17 18  1  0  0  0  0
 17 19  1  0  0  0  0
 19 20  2  0  0  0  0
 19 21  1  0  0  0  0
 21 22  1  0  0  0  0
 21 23  1  0  0  0  0
 23 24  1  0  0  0  0
 23 25  1  0  0  0  0
 23 26  1  0  0  0  0
M  END
$$$$

  -OEChem-11182114133D

 26 26  0     1  0  0  0  0  0999 V2000
   -1.5734   -4.2196   -0.4208 H   0  0  0  0  0  0  0  0  0  0  0  0
   -1.7916   -3.1541   -0.3065 C   0  0  0  0  0  0  0  0  0  0  0  0
   -2.3732   -3.0125    0.6072 H   0  0  0  0  0  0  0  0  0  0  0  0
   -2.3831   -2.8264   -1.1647 H   0  0  0  0  0  0  0  0  0  0  0  0
   -0.4952   -2.3602   -0.2303 C   0  0  0  0  0  0  0  0  0  0  0  0
    0.5596   -2.9723   -0.1869 O   0  0  0  0  0  0  0  0  0  0  0  0
   -0.4872   -0.9686   -0.2133 N   0  0  0  0  0  0  0  0  0  0  0  0
   -1.6991   -0.1632   -0.1509 C   0  0  0  0  0  0  0  0  0  0  0  0
   -2.4296   -0.5558    0.5641 H   0  0  0  0  0  0  0  0  0  0  0  0
   -2.1650   -0.1036   -1.1405 H   0  0  0  0  0  0  0  0  0  0  0  0
   -1.2018    1.2090    0.2932 C   0  0  0  0  0  0  0  0  0  0  0  0
   -1.2156    1.2781    1.3857 H   0  0  0  0  0  0  0  0  0  0  0  0
   -1.8154    2.0185   -0.1142 H   0  0  0  0  0  0  0  0  0  0  0  0
    0.2346    1.2680   -0.2141 C   0  0  0  0  0  0  0  0  0  0  0  0
    0.8451    1.9722    0.3615 H   0  0  0  0  0  0  0  0  0  0  0  0
    0.2472    1.5801   -1.2635 H   0  0  0  0  0  0  0  0  0  0  0  0
    0.7438   -0.1704   -0.1007 C   0  0  1  0  0  0  0  0  0  0  0  0
    1.4006   -0.3884   -0.9495 H   0  0  0  0  0  0  0  0  0  0  0  0
    1.5699   -0.4119    1.1809 C   0  0  0  0  0  0  0  0  0  0  0  0
    2.7884   -0.2998    1.1510 O   0  0  0  0  0  0  0  0  0  0  0  0
    0.9345   -0.4822    2.4085 N   0  0  0  0  0  0  0  0  0  0  0  0
   -0.0669   -0.6424    2.3850 H   0  0  0  0  0  0  0  0  0  0  0  0
    1.6500   -0.6786    3.6626 C   0  0  0  0  0  0  0  0  0  0  0  0
    2.3479    0.1465    3.8397 H   0  0  0  0  0  0  0  0  0  0  0  0
    0.9445   -0.7177    4.4979 H   0  0  0  0  0  0  0  0  0  0  0  0
    2.2127   -1.6178    3.6387 H   0  0  0  0  0  0  0  0  0  0  0  0
  1  2  1  0  0  0  0
  2  3  1  0  0  0  0
  2  4  1  0  0  0  0
  2  5  1  0  0  0  0
  5  6  2  0  0  0  0
  5  7  1  0  0  0  0
  7  8  1  0  0  0  0
  7 17  1  0  0  0  0
  8  9  1  0  0  0  0
  8 10  1  0  0  0  0
  8 11  1  0  0  0  0
 11 12  1  0  0  0  0
 11 13  1  0  0  0  0
 11 14  1  0  0  0  0
 14 15  1  0  0  0  0
 14 16  1  0  0  0  0
 14 17  1  0  0  0  0
 17 18  1  0  0  0  0
 17 19  1  0  0  0  0
 19 20  2  0  0  0  0
 19 21  1  0  0  0  0
 21 22  1  0  0  0  0
 21 23  1  0  0  0  0
 23 24  1  0  0  0  0
 23 25  1  0  0  0  0
 23 26  1  0  0  0  0
M  END
$$$$

  -OEChem-11182114133D

 26 26  0     1  0  0  0  0  0999 V2000
   -1.5871   -4.2177   -0.4492 H   0  0  0  0  0  0  0  0  0  0  0  0
   -1.8032   -3.1521   -0.3311 C   0  0  0  0  0  0  0  0  0  0  0  0
   -2.3956   -3.0138    0.5763 H   0  0  0  0  0  0  0  0  0  0  0  0
   -2.3829   -2.8168   -1.1945 H   0  0  0  0  0  0  0  0  0  0  0  0
   -0.5056   -2.3624   -0.2350 C   0  0  0  0  0  0  0  0  0  0  0  0
    0.5469   -2.9767   -0.1700 O   0  0  0  0  0  0  0  0  0  0  0  0
   -0.4930   -0.9710   -0.2187 N   0  0  0  0  0  0  0  0  0  0  0  0
   -1.7036   -0.1645   -0.1538 C   0  0  0  0  0  0  0  0  0  0  0  0
   -2.4357   -0.5593    0.5584 H   0  0  0  0  0  0  0  0  0  0  0  0
   -2.1680   -0.0987   -1.1436 H   0  0  0  0  0  0  0  0  0  0  0  0
   -1.2051    1.2038    0.2981 C   0  0  0  0  0  0  0  0  0  0  0  0
   -1.2190    1.2643    1.3914 H   0  0  0  0  0  0  0  0  0  0  0  0
   -1.8170    2.0173   -0.1042 H   0  0  0  0  0  0  0  0  0  0  0  0
    0.2320    1.2641   -0.2055 C   0  0  0  0  0  0  0  0  0  0  0  0
    0.8408    1.9664    0.3743 H   0  0  0  0  0  0  0  0  0  0  0  0
    0.2471    1.5815   -1.2533 H   0  0  0  0  0  0  0  0  0  0  0  0
    0.7402   -0.1754   -0.0984 C   0  0  1  0  0  0  0  0  0  0  0  0
    1.4001   -0.3915   -0.9452 H   0  0  0  0  0  0  0  0  0  0  0  0
    1.5671   -0.4082    1.1848 C   0  0  0  0  0  0  0  0  0  0  0  0
    2.7413   -0.0628    1.2182 O   0  0  0  0  0  0  0  0  0  0  0  0
    0.9428   -0.7793    2.3627 N   0  0  0  0  0  0  0  0  0  0  0  0
    0.0011   -1.1449    2.2695 H   0  0  0  0  0  0  0  0  0  0  0  0
    1.6689   -1.0171    3.6034 C   0  0  0  0  0  0  0  0  0  0  0  0
    2.1958   -0.1106    3.9195 H   0  0  0  0  0  0  0  0  0  0  0  0
    0.9746   -1.3063    4.3980 H   0  0  0  0  0  0  0  0  0  0  0  0
    2.4000   -1.8215    3.4703 H   0  0  0  0  0  0  0  0  0  0  0  0
  1  2  1  0  0  0  0
  2  3  1  0  0  0  0
  2  4  1  0  0  0  0
  2  5  1  0  0  0  0
  5  6  2  0  0  0  0
  5  7  1  0  0  0  0
  7  8  1  0  0  0  0
  7 17  1  0  0  0  0
  8  9  1  0  0  0  0
  8 10  1  0  0  0  0
  8 11  1  0  0  0  0
 11 12  1  0  0  0  0
 11 13  1  0  0  0  0
 11 14  1  0  0  0  0
 14 15  1  0  0  0  0
 14 16  1  0  0  0  0
 14 17  1  0  0  0  0
 17 18  1  0  0  0  0
 17 19  1  0  0  0  0
 19 20  2  0  0  0  0
 19 21  1  0  0  0  0
 21 22  1  0  0  0  0
 21 23  1  0  0  0  0
 23 24  1  0  0  0  0
 23 25  1  0  0  0  0
 23 26  1  0  0  0  0
M  END
$$$$

  -OEChem-11182114133D

 26 26  0     1  0  0  0  0  0999 V2000
   -1.6241   -4.2096   -0.4980 H   0  0  0  0  0  0  0  0  0  0  0  0
   -1.8337   -3.1432   -0.3750 C   0  0  0  0  0  0  0  0  0  0  0  0
   -2.4489   -3.0081    0.5177 H   0  0  0  0  0  0  0  0  0  0  0  0
   -2.3879   -2.7946   -1.2499 H   0  0  0  0  0  0  0  0  0  0  0  0
   -0.5322   -2.3661   -0.2378 C   0  0  0  0  0  0  0  0  0  0  0  0
    0.5112   -2.9904   -0.1312 O   0  0  0  0  0  0  0  0  0  0  0  0
   -0.5052   -0.9754   -0.2151 N   0  0  0  0  0  0  0  0  0  0  0  0
   -1.7132   -0.1644   -0.1615 C   0  0  0  0  0  0  0  0  0  0  0  0
   -2.4525   -0.5565    0.5447 H   0  0  0  0  0  0  0  0  0  0  0  0
   -2.1689   -0.0973   -1.1552 H   0  0  0  0  0  0  0  0  0  0  0  0
   -1.2161    1.2017    0.2946 C   0  0  0  0  0  0  0  0  0  0  0  0
   -1.2388    1.2606    1.3879 H   0  0  0  0  0  0  0  0  0  0  0  0
   -1.8223    2.0170   -0.1119 H   0  0  0  0  0  0  0  0  0  0  0  0
    0.2252    1.2584   -0.1945 C   0  0  0  0  0  0  0  0  0  0  0  0
    0.8274    1.9630    0.3893 H   0  0  0  0  0  0  0  0  0  0  0  0
    0.2504    1.5745   -1.2424 H   0  0  0  0  0  0  0  0  0  0  0  0
    0.7313   -0.1833   -0.0823 C   0  0  1  0  0  0  0  0  0  0  0  0
    1.3942   -0.4007   -0.9262 H   0  0  0  0  0  0  0  0  0  0  0  0
    1.5637   -0.4090    1.2018 C   0  0  0  0  0  0  0  0  0  0  0  0
    2.6478    0.1492    1.3185 O   0  0  0  0  0  0  0  0  0  0  0  0
    1.0271   -1.0637    2.2964 N   0  0  0  0  0  0  0  0  0  0  0  0
    0.2261   -1.6538    2.0955 H   0  0  0  0  0  0  0  0  0  0  0  0
    1.7917   -1.3269    3.5086 C   0  0  0  0  0  0  0  0  0  0  0  0
    2.1256   -0.3883    3.9631 H   0  0  0  0  0  0  0  0  0  0  0  0
    1.1727   -1.8602    4.2363 H   0  0  0  0  0  0  0  0  0  0  0  0
    2.6693   -1.9413    3.2817 H   0  0  0  0  0  0  0  0  0  0  0  0
  1  2  1  0  0  0  0
  2  3  1  0  0  0  0
  2  4  1  0  0  0  0
  2  5  1  0  0  0  0
  5  6  2  0  0  0  0
  5  7  1  0  0  0  0
  7  8  1  0  0  0  0
  7 17  1  0  0  0  0
  8  9  1  0  0  0  0
  8 10  1  0  0  0  0
  8 11  1  0  0  0  0
 11 12  1  0  0  0  0
 11 13  1  0  0  0  0
 11 14  1  0  0  0  0
 14 15  1  0  0  0  0
 14 16  1  0  0  0  0
 14 17  1  0  0  0  0
 17 18  1  0  0  0  0
 17 19  1  0  0  0  0
 19 20  2  0  0  0  0
 19 21  1  0  0  0  0
 21 22  1  0  0  0  0
 21 23  1  0  0  0  0
 23 24  1  0  0  0  0
 23 25  1  0  0  0  0
 23 26  1  0  0  0  0
M  END
$$$$

  -OEChem-11182114133D

 26 26  0     1  0  0  0  0  0999 V2000
   -1.6747   -4.1971   -0.5450 H   0  0  0  0  0  0  0  0  0  0  0  0
   -1.8733   -3.1300   -0.4111 C   0  0  0  0  0  0  0  0  0  0  0  0
   -2.4971   -2.9983    0.4760 H   0  0  0  0  0  0  0  0  0  0  0  0
   -2.4133   -2.7644   -1.2878 H   0  0  0  0  0  0  0  0  0  0  0  0
   -0.5645   -2.3698   -0.2487 C   0  0  0  0  0  0  0  0  0  0  0  0
    0.4685   -3.0098   -0.1267 O   0  0  0  0  0  0  0  0  0  0  0  0
   -0.5188   -0.9801   -0.2080 N   0  0  0  0  0  0  0  0  0  0  0  0
   -1.7233   -0.1630   -0.1666 C   0  0  0  0  0  0  0  0  0  0  0  0
   -2.4711   -0.5513    0.5327 H   0  0  0  0  0  0  0  0  0  0  0  0
   -2.1688   -0.0947   -1.1649 H   0  0  0  0  0  0  0  0  0  0  0  0
   -1.2274    1.2012    0.2924 C   0  0  0  0  0  0  0  0  0  0  0  0
   -1.2609    1.2614    1.3854 H   0  0  0  0  0  0  0  0  0  0  0  0
   -1.8269    2.0178   -0.1213 H   0  0  0  0  0  0  0  0  0  0  0  0
    0.2182    1.2521   -0.1815 C   0  0  0  0  0  0  0  0  0  0  0  0
    0.8122    1.9613    0.4046 H   0  0  0  0  0  0  0  0  0  0  0  0
    0.2540    1.5653   -1.2300 H   0  0  0  0  0  0  0  0  0  0  0  0
    0.7219   -0.1927   -0.0625 C   0  0  1  0  0  0  0  0  0  0  0  0
    1.3841   -0.4106   -0.9063 H   0  0  0  0  0  0  0  0  0  0  0  0
    1.5657   -0.4235    1.2178 C   0  0  0  0  0  0  0  0  0  0  0  0
    2.5239    0.3067    1.4432 O   0  0  0  0  0  0  0  0  0  0  0  0
    1.1811   -1.3299    2.1895 N   0  0  0  0  0  0  0  0  0  0  0  0
    0.5883   -2.0817    1.8435 H   0  0  0  0  0  0  0  0  0  0  0  0
    1.9854   -1.5928    3.3759 C   0  0  0  0  0  0  0  0  0  0  0  0
    2.1054   -0.6797    3.9682 H   0  0  0  0  0  0  0  0  0  0  0  0
    1.4982   -2.3464    4.0017 H   0  0  0  0  0  0  0  0  0  0  0  0
    2.9764   -1.9627    3.0928 H   0  0  0  0  0  0  0  0  0  0  0  0
  1  2  1  0  0  0  0
  2  3  1  0  0  0  0
  2  4  1  0  0  0  0
  2  5  1  0  0  0  0
  5  6  2  0  0  0  0
  5  7  1  0  0  0  0
  7  8  1  0  0  0  0
  7 17  1  0  0  0  0
  8  9  1  0  0  0  0
  8 10  1  0  0  0  0
  8 11  1  0  0  0  0
 11 12  1  0  0  0  0
 11 13  1  0  0  0  0
 11 14  1  0  0  0  0
 14 15  1  0  0  0  0
 14 16  1  0  0  0  0
 14 17  1  0  0  0  0
 17 18  1  0  0  0  0
 17 19  1  0  0  0  0
 19 20  2  0  0  0  0
 19 21  1  0  0  0  0
 21 22  1  0  0  0  0
 21 23  1  0  0  0  0
 23 24  1  0  0  0  0
 23 25  1  0  0  0  0
 23 26  1  0  0  0  0
M  END
$$$$

  -OEChem-11182114133D

 26 26  0     1  0  0  0  0  0999 V2000
   -1.7020   -4.1896   -0.5555 H   0  0  0  0  0  0  0  0  0  0  0  0
   -1.8915   -3.1224   -0.4089 C   0  0  0  0  0  0  0  0  0  0  0  0
   -2.4962   -2.9954    0.4922 H   0  0  0  0  0  0  0  0  0  0  0  0
   -2.4472   -2.7466   -1.2715 H   0  0  0  0  0  0  0  0  0  0  0  0
   -0.5756   -2.3703   -0.2657 C   0  0  0  0  0  0  0  0  0  0  0  0
    0.4573   -3.0202   -0.2003 O   0  0  0  0  0  0  0  0  0  0  0  0
   -0.5217   -0.9807   -0.2081 N   0  0  0  0  0  0  0  0  0  0  0  0
   -1.7278   -0.1647   -0.1714 C   0  0  0  0  0  0  0  0  0  0  0  0
   -2.4786   -0.5541    0.5244 H   0  0  0  0  0  0  0  0  0  0  0  0
   -2.1691   -0.0960   -1.1714 H   0  0  0  0  0  0  0  0  0  0  0  0
   -1.2381    1.1991    0.2901 C   0  0  0  0  0  0  0  0  0  0  0  0
   -1.2795    1.2591    1.3828 H   0  0  0  0  0  0  0  0  0  0  0  0
   -1.8361    2.0149   -0.1279 H   0  0  0  0  0  0  0  0  0  0  0  0
    0.2101    1.2529   -0.1730 C   0  0  0  0  0  0  0  0  0  0  0  0
    0.7942    1.9704    0.4125 H   0  0  0  0  0  0  0  0  0  0  0  0
    0.2506    1.5634   -1.2220 H   0  0  0  0  0  0  0  0  0  0  0  0
    0.7197   -0.1923   -0.0514 C   0  0  1  0  0  0  0  0  0  0  0  0
    1.3837   -0.4056   -0.8951 H   0  0  0  0  0  0  0  0  0  0  0  0
    1.5683   -0.4311    1.2292 C   0  0  0  0  0  0  0  0  0  0  0  0
    2.3900    0.4089    1.5779 O   0  0  0  0  0  0  0  0  0  0  0  0
    1.3785   -1.5327    2.0434 N   0  0  0  0  0  0  0  0  0  0  0  0
    0.9205   -2.3194    1.5822 H   0  0  0  0  0  0  0  0  0  0  0  0
    2.2223   -1.8184    3.1968 C   0  0  0  0  0  0  0  0  0  0  0  0
    2.1689   -1.0005    3.9230 H   0  0  0  0  0  0  0  0  0  0  0  0
    1.8886   -2.7371    3.6886 H   0  0  0  0  0  0  0  0  0  0  0  0
    3.2646   -1.9482    2.8872 H   0  0  0  0  0  0  0  0  0  0  0  0
  1  2  1  0  0  0  0
  2  3  1  0  0  0  0
  2  4  1  0  0  0  0
  2  5  1  0  0  0  0
  5  6  2  0  0  0  0
  5  7  1  0  0  0  0
  7  8  1  0  0  0  0
  7 17  1  0  0  0  0
  8  9  1  0  0  0  0
  8 10  1  0  0  0  0
  8 11  1  0  0  0  0
 11 12  1  0  0  0  0
 11 13  1  0  0  0  0
 11 14  1  0  0  0  0
 14 15  1  0  0  0  0
 14 16  1  0  0  0  0
 14 17  1  0  0  0  0
 17 18  1  0  0  0  0
 17 19  1  0  0  0  0
 19 20  2  0  0  0  0
 19 21  1  0  0  0  0
 21 22  1  0  0  0  0
 21 23  1  0  0  0  0
 23 24  1  0  0  0  0
 23 25  1  0  0  0  0
 23 26  1  0  0  0  0
M  END
$$$$

  -OEChem-11182114133D

 26 26  0     1  0  0  0  0  0999 V2000
   -1.7067   -4.1885   -0.5281 H   0  0  0  0  0  0  0  0  0  0  0  0
   -1.8903   -3.1211   -0.3758 C   0  0  0  0  0  0  0  0  0  0  0  0
   -2.4569   -2.9931    0.5497 H   0  0  0  0  0  0  0  0  0  0  0  0
   -2.4817   -2.7472   -1.2150 H   0  0  0  0  0  0  0  0  0  0  0  0
   -0.5699   -2.3676   -0.2882 C   0  0  0  0  0  0  0  0  0  0  0  0
    0.4653   -3.0180   -0.3142 O   0  0  0  0  0  0  0  0  0  0  0  0
   -0.5155   -0.9779   -0.2141 N   0  0  0  0  0  0  0  0  0  0  0  0
   -1.7248   -0.1662   -0.1747 C   0  0  0  0  0  0  0  0  0  0  0  0
   -2.4736   -0.5592    0.5209 H   0  0  0  0  0  0  0  0  0  0  0  0
   -2.1672   -0.0980   -1.1743 H   0  0  0  0  0  0  0  0  0  0  0  0
   -1.2415    1.1979    0.2884 C   0  0  0  0  0  0  0  0  0  0  0  0
   -1.2847    1.2565    1.3811 H   0  0  0  0  0  0  0  0  0  0  0  0
   -1.8422    2.0116   -0.1298 H   0  0  0  0  0  0  0  0  0  0  0  0
    0.2070    1.2596   -0.1710 C   0  0  0  0  0  0  0  0  0  0  0  0
    0.7843    1.9845    0.4113 H   0  0  0  0  0  0  0  0  0  0  0  0
    0.2461    1.5692   -1.2204 H   0  0  0  0  0  0  0  0  0  0  0  0
    0.7236   -0.1850   -0.0508 C   0  0  1  0  0  0  0  0  0  0  0  0
    1.3898   -0.3902   -0.8947 H   0  0  0  0  0  0  0  0  0  0  0  0
    1.5720   -0.4395    1.2305 C   0  0  0  0  0  0  0  0  0  0  0  0
    2.2264    0.4696    1.7286 O   0  0  0  0  0  0  0  0  0  0  0  0
    1.6076   -1.6699    1.8600 N   0  0  0  0  0  0  0  0  0  0  0  0
    1.2420   -2.4484    1.3085 H   0  0  0  0  0  0  0  0  0  0  0  0
    2.4807   -1.9720    2.9869 C   0  0  0  0  0  0  0  0  0  0  0  0
    2.2557   -1.3151    3.8334 H   0  0  0  0  0  0  0  0  0  0  0  0
    2.3358   -3.0081    3.3072 H   0  0  0  0  0  0  0  0  0  0  0  0
    3.5305   -1.8388    2.7055 H   0  0  0  0  0  0  0  0  0  0  0  0
  1  2  1  0  0  0  0
  2  3  1  0  0  0  0
  2  4  1  0  0  0  0
  2  5  1  0  0  0  0
  5  6  2  0  0  0  0
  5  7  1  0  0  0  0
  7  8  1  0  0  0  0
  7 17  1  0  0  0  0
  8  9  1  0  0  0  0
  8 10  1  0  0  0  0
  8 11  1  0  0  0  0
 11 12  1  0  0  0  0
 11 13  1  0  0  0  0
 11 14  1  0  0  0  0
 14 15  1  0  0  0  0
 14 16  1  0  0  0  0
 14 17  1  0  0  0  0
 17 18  1  0  0  0  0
 17 19  1  0  0  0  0
 19 20  2  0  0  0  0
 19 21  1  0  0  0  0
 21 22  1  0  0  0  0
 21 23  1  0  0  0  0
 23 24  1  0  0  0  0
 23 25  1  0  0  0  0
 23 26  1  0  0  0  0
M  END
$$$$

  -OEChem-11182114133D

 26 26  0     1  0  0  0  0  0999 V2000
   -1.6832   -4.1914   -0.4953 H   0  0  0  0  0  0  0  0  0  0  0  0
   -1.8670   -3.1257   -0.3320 C   0  0  0  0  0  0  0  0  0  0  0  0
   -2.3908   -3.0041    0.6191 H   0  0  0  0  0  0  0  0  0  0  0  0
   -2.4998   -2.7547   -1.1419 H   0  0  0  0  0  0  0  0  0  0  0  0
   -0.5494   -2.3629   -0.3032 C   0  0  0  0  0  0  0  0  0  0  0  0
    0.4867   -3.0046   -0.4086 O   0  0  0  0  0  0  0  0  0  0  0  0
   -0.5024   -0.9731   -0.2219 N   0  0  0  0  0  0  0  0  0  0  0  0
   -1.7164   -0.1692   -0.1592 C   0  0  0  0  0  0  0  0  0  0  0  0
   -2.4500   -0.5680    0.5492 H   0  0  0  0  0  0  0  0  0  0  0  0
   -2.1771   -0.1019   -1.1506 H   0  0  0  0  0  0  0  0  0  0  0  0
   -1.2335    1.1964    0.2984 C   0  0  0  0  0  0  0  0  0  0  0  0
   -1.2594    1.2530    1.3919 H   0  0  0  0  0  0  0  0  0  0  0  0
   -1.8459    2.0071   -0.1081 H   0  0  0  0  0  0  0  0  0  0  0  0
    0.2074    1.2691   -0.1830 C   0  0  0  0  0  0  0  0  0  0  0  0
    0.7903    1.9986    0.3877 H   0  0  0  0  0  0  0  0  0  0  0  0
    0.2262    1.5789   -1.2328 H   0  0  0  0  0  0  0  0  0  0  0  0
    0.7340   -0.1734   -0.0739 C   0  0  1  0  0  0  0  0  0  0  0  0
    1.3914   -0.3698   -0.9265 H   0  0  0  0  0  0  0  0  0  0  0  0
    1.5921   -0.4434    1.1993 C   0  0  0  0  0  0  0  0  0  0  0  0
    2.0467    0.4847    1.8589 O   0  0  0  0  0  0  0  0  0  0  0  0
    1.8752   -1.7245    1.6337 N   0  0  0  0  0  0  0  0  0  0  0  0
    1.5735   -2.4842    1.0192 H   0  0  0  0  0  0  0  0  0  0  0  0
    2.7301   -2.0344    2.7721 C   0  0  0  0  0  0  0  0  0  0  0  0
    2.3113   -1.6128    3.6917 H   0  0  0  0  0  0  0  0  0  0  0  0
    2.8132   -3.1185    2.8954 H   0  0  0  0  0  0  0  0  0  0  0  0
    3.7342   -1.6249    2.6207 H   0  0  0  0  0  0  0  0  0  0  0  0
  1  2  1  0  0  0  0
  2  3  1  0  0  0  0
  2  4  1  0  0  0  0
  2  5  1  0  0  0  0
  5  6  2  0  0  0  0
  5  7  1  0  0  0  0
  7  8  1  0  0  0  0
  7 17  1  0  0  0  0
  8  9  1  0  0  0  0
  8 10  1  0  0  0  0
  8 11  1  0  0  0  0
 11 12  1  0  0  0  0
 11 13  1  0  0  0  0
 11 14  1  0  0  0  0
 14 15  1  0  0  0  0
 14 16  1  0  0  0  0
 14 17  1  0  0  0  0
 17 18  1  0  0  0  0
 17 19  1  0  0  0  0
 19 20  2  0  0  0  0
 19 21  1  0  0  0  0
 21 22  1  0  0  0  0
 21 23  1  0  0  0  0
 23 24  1  0  0  0  0
 23 25  1  0  0  0  0
 23 26  1  0  0  0  0
M  END
$$$$

  -OEChem-11182114133D

 26 26  0     1  0  0  0  0  0999 V2000
   -1.6165   -4.2033   -0.4271 H   0  0  0  0  0  0  0  0  0  0  0  0
   -1.8131   -3.1375   -0.2805 C   0  0  0  0  0  0  0  0  0  0  0  0
   -2.3129   -3.0051    0.6820 H   0  0  0  0  0  0  0  0  0  0  0  0
   -2.4733   -2.7921   -1.0797 H   0  0  0  0  0  0  0  0  0  0  0  0
   -0.5076   -2.3541   -0.3031 C   0  0  0  0  0  0  0  0  0  0  0  0
    0.5338   -2.9784   -0.4533 O   0  0  0  0  0  0  0  0  0  0  0  0
   -0.4804   -0.9634   -0.2287 N   0  0  0  0  0  0  0  0  0  0  0  0
   -1.7010   -0.1739   -0.1241 C   0  0  0  0  0  0  0  0  0  0  0  0
   -2.4060   -0.5820    0.6075 H   0  0  0  0  0  0  0  0  0  0  0  0
   -2.1951   -0.1099   -1.0994 H   0  0  0  0  0  0  0  0  0  0  0  0
   -1.2175    1.1962    0.3211 C   0  0  0  0  0  0  0  0  0  0  0  0
   -1.2069    1.2498    1.4151 H   0  0  0  0  0  0  0  0  0  0  0  0
   -1.8522    2.0012   -0.0618 H   0  0  0  0  0  0  0  0  0  0  0  0
    0.2065    1.2867   -0.2073 C   0  0  0  0  0  0  0  0  0  0  0  0
    0.8042    2.0182    0.3458 H   0  0  0  0  0  0  0  0  0  0  0  0
    0.1871    1.5993   -1.2563 H   0  0  0  0  0  0  0  0  0  0  0  0
    0.7492   -0.1500   -0.1189 C   0  0  1  0  0  0  0  0  0  0  0  0
    1.3881   -0.3362   -0.9878 H   0  0  0  0  0  0  0  0  0  0  0  0
    1.6285   -0.4228    1.1369 C   0  0  0  0  0  0  0  0  0  0  0  0
    1.8650    0.4626    1.9516 O   0  0  0  0  0  0  0  0  0  0  0  0
    2.1679   -1.6717    1.3769 N   0  0  0  0  0  0  0  0  0  0  0  0
    1.8893   -2.4142    0.7302 H   0  0  0  0  0  0  0  0  0  0  0  0
    2.9432   -2.0178    2.5606 C   0  0  0  0  0  0  0  0  0  0  0  0
    2.3354   -1.9010    3.4637 H   0  0  0  0  0  0  0  0  0  0  0  0
    3.2782   -3.0577    2.4993 H   0  0  0  0  0  0  0  0  0  0  0  0
    3.8259   -1.3753    2.6424 H   0  0  0  0  0  0  0  0  0  0  0  0
  1  2  1  0  0  0  0
  2  3  1  0  0  0  0
  2  4  1  0  0  0  0
  2  5  1  0  0  0  0
  5  6  2  0  0  0  0
  5  7  1  0  0  0  0
  7  8  1  0  0  0  0
  7 17  1  0  0  0  0
  8  9  1  0  0  0  0
  8 10  1  0  0  0  0
  8 11  1  0  0  0  0
 11 12  1  0  0  0  0
 11 13  1  0  0  0  0
 11 14  1  0  0  0  0
 14 15  1  0  0  0  0
 14 16  1  0  0  0  0
 14 17  1  0  0  0  0
 17 18  1  0  0  0  0
 17 19  1  0  0  0  0
 19 20  2  0  0  0  0
 19 21  1  0  0  0  0
 21 22  1  0  0  0  0
 21 23  1  0  0  0  0
 23 24  1  0  0  0  0
 23 25  1  0  0  0  0
 23 26  1  0  0  0  0
M  END
$$$$

  -OEChem-11182114133D

 26 26  0     1  0  0  0  0  0999 V2000
   -1.5352   -4.2131   -0.3848 H   0  0  0  0  0  0  0  0  0  0  0  0
   -1.7523   -3.1500   -0.2473 C   0  0  0  0  0  0  0  0  0  0  0  0
   -2.2457   -3.0175    0.7184 H   0  0  0  0  0  0  0  0  0  0  0  0
   -2.4266   -2.8259   -1.0435 H   0  0  0  0  0  0  0  0  0  0  0  0
   -0.4637   -2.3405   -0.2906 C   0  0  0  0  0  0  0  0  0  0  0  0
    0.5925   -2.9415   -0.4378 O   0  0  0  0  0  0  0  0  0  0  0  0
   -0.4654   -0.9490   -0.2358 N   0  0  0  0  0  0  0  0  0  0  0  0
   -1.6916   -0.1730   -0.1063 C   0  0  0  0  0  0  0  0  0  0  0  0
   -2.3780   -0.5899    0.6380 H   0  0  0  0  0  0  0  0  0  0  0  0
   -2.2052   -0.1114   -1.0717 H   0  0  0  0  0  0  0  0  0  0  0  0
   -1.2096    1.2009    0.3324 C   0  0  0  0  0  0  0  0  0  0  0  0
   -1.1776    1.2511    1.4262 H   0  0  0  0  0  0  0  0  0  0  0  0
   -1.8581    2.0020   -0.0348 H   0  0  0  0  0  0  0  0  0  0  0  0
    0.2036    1.3040   -0.2248 C   0  0  0  0  0  0  0  0  0  0  0  0
    0.8102    2.0324    0.3232 H   0  0  0  0  0  0  0  0  0  0  0  0
    0.1624    1.6222   -1.2715 H   0  0  0  0  0  0  0  0  0  0  0  0
    0.7567   -0.1277   -0.1499 C   0  0  1  0  0  0  0  0  0  0  0  0
    1.3896   -0.3077   -1.0245 H   0  0  0  0  0  0  0  0  0  0  0  0
    1.6303   -0.3986    1.1064 C   0  0  0  0  0  0  0  0  0  0  0  0
    1.6738    0.3982    2.0378 O   0  0  0  0  0  0  0  0  0  0  0  0
    2.4035   -1.5407    1.1848 N   0  0  0  0  0  0  0  0  0  0  0  0
    2.1697   -2.2693    0.5054 H   0  0  0  0  0  0  0  0  0  0  0  0
    3.1646   -1.9152    2.3693 C   0  0  0  0  0  0  0  0  0  0  0  0
    2.4948   -2.0761    3.2205 H   0  0  0  0  0  0  0  0  0  0  0  0
    3.7189   -2.8399    2.1825 H   0  0  0  0  0  0  0  0  0  0  0  0
    3.8829   -1.1303    2.6284 H   0  0  0  0  0  0  0  0  0  0  0  0
  1  2  1  0  0  0  0
  2  3  1  0  0  0  0
  2  4  1  0  0  0  0
  2  5  1  0  0  0  0
  5  6  2  0  0  0  0
  5  7  1  0  0  0  0
  7  8  1  0  0  0  0
  7 17  1  0  0  0  0
  8  9  1  0  0  0  0
  8 10  1  0  0  0  0
  8 11  1  0  0  0  0
 11 12  1  0  0  0  0
 11 13  1  0  0  0  0
 11 14  1  0  0  0  0
 14 15  1  0  0  0  0
 14 16  1  0  0  0  0
 14 17  1  0  0  0  0
 17 18  1  0  0  0  0
 17 19  1  0  0  0  0
 19 20  2  0  0  0  0
 19 21  1  0  0  0  0
 21 22  1  0  0  0  0
 21 23  1  0  0  0  0
 23 24  1  0  0  0  0
 23 25  1  0  0  0  0
 23 26  1  0  0  0  0
M  END
$$$$

  -OEChem-11182114133D

 26 26  0     1  0  0  0  0  0999 V2000
   -1.4620   -4.2176   -0.3693 H   0  0  0  0  0  0  0  0  0  0  0  0
   -1.7000   -3.1598   -0.2257 C   0  0  0  0  0  0  0  0  0  0  0  0
   -2.1860   -3.0399    0.7454 H   0  0  0  0  0  0  0  0  0  0  0  0
   -2.3891   -2.8468   -1.0137 H   0  0  0  0  0  0  0  0  0  0  0  0
   -0.4291   -2.3239   -0.2789 C   0  0  0  0  0  0  0  0  0  0  0  0
    0.6443   -2.8995   -0.4105 O   0  0  0  0  0  0  0  0  0  0  0  0
   -0.4603   -0.9328   -0.2436 N   0  0  0  0  0  0  0  0  0  0  0  0
   -1.6907   -0.1674   -0.1001 C   0  0  0  0  0  0  0  0  0  0  0  0
   -2.3653   -0.5907    0.6514 H   0  0  0  0  0  0  0  0  0  0  0  0
   -2.2153   -0.1083   -1.0596 H   0  0  0  0  0  0  0  0  0  0  0  0
   -1.2092    1.2084    0.3363 C   0  0  0  0  0  0  0  0  0  0  0  0
   -1.1669    1.2572    1.4299 H   0  0  0  0  0  0  0  0  0  0  0  0
   -1.8648    2.0073   -0.0233 H   0  0  0  0  0  0  0  0  0  0  0  0
    0.1990    1.3183   -0.2362 C   0  0  0  0  0  0  0  0  0  0  0  0
    0.8108    2.0408    0.3143 H   0  0  0  0  0  0  0  0  0  0  0  0
    0.1483    1.6424   -1.2806 H   0  0  0  0  0  0  0  0  0  0  0  0
    0.7571   -0.1101   -0.1698 C   0  0  1  0  0  0  0  0  0  0  0  0
    1.3912   -0.2868   -1.0442 H   0  0  0  0  0  0  0  0  0  0  0  0
    1.6125   -0.3822    1.0943 C   0  0  0  0  0  0  0  0  0  0  0  0
    1.4833    0.2919    2.1111 O   0  0  0  0  0  0  0  0  0  0  0  0
    2.5959   -1.3520    1.0527 N   0  0  0  0  0  0  0  0  0  0  0  0
    2.4630   -2.0522    0.3202 H   0  0  0  0  0  0  0  0  0  0  0  0
    3.3783   -1.7300    2.2223 C   0  0  0  0  0  0  0  0  0  0  0  0
    2.7270   -2.1333    3.0047 H   0  0  0  0  0  0  0  0  0  0  0  0
    4.1129   -2.4945    1.9521 H   0  0  0  0  0  0  0  0  0  0  0  0
    3.9154   -0.8632    2.6216 H   0  0  0  0  0  0  0  0  0  0  0  0
  1  2  1  0  0  0  0
  2  3  1  0  0  0  0
  2  4  1  0  0  0  0
  2  5  1  0  0  0  0
  5  6  2  0  0  0  0
  5  7  1  0  0  0  0
  7  8  1  0  0  0  0
  7 17  1  0  0  0  0
  8  9  1  0  0  0  0
  8 10  1  0  0  0  0
  8 11  1  0  0  0  0
 11 12  1  0  0  0  0
 11 13  1  0  0  0  0
 11 14  1  0  0  0  0
 14 15  1  0  0  0  0
 14 16  1  0  0  0  0
 14 17  1  0  0  0  0
 17 18  1  0  0  0  0
 17 19  1  0  0  0  0
 19 20  2  0  0  0  0
 19 21  1  0  0  0  0
 21 22  1  0  0  0  0
 21 23  1  0  0  0  0
 23 24  1  0  0  0  0
 23 25  1  0  0  0  0
 23 26  1  0  0  0  0
M  END
$$$$

  -OEChem-11182114133D

 26 26  0     1  0  0  0  0  0999 V2000
   -1.4276   -4.2209   -0.3322 H   0  0  0  0  0  0  0  0  0  0  0  0
   -1.6785   -3.1632   -0.2131 C   0  0  0  0  0  0  0  0  0  0  0  0
   -2.1697   -3.0272    0.7534 H   0  0  0  0  0  0  0  0  0  0  0  0
   -2.3674   -2.8748   -1.0106 H   0  0  0  0  0  0  0  0  0  0  0  0
   -0.4177   -2.3141   -0.2793 C   0  0  0  0  0  0  0  0  0  0  0  0
    0.6644   -2.8747   -0.4055 O   0  0  0  0  0  0  0  0  0  0  0  0
   -0.4647   -0.9240   -0.2549 N   0  0  0  0  0  0  0  0  0  0  0  0
   -1.6959   -0.1627   -0.1007 C   0  0  0  0  0  0  0  0  0  0  0  0
   -2.3651   -0.5911    0.6527 H   0  0  0  0  0  0  0  0  0  0  0  0
   -2.2263   -0.0989   -1.0565 H   0  0  0  0  0  0  0  0  0  0  0  0
   -1.2112    1.2109    0.3408 C   0  0  0  0  0  0  0  0  0  0  0  0
   -1.1648    1.2537    1.4344 H   0  0  0  0  0  0  0  0  0  0  0  0
   -1.8681    2.0118   -0.0116 H   0  0  0  0  0  0  0  0  0  0  0  0
    0.1946    1.3232   -0.2393 C   0  0  0  0  0  0  0  0  0  0  0  0
    0.8108    2.0366    0.3181 H   0  0  0  0  0  0  0  0  0  0  0  0
    0.1405    1.6568   -1.2805 H   0  0  0  0  0  0  0  0  0  0  0  0
    0.7521   -0.1046   -0.1843 C   0  0  1  0  0  0  0  0  0  0  0  0
    1.3851   -0.2790   -1.0599 H   0  0  0  0  0  0  0  0  0  0  0  0
    1.5967   -0.3764    1.0848 C   0  0  0  0  0  0  0  0  0  0  0  0
    1.3032    0.1288    2.1635 O   0  0  0  0  0  0  0  0  0  0  0  0
    2.7626   -1.1109    0.9774 N   0  0  0  0  0  0  0  0  0  0  0  0
    2.8047   -1.7223    0.1633 H   0  0  0  0  0  0  0  0  0  0  0  0
    3.5721   -1.4661    2.1359 C   0  0  0  0  0  0  0  0  0  0  0  0
    2.9983   -2.0933    2.8261 H   0  0  0  0  0  0  0  0  0  0  0  0
    4.4610   -2.0198    1.8187 H   0  0  0  0  0  0  0  0  0  0  0  0
    3.8998   -0.5660    2.6665 H   0  0  0  0  0  0  0  0  0  0  0  0
  1  2  1  0  0  0  0
  2  3  1  0  0  0  0
  2  4  1  0  0  0  0
  2  5  1  0  0  0  0
  5  6  2  0  0  0  0
  5  7  1  0  0  0  0
  7  8  1  0  0  0  0
  7 17  1  0  0  0  0
  8  9  1  0  0  0  0
  8 10  1  0  0  0  0
  8 11  1  0  0  0  0
 11 12  1  0  0  0  0
 11 13  1  0  0  0  0
 11 14  1  0  0  0  0
 14 15  1  0  0  0  0
 14 16  1  0  0  0  0
 14 17  1  0  0  0  0
 17 18  1  0  0  0  0
 17 19  1  0  0  0  0
 19 20  2  0  0  0  0
 19 21  1  0  0  0  0
 21 22  1  0  0  0  0
 21 23  1  0  0  0  0
 23 24  1  0  0  0  0
 23 25  1  0  0  0  0
 23 26  1  0  0  0  0
M  END
$$$$

  -OEChem-11182114133D

 26 26  0     1  0  0  0  0  0999 V2000
   -1.4214   -4.2221   -0.3369 H   0  0  0  0  0  0  0  0  0  0  0  0
   -1.6748   -3.1675   -0.1979 C   0  0  0  0  0  0  0  0  0  0  0  0
   -2.1471   -3.0472    0.7799 H   0  0  0  0  0  0  0  0  0  0  0  0
   -2.3805   -2.8716   -0.9777 H   0  0  0  0  0  0  0  0  0  0  0  0
   -0.4186   -2.3124   -0.2765 C   0  0  0  0  0  0  0  0  0  0  0  0
    0.6649   -2.8688   -0.4057 O   0  0  0  0  0  0  0  0  0  0  0  0
   -0.4703   -0.9225   -0.2636 N   0  0  0  0  0  0  0  0  0  0  0  0
   -1.7011   -0.1614   -0.1046 C   0  0  0  0  0  0  0  0  0  0  0  0
   -2.3679   -0.5912    0.6502 H   0  0  0  0  0  0  0  0  0  0  0  0
   -2.2345   -0.0960   -1.0588 H   0  0  0  0  0  0  0  0  0  0  0  0
   -1.2139    1.2113    0.3378 C   0  0  0  0  0  0  0  0  0  0  0  0
   -1.1660    1.2529    1.4313 H   0  0  0  0  0  0  0  0  0  0  0  0
   -1.8711    2.0130   -0.0122 H   0  0  0  0  0  0  0  0  0  0  0  0
    0.1912    1.3230   -0.2462 C   0  0  0  0  0  0  0  0  0  0  0  0
    0.8095    2.0326    0.3138 H   0  0  0  0  0  0  0  0  0  0  0  0
    0.1355    1.6599   -1.2864 H   0  0  0  0  0  0  0  0  0  0  0  0
    0.7470   -0.1045   -0.1951 C   0  0  1  0  0  0  0  0  0  0  0  0
    1.3779   -0.2826   -1.0713 H   0  0  0  0  0  0  0  0  0  0  0  0
    1.5900   -0.3640    1.0769 C   0  0  0  0  0  0  0  0  0  0  0  0
    1.1588   -0.0739    2.1883 O   0  0  0  0  0  0  0  0  0  0  0  0
    2.8915   -0.8158    0.9552 N   0  0  0  0  0  0  0  0  0  0  0  0
    3.1238   -1.2445    0.0628 H   0  0  0  0  0  0  0  0  0  0  0  0
    3.7133   -1.1555    2.1099 C   0  0  0  0  0  0  0  0  0  0  0  0
    3.2570   -1.9737    2.6767 H   0  0  0  0  0  0  0  0  0  0  0  0
    4.7088   -1.4710    1.7838 H   0  0  0  0  0  0  0  0  0  0  0  0
    3.8267   -0.2891    2.7699 H   0  0  0  0  0  0  0  0  0  0  0  0
  1  2  1  0  0  0  0
  2  3  1  0  0  0  0
  2  4  1  0  0  0  0
  2  5  1  0  0  0  0
  5  6  2  0  0  0  0
  5  7  1  0  0  0  0
  7  8  1  0  0  0  0
  7 17  1  0  0  0  0
  8  9  1  0  0  0  0
  8 10  1  0  0  0  0
  8 11  1  0  0  0  0
 11 12  1  0  0  0  0
 11 13  1  0  0  0  0
 11 14  1  0  0  0  0
 14 15  1  0  0  0  0
 14 16  1  0  0  0  0
 14 17  1  0  0  0  0
 17 18  1  0  0  0  0
 17 19  1  0  0  0  0
 19 20  2  0  0  0  0
 19 21  1  0  0  0  0
 21 22  1  0  0  0  0
 21 23  1  0  0  0  0
 23 24  1  0  0  0  0
 23 25  1  0  0  0  0
 23 26  1  0  0  0  0
M  END
$$$$

  -OEChem-11182114133D

 26 26  0     1  0  0  0  0  0999 V2000
   -1.4321   -4.2240   -0.3248 H   0  0  0  0  0  0  0  0  0  0  0  0
   -1.6817   -3.1683   -0.1864 C   0  0  0  0  0  0  0  0  0  0  0  0
   -2.1442   -3.0436    0.7959 H   0  0  0  0  0  0  0  0  0  0  0  0
   -2.3945   -2.8732   -0.9598 H   0  0  0  0  0  0  0  0  0  0  0  0
   -0.4245   -2.3160   -0.2804 C   0  0  0  0  0  0  0  0  0  0  0  0
    0.6562   -2.8748   -0.4198 O   0  0  0  0  0  0  0  0  0  0  0  0
   -0.4749   -0.9260   -0.2759 N   0  0  0  0  0  0  0  0  0  0  0  0
   -1.7040   -0.1634   -0.1134 C   0  0  0  0  0  0  0  0  0  0  0  0
   -2.3712   -0.5950    0.6398 H   0  0  0  0  0  0  0  0  0  0  0  0
   -2.2375   -0.0932   -1.0670 H   0  0  0  0  0  0  0  0  0  0  0  0
   -1.2133    1.2058    0.3349 C   0  0  0  0  0  0  0  0  0  0  0  0
   -1.1659    1.2409    1.4287 H   0  0  0  0  0  0  0  0  0  0  0  0
   -1.8690    2.0105   -0.0112 H   0  0  0  0  0  0  0  0  0  0  0  0
    0.1926    1.3176   -0.2474 C   0  0  0  0  0  0  0  0  0  0  0  0
    0.8125    2.0228    0.3165 H   0  0  0  0  0  0  0  0  0  0  0  0
    0.1383    1.6587   -1.2862 H   0  0  0  0  0  0  0  0  0  0  0  0
    0.7440   -0.1109   -0.2021 C   0  0  1  0  0  0  0  0  0  0  0  0
    1.3771   -0.2932   -1.0757 H   0  0  0  0  0  0  0  0  0  0  0  0
    1.5813   -0.3602    1.0754 C   0  0  0  0  0  0  0  0  0  0  0  0
    1.0619   -0.3095    2.1857 O   0  0  0  0  0  0  0  0  0  0  0  0
    2.9537   -0.5078    0.9813 N   0  0  0  0  0  0  0  0  0  0  0  0
    3.3229   -0.7026    0.0552 H   0  0  0  0  0  0  0  0  0  0  0  0
    3.7924   -0.8082    2.1349 C   0  0  0  0  0  0  0  0  0  0  0  0
    3.5052   -1.7684    2.5764 H   0  0  0  0  0  0  0  0  0  0  0  0
    4.8429   -0.8641    1.8338 H   0  0  0  0  0  0  0  0  0  0  0  0
    3.6940   -0.0266    2.8955 H   0  0  0  0  0  0  0  0  0  0  0  0
  1  2  1  0  0  0  0
  2  3  1  0  0  0  0
  2  4  1  0  0  0  0
  2  5  1  0  0  0  0
  5  6  2  0  0  0  0
  5  7  1  0  0  0  0
  7  8  1  0  0  0  0
  7 17  1  0  0  0  0
  8  9  1  0  0  0  0
  8 10  1  0  0  0  0
  8 11  1  0  0  0  0
 11 12  1  0  0  0  0
 11 13  1  0  0  0  0
 11 14  1  0  0  0  0
 14 15  1  0  0  0  0
 14 16  1  0  0  0  0
 14 17  1  0  0  0  0
 17 18  1  0  0  0  0
 17 19  1  0  0  0  0
 19 20  2  0  0  0  0
 19 21  1  0  0  0  0
 21 22  1  0  0  0  0
 21 23  1  0  0  0  0
 23 24  1  0  0  0  0
 23 25  1  0  0  0  0
 23 26  1  0  0  0  0
M  END
$$$$

  -OEChem-11182114133D

 26 26  0     1  0  0  0  0  0999 V2000
   -1.4450   -4.2278   -0.3044 H   0  0  0  0  0  0  0  0  0  0  0  0
   -1.6920   -3.1698   -0.1802 C   0  0  0  0  0  0  0  0  0  0  0  0
   -2.1504   -3.0307    0.8019 H   0  0  0  0  0  0  0  0  0  0  0  0
   -2.4065   -2.8833   -0.9555 H   0  0  0  0  0  0  0  0  0  0  0  0
   -0.4331   -2.3217   -0.2889 C   0  0  0  0  0  0  0  0  0  0  0  0
    0.6427   -2.8846   -0.4483 O   0  0  0  0  0  0  0  0  0  0  0  0
   -0.4792   -0.9313   -0.2885 N   0  0  0  0  0  0  0  0  0  0  0  0
   -1.7053   -0.1651   -0.1236 C   0  0  0  0  0  0  0  0  0  0  0  0
   -2.3755   -0.5979    0.6263 H   0  0  0  0  0  0  0  0  0  0  0  0
   -2.2365   -0.0870   -1.0780 H   0  0  0  0  0  0  0  0  0  0  0  0
   -1.2089    1.1986    0.3342 C   0  0  0  0  0  0  0  0  0  0  0  0
   -1.1634    1.2257    1.4285 H   0  0  0  0  0  0  0  0  0  0  0  0
   -1.8602    2.0085   -0.0082 H   0  0  0  0  0  0  0  0  0  0  0  0
    0.1990    1.3086   -0.2425 C   0  0  0  0  0  0  0  0  0  0  0  0
    0.8190    2.0089    0.3274 H   0  0  0  0  0  0  0  0  0  0  0  0
    0.1493    1.6557   -1.2796 H   0  0  0  0  0  0  0  0  0  0  0  0
    0.7437   -0.1225   -0.2044 C   0  0  1  0  0  0  0  0  0  0  0  0
    1.3830   -0.3071   -1.0730 H   0  0  0  0  0  0  0  0  0  0  0  0
    1.5721   -0.3677    1.0799 C   0  0  0  0  0  0  0  0  0  0  0  0
    1.0211   -0.5485    2.1613 O   0  0  0  0  0  0  0  0  0  0  0  0
    2.9467   -0.2111    1.0478 N   0  0  0  0  0  0  0  0  0  0  0  0
    3.3808   -0.1668    0.1309 H   0  0  0  0  0  0  0  0  0  0  0  0
    3.7965   -0.4482    2.2080 C   0  0  0  0  0  0  0  0  0  0  0  0
    3.7193   -1.4917    2.5312 H   0  0  0  0  0  0  0  0  0  0  0  0
    4.8411   -0.2372    1.9603 H   0  0  0  0  0  0  0  0  0  0  0  0
    3.5023    0.2014    3.0391 H   0  0  0  0  0  0  0  0  0  0  0  0
  1  2  1  0  0  0  0
  2  3  1  0  0  0  0
  2  4  1  0  0  0  0
  2  5  1  0  0  0  0
  5  6  2  0  0  0  0
  5  7  1  0  0  0  0
  7  8  1  0  0  0  0
  7 17  1  0  0  0  0
  8  9  1  0  0  0  0
  8 10  1  0  0  0  0
  8 11  1  0  0  0  0
 11 12  1  0  0  0  0
 11 13  1  0  0  0  0
 11 14  1  0  0  0  0
 14 15  1  0  0  0  0
 14 16  1  0  0  0  0
 14 17  1  0  0  0  0
 17 18  1  0  0  0  0
 17 19  1  0  0  0  0
 19 20  2  0  0  0  0
 19 21  1  0  0  0  0
 21 22  1  0  0  0  0
 21 23  1  0  0  0  0
 23 24  1  0  0  0  0
 23 25  1  0  0  0  0
 23 26  1  0  0  0  0
M  END
$$$$

  -OEChem-11182114133D

 26 26  0     1  0  0  0  0  0999 V2000
   -1.4592   -4.2292   -0.3012 H   0  0  0  0  0  0  0  0  0  0  0  0
   -1.6999   -3.1705   -0.1711 C   0  0  0  0  0  0  0  0  0  0  0  0
   -2.1354   -3.0306    0.8212 H   0  0  0  0  0  0  0  0  0  0  0  0
   -2.4302   -2.8811   -0.9301 H   0  0  0  0  0  0  0  0  0  0  0  0
   -0.4407   -2.3267   -0.3056 C   0  0  0  0  0  0  0  0  0  0  0  0
    0.6278   -2.8940   -0.4949 O   0  0  0  0  0  0  0  0  0  0  0  0
   -0.4814   -0.9357   -0.3021 N   0  0  0  0  0  0  0  0  0  0  0  0
   -1.7049   -0.1663   -0.1355 C   0  0  0  0  0  0  0  0  0  0  0  0
   -2.3804   -0.6011    0.6086 H   0  0  0  0  0  0  0  0  0  0  0  0
   -2.2324   -0.0792   -1.0910 H   0  0  0  0  0  0  0  0  0  0  0  0
   -1.2039    1.1912    0.3331 C   0  0  0  0  0  0  0  0  0  0  0  0
   -1.1631    1.2101    1.4276 H   0  0  0  0  0  0  0  0  0  0  0  0
   -1.8500    2.0065   -0.0062 H   0  0  0  0  0  0  0  0  0  0  0  0
    0.2070    1.2989   -0.2361 C   0  0  0  0  0  0  0  0  0  0  0  0
    0.8251    1.9955    0.3400 H   0  0  0  0  0  0  0  0  0  0  0  0
    0.1627    1.6521   -1.2714 H   0  0  0  0  0  0  0  0  0  0  0  0
    0.7469   -0.1348   -0.2058 C   0  0  1  0  0  0  0  0  0  0  0  0
    1.3912   -0.3189   -1.0711 H   0  0  0  0  0  0  0  0  0  0  0  0
    1.5705   -0.3819    1.0828 C   0  0  0  0  0  0  0  0  0  0  0  0
    1.0379   -0.7893    2.1104 O   0  0  0  0  0  0  0  0  0  0  0  0
    2.8803    0.0619    1.1486 N   0  0  0  0  0  0  0  0  0  0  0  0
    3.3187    0.3406    0.2763 H   0  0  0  0  0  0  0  0  0  0  0  0
    3.7184   -0.1067    2.3296 C   0  0  0  0  0  0  0  0  0  0  0  0
    3.8580   -1.1702    2.5505 H   0  0  0  0  0  0  0  0  0  0  0  0
    4.7007    0.3455    2.1634 H   0  0  0  0  0  0  0  0  0  0  0  0
    3.2601    0.3769    3.1988 H   0  0  0  0  0  0  0  0  0  0  0  0
  1  2  1  0  0  0  0
  2  3  1  0  0  0  0
  2  4  1  0  0  0  0
  2  5  1  0  0  0  0
  5  6  2  0  0  0  0
  5  7  1  0  0  0  0
  7  8  1  0  0  0  0
  7 17  1  0  0  0  0
  8  9  1  0  0  0  0
  8 10  1  0  0  0  0
  8 11  1  0  0  0  0
 11 12  1  0  0  0  0
 11 13  1  0  0  0  0
 11 14  1  0  0  0  0
 14 15  1  0  0  0  0
 14 16  1  0  0  0  0
 14 17  1  0  0  0  0
 17 18  1  0  0  0  0
 17 19  1  0  0  0  0
 19 20  2  0  0  0  0
 19 21  1  0  0  0  0
 21 22  1  0  0  0  0
 21 23  1  0  0  0  0
 23 24  1  0  0  0  0
 23 25  1  0  0  0  0
 23 26  1  0  0  0  0
M  END
$$$$

  -OEChem-11182114133D

 26 26  0     1  0  0  0  0  0999 V2000
   -1.4186   -4.2631   -0.5315 H   0  0  0  0  0  0  0  0  0  0  0  0
   -1.6359   -3.2324   -0.2375 C   0  0  0  0  0  0  0  0  0  0  0  0
   -1.8811   -3.2183    0.8272 H   0  0  0  0  0  0  0  0  0  0  0  0
   -2.4949   -2.8785   -0.8122 H   0  0  0  0  0  0  0  0  0  0  0  0
   -0.4253   -2.3472   -0.5004 C   0  0  0  0  0  0  0  0  0  0  0  0
    0.5836   -2.8704   -0.9571 O   0  0  0  0  0  0  0  0  0  0  0  0
   -0.4700   -0.9567   -0.3939 N   0  0  0  0  0  0  0  0  0  0  0  0
   -1.6546   -0.2567    0.0888 C   0  0  0  0  0  0  0  0  0  0  0  0
   -2.2707   -0.8614    0.7616 H   0  0  0  0  0  0  0  0  0  0  0  0
   -2.2694    0.0659   -0.7580 H   0  0  0  0  0  0  0  0  0  0  0  0
   -1.0963    0.9419    0.8385 C   0  0  0  0  0  0  0  0  0  0  0  0
   -0.9400    0.6782    1.8901 H   0  0  0  0  0  0  0  0  0  0  0  0
   -1.7657    1.8062    0.7900 H   0  0  0  0  0  0  0  0  0  0  0  0
    0.2438    1.2129    0.1719 C   0  0  0  0  0  0  0  0  0  0  0  0
    0.9223    1.7546    0.8387 H   0  0  0  0  0  0  0  0  0  0  0  0
    0.0925    1.8169   -0.7287 H   0  0  0  0  0  0  0  0  0  0  0  0
    0.7688   -0.1733   -0.2239 C   0  0  1  0  0  0  0  0  0  0  0  0
    1.2912   -0.1125   -1.1835 H   0  0  0  0  0  0  0  0  0  0  0  0
    1.7885   -0.7075    0.8202 C   0  0  0  0  0  0  0  0  0  0  0  0
    1.4580   -1.5138    1.6839 O   0  0  0  0  0  0  0  0  0  0  0  0
    2.9725   -0.0156    1.0182 N   0  0  0  0  0  0  0  0  0  0  0  0
    3.2431    0.6548    0.3056 H   0  0  0  0  0  0  0  0  0  0  0  0
    3.9348   -0.3574    2.0594 C   0  0  0  0  0  0  0  0  0  0  0  0
    4.2972   -1.3819    1.9237 H   0  0  0  0  0  0  0  0  0  0  0  0
    4.7915    0.3219    2.0198 H   0  0  0  0  0  0  0  0  0  0  0  0
    3.4750   -0.2743    3.0498 H   0  0  0  0  0  0  0  0  0  0  0  0
  1  2  1  0  0  0  0
  2  3  1  0  0  0  0
  2  4  1  0  0  0  0
  2  5  1  0  0  0  0
  5  6  2  0  0  0  0
  5  7  1  0  0  0  0
  7  8  1  0  0  0  0
  7 17  1  0  0  0  0
  8  9  1  0  0  0  0
  8 10  1  0  0  0  0
  8 11  1  0  0  0  0
 11 12  1  0  0  0  0
 11 13  1  0  0  0  0
 11 14  1  0  0  0  0
 14 15  1  0  0  0  0
 14 16  1  0  0  0  0
 14 17  1  0  0  0  0
 17 18  1  0  0  0  0
 17 19  1  0  0  0  0
 19 20  2  0  0  0  0
 19 21  1  0  0  0  0
 21 22  1  0  0  0  0
 21 23  1  0  0  0  0
 23 24  1  0  0  0  0
 23 25  1  0  0  0  0
 23 26  1  0  0  0  0
M  END
$$$$

  -OEChem-11182114133D

 26 26  0     1  0  0  0  0  0999 V2000
   -1.4101   -4.2673   -0.5005 H   0  0  0  0  0  0  0  0  0  0  0  0
   -1.6282   -3.2344   -0.2155 C   0  0  0  0  0  0  0  0  0  0  0  0
   -1.8523   -3.2092    0.8535 H   0  0  0  0  0  0  0  0  0  0  0  0
   -2.5004   -2.8931   -0.7774 H   0  0  0  0  0  0  0  0  0  0  0  0
   -0.4281   -2.3454   -0.5133 C   0  0  0  0  0  0  0  0  0  0  0  0
    0.5540   -2.8595   -1.0334 O   0  0  0  0  0  0  0  0  0  0  0  0
   -0.4657   -0.9558   -0.3901 N   0  0  0  0  0  0  0  0  0  0  0  0
   -1.6560   -0.2587    0.0821 C   0  0  0  0  0  0  0  0  0  0  0  0
   -2.2728   -0.8613    0.7562 H   0  0  0  0  0  0  0  0  0  0  0  0
   -2.2676    0.0550   -0.7702 H   0  0  0  0  0  0  0  0  0  0  0  0
   -1.1083    0.9467    0.8249 C   0  0  0  0  0  0  0  0  0  0  0  0
   -0.9595    0.6930    1.8800 H   0  0  0  0  0  0  0  0  0  0  0  0
   -1.7807    1.8081    0.7632 H   0  0  0  0  0  0  0  0  0  0  0  0
    0.2356    1.2167    0.1668 C   0  0  0  0  0  0  0  0  0  0  0  0
    0.8980    1.7795    0.8309 H   0  0  0  0  0  0  0  0  0  0  0  0
    0.0857    1.8084   -0.7423 H   0  0  0  0  0  0  0  0  0  0  0  0
    0.7750   -0.1717   -0.2167 C   0  0  1  0  0  0  0  0  0  0  0  0
    1.2947   -0.1094   -1.1777 H   0  0  0  0  0  0  0  0  0  0  0  0
    1.8144   -0.7023    0.8175 C   0  0  0  0  0  0  0  0  0  0  0  0
    1.5928   -1.6824    1.5197 O   0  0  0  0  0  0  0  0  0  0  0  0
    2.8354    0.1346    1.2425 N   0  0  0  0  0  0  0  0  0  0  0  0
    3.0147    0.9667    0.6897 H   0  0  0  0  0  0  0  0  0  0  0  0
    3.7586   -0.2010    2.3211 C   0  0  0  0  0  0  0  0  0  0  0  0
    4.3031   -1.1218    2.0867 H   0  0  0  0  0  0  0  0  0  0  0  0
    4.4851    0.6051    2.4611 H   0  0  0  0  0  0  0  0  0  0  0  0
    3.2154   -0.3425    3.2615 H   0  0  0  0  0  0  0  0  0  0  0  0
  1  2  1  0  0  0  0
  2  3  1  0  0  0  0
  2  4  1  0  0  0  0
  2  5  1  0  0  0  0
  5  6  2  0  0  0  0
  5  7  1  0  0  0  0
  7  8  1  0  0  0  0
  7 17  1  0  0  0  0
  8  9  1  0  0  0  0
  8 10  1  0  0  0  0
  8 11  1  0  0  0  0
 11 12  1  0  0  0  0
 11 13  1  0  0  0  0
 11 14  1  0  0  0  0
 14 15  1  0  0  0  0
 14 16  1  0  0  0  0
 14 17  1  0  0  0  0
 17 18  1  0  0  0  0
 17 19  1  0  0  0  0
 19 20  2  0  0  0  0
 19 21  1  0  0  0  0
 21 22  1  0  0  0  0
 21 23  1  0  0  0  0
 23 24  1  0  0  0  0
 23 25  1  0  0  0  0
 23 26  1  0  0  0  0
M  END
$$$$

  -OEChem-11182114133D

 26 26  0     1  0  0  0  0  0999 V2000
   -1.3953   -4.2726   -0.4428 H   0  0  0  0  0  0  0  0  0  0  0  0
   -1.6174   -3.2349   -0.1785 C   0  0  0  0  0  0  0  0  0  0  0  0
   -1.8305   -3.1881    0.8920 H   0  0  0  0  0  0  0  0  0  0  0  0
   -2.4975   -2.9115   -0.7389 H   0  0  0  0  0  0  0  0  0  0  0  0
   -0.4263   -2.3454   -0.5093 C   0  0  0  0  0  0  0  0  0  0  0  0
    0.5230   -2.8534   -1.0907 O   0  0  0  0  0  0  0  0  0  0  0  0
   -0.4568   -0.9565   -0.3770 N   0  0  0  0  0  0  0  0  0  0  0  0
   -1.6600   -0.2596    0.0622 C   0  0  0  0  0  0  0  0  0  0  0  0
   -2.2825   -0.8527    0.7394 H   0  0  0  0  0  0  0  0  0  0  0  0
   -2.2609    0.0308   -0.8061 H   0  0  0  0  0  0  0  0  0  0  0  0
   -1.1360    0.9649    0.7872 C   0  0  0  0  0  0  0  0  0  0  0  0
   -1.0059    0.7369    1.8506 H   0  0  0  0  0  0  0  0  0  0  0  0
   -1.8137    1.8189    0.6925 H   0  0  0  0  0  0  0  0  0  0  0  0
    0.2175    1.2312    0.1490 C   0  0  0  0  0  0  0  0  0  0  0  0
    0.8562    1.8270    0.8054 H   0  0  0  0  0  0  0  0  0  0  0  0
    0.0757    1.7958   -0.7786 H   0  0  0  0  0  0  0  0  0  0  0  0
    0.7790   -0.1617   -0.1962 C   0  0  1  0  0  0  0  0  0  0  0  0
    1.3035   -0.1066   -1.1550 H   0  0  0  0  0  0  0  0  0  0  0  0
    1.8323   -0.6786    0.8387 C   0  0  0  0  0  0  0  0  0  0  0  0
    1.7968   -1.8053    1.3163 O   0  0  0  0  0  0  0  0  0  0  0  0
    2.6485    0.2236    1.5062 N   0  0  0  0  0  0  0  0  0  0  0  0
    2.6845    1.1717    1.1467 H   0  0  0  0  0  0  0  0  0  0  0  0
    3.5556   -0.1468    2.5876 C   0  0  0  0  0  0  0  0  0  0  0  0
    4.2854   -0.8854    2.2395 H   0  0  0  0  0  0  0  0  0  0  0  0
    4.0974    0.7340    2.9448 H   0  0  0  0  0  0  0  0  0  0  0  0
    2.9975   -0.5719    3.4283 H   0  0  0  0  0  0  0  0  0  0  0  0
  1  2  1  0  0  0  0
  2  3  1  0  0  0  0
  2  4  1  0  0  0  0
  2  5  1  0  0  0  0
  5  6  2  0  0  0  0
  5  7  1  0  0  0  0
  7  8  1  0  0  0  0
  7 17  1  0  0  0  0
  8  9  1  0  0  0  0
  8 10  1  0  0  0  0
  8 11  1  0  0  0  0
 11 12  1  0  0  0  0
 11 13  1  0  0  0  0
 11 14  1  0  0  0  0
 14 15  1  0  0  0  0
 14 16  1  0  0  0  0
 14 17  1  0  0  0  0
 17 18  1  0  0  0  0
 17 19  1  0  0  0  0
 19 20  2  0  0  0  0
 19 21  1  0  0  0  0
 21 22  1  0  0  0  0
 21 23  1  0  0  0  0
 23 24  1  0  0  0  0
 23 25  1  0  0  0  0
 23 26  1  0  0  0  0
M  END
$$$$

  -OEChem-11182114133D

 26 26  0     1  0  0  0  0  0999 V2000
   -1.3947   -4.2718   -0.3972 H   0  0  0  0  0  0  0  0  0  0  0  0
   -1.6105   -3.2311   -0.1388 C   0  0  0  0  0  0  0  0  0  0  0  0
   -1.8089   -3.1746    0.9340 H   0  0  0  0  0  0  0  0  0  0  0  0
   -2.4980   -2.9116   -0.6898 H   0  0  0  0  0  0  0  0  0  0  0  0
   -0.4215   -2.3475   -0.4938 C   0  0  0  0  0  0  0  0  0  0  0  0
    0.5031   -2.8628   -1.1045 O   0  0  0  0  0  0  0  0  0  0  0  0
   -0.4454   -0.9581   -0.3635 N   0  0  0  0  0  0  0  0  0  0  0  0
   -1.6619   -0.2560    0.0308 C   0  0  0  0  0  0  0  0  0  0  0  0
   -2.2982   -0.8356    0.7066 H   0  0  0  0  0  0  0  0  0  0  0  0
   -2.2429    0.0098   -0.8586 H   0  0  0  0  0  0  0  0  0  0  0  0
   -1.1635    0.9894    0.7384 C   0  0  0  0  0  0  0  0  0  0  0  0
   -1.0591    0.7893    1.8100 H   0  0  0  0  0  0  0  0  0  0  0  0
   -1.8445    1.8358    0.6058 H   0  0  0  0  0  0  0  0  0  0  0  0
    0.2030    1.2503    0.1272 C   0  0  0  0  0  0  0  0  0  0  0  0
    0.8240    1.8740    0.7737 H   0  0  0  0  0  0  0  0  0  0  0  0
    0.0763    1.7867   -0.8194 H   0  0  0  0  0  0  0  0  0  0  0  0
    0.7796   -0.1474   -0.1701 C   0  0  1  0  0  0  0  0  0  0  0  0
    1.3207   -0.1045   -1.1206 H   0  0  0  0  0  0  0  0  0  0  0  0
    1.8247   -0.6532    0.8807 C   0  0  0  0  0  0  0  0  0  0  0  0
    2.0710   -1.8356    1.0654 O   0  0  0  0  0  0  0  0  0  0  0  0
    2.4062    0.2236    1.7861 N   0  0  0  0  0  0  0  0  0  0  0  0
    2.2236    1.2132    1.6624 H   0  0  0  0  0  0  0  0  0  0  0  0
    3.3323   -0.1881    2.8365 C   0  0  0  0  0  0  0  0  0  0  0  0
    4.2230   -0.6538    2.4016 H   0  0  0  0  0  0  0  0  0  0  0  0
    3.6476    0.6795    3.4239 H   0  0  0  0  0  0  0  0  0  0  0  0
    2.8531   -0.9054    3.5113 H   0  0  0  0  0  0  0  0  0  0  0  0
  1  2  1  0  0  0  0
  2  3  1  0  0  0  0
  2  4  1  0  0  0  0
  2  5  1  0  0  0  0
  5  6  2  0  0  0  0
  5  7  1  0  0  0  0
  7  8  1  0  0  0  0
  7 17  1  0  0  0  0
  8  9  1  0  0  0  0
  8 10  1  0  0  0  0
  8 11  1  0  0  0  0
 11 12  1  0  0  0  0
 11 13  1  0  0  0  0
 11 14  1  0  0  0  0
 14 15  1  0  0  0  0
 14 16  1  0  0  0  0
 14 17  1  0  0  0  0
 17 18  1  0  0  0  0
 17 19  1  0  0  0  0
 19 20  2  0  0  0  0
 19 21  1  0  0  0  0
 21 22  1  0  0  0  0
 21 23  1  0  0  0  0
 23 24  1  0  0  0  0
 23 25  1  0  0  0  0
 23 26  1  0  0  0  0
M  END
$$$$

  -OEChem-11182114133D

 26 26  0     1  0  0  0  0  0999 V2000
   -1.5080   -4.2610   -0.4614 H   0  0  0  0  0  0  0  0  0  0  0  0
   -1.7023   -3.2132   -0.2151 C   0  0  0  0  0  0  0  0  0  0  0  0
   -2.0178   -3.1558    0.8292 H   0  0  0  0  0  0  0  0  0  0  0  0
   -2.5069   -2.8485   -0.8580 H   0  0  0  0  0  0  0  0  0  0  0  0
   -0.4421   -2.3826   -0.4268 C   0  0  0  0  0  0  0  0  0  0  0  0
    0.5322   -2.9609   -0.8757 O   0  0  0  0  0  0  0  0  0  0  0  0
   -0.4371   -0.9911   -0.3114 N   0  0  0  0  0  0  0  0  0  0  0  0
   -1.6555   -0.2607    0.0252 C   0  0  0  0  0  0  0  0  0  0  0  0
   -2.3204   -0.8140    0.6958 H   0  0  0  0  0  0  0  0  0  0  0  0
   -2.2045   -0.0126   -0.8896 H   0  0  0  0  0  0  0  0  0  0  0  0
   -1.1677    1.0014    0.7162 C   0  0  0  0  0  0  0  0  0  0  0  0
   -1.0936    0.8284    1.7950 H   0  0  0  0  0  0  0  0  0  0  0  0
   -1.8385    1.8487    0.5430 H   0  0  0  0  0  0  0  0  0  0  0  0
    0.2153    1.2349    0.1318 C   0  0  0  0  0  0  0  0  0  0  0  0
    0.8367    1.8674    0.7704 H   0  0  0  0  0  0  0  0  0  0  0  0
    0.1154    1.7448   -0.8324 H   0  0  0  0  0  0  0  0  0  0  0  0
    0.7819   -0.1743   -0.1111 C   0  0  1  0  0  0  0  0  0  0  0  0
    1.3406   -0.1580   -1.0525 H   0  0  0  0  0  0  0  0  0  0  0  0
    1.8080   -0.6669    0.9571 C   0  0  0  0  0  0  0  0  0  0  0  0
    2.4615   -1.6888    0.8196 O   0  0  0  0  0  0  0  0  0  0  0  0
    2.1364    0.1245    2.0485 N   0  0  0  0  0  0  0  0  0  0  0  0
    1.6130    0.9832    2.1783 H   0  0  0  0  0  0  0  0  0  0  0  0
    3.1490   -0.2349    3.0358 C   0  0  0  0  0  0  0  0  0  0  0  0
    4.1278   -0.3484    2.5577 H   0  0  0  0  0  0  0  0  0  0  0  0
    3.2270    0.5451    3.7992 H   0  0  0  0  0  0  0  0  0  0  0  0
    2.8860   -1.1766    3.5288 H   0  0  0  0  0  0  0  0  0  0  0  0
  1  2  1  0  0  0  0
  2  3  1  0  0  0  0
  2  4  1  0  0  0  0
  2  5  1  0  0  0  0
  5  6  2  0  0  0  0
  5  7  1  0  0  0  0
  7  8  1  0  0  0  0
  7 17  1  0  0  0  0
  8  9  1  0  0  0  0
  8 10  1  0  0  0  0
  8 11  1  0  0  0  0
 11 12  1  0  0  0  0
 11 13  1  0  0  0  0
 11 14  1  0  0  0  0
 14 15  1  0  0  0  0
 14 16  1  0  0  0  0
 14 17  1  0  0  0  0
 17 18  1  0  0  0  0
 17 19  1  0  0  0  0
 19 20  2  0  0  0  0
 19 21  1  0  0  0  0
 21 22  1  0  0  0  0
 21 23  1  0  0  0  0
 23 24  1  0  0  0  0
 23 25  1  0  0  0  0
 23 26  1  0  0  0  0
M  END
$$$$

  -OEChem-11182114133D

 26 26  0     1  0  0  0  0  0999 V2000
   -1.5658   -4.2442   -0.5687 H   0  0  0  0  0  0  0  0  0  0  0  0
   -1.7525   -3.2009   -0.2987 C   0  0  0  0  0  0  0  0  0  0  0  0
   -2.1542   -3.1712    0.7167 H   0  0  0  0  0  0  0  0  0  0  0  0
   -2.4896   -2.7904   -0.9926 H   0  0  0  0  0  0  0  0  0  0  0  0
   -0.4577   -2.4010   -0.3721 C   0  0  0  0  0  0  0  0  0  0  0  0
    0.5621   -3.0192   -0.6175 O   0  0  0  0  0  0  0  0  0  0  0  0
   -0.4420   -1.0086   -0.2752 N   0  0  0  0  0  0  0  0  0  0  0  0
   -1.6533   -0.2609    0.0477 C   0  0  0  0  0  0  0  0  0  0  0  0
   -2.3248   -0.8025    0.7215 H   0  0  0  0  0  0  0  0  0  0  0  0
   -2.1970   -0.0167   -0.8712 H   0  0  0  0  0  0  0  0  0  0  0  0
   -1.1530    1.0058    0.7281 C   0  0  0  0  0  0  0  0  0  0  0  0
   -1.0805    0.8439    1.8082 H   0  0  0  0  0  0  0  0  0  0  0  0
   -1.8155    1.8578    0.5454 H   0  0  0  0  0  0  0  0  0  0  0  0
    0.2313    1.2193    0.1369 C   0  0  0  0  0  0  0  0  0  0  0  0
    0.8680    1.8391    0.7752 H   0  0  0  0  0  0  0  0  0  0  0  0
    0.1393    1.7260   -0.8296 H   0  0  0  0  0  0  0  0  0  0  0  0
    0.7796   -0.1967   -0.0908 C   0  0  1  0  0  0  0  0  0  0  0  0
    1.3338   -0.1951   -1.0353 H   0  0  0  0  0  0  0  0  0  0  0  0
    1.7980   -0.6889    0.9765 C   0  0  0  0  0  0  0  0  0  0  0  0
    2.7049   -1.4530    0.6803 O   0  0  0  0  0  0  0  0  0  0  0  0
    1.9010   -0.0472    2.2017 N   0  0  0  0  0  0  0  0  0  0  0  0
    1.1718    0.6154    2.4422 H   0  0  0  0  0  0  0  0  0  0  0  0
    2.9166   -0.3699    3.1978 C   0  0  0  0  0  0  0  0  0  0  0  0
    3.9193   -0.1942    2.7943 H   0  0  0  0  0  0  0  0  0  0  0  0
    2.7878    0.2559    4.0859 H   0  0  0  0  0  0  0  0  0  0  0  0
    2.8373   -1.4197    3.4991 H   0  0  0  0  0  0  0  0  0  0  0  0
  1  2  1  0  0  0  0
  2  3  1  0  0  0  0
  2  4  1  0  0  0  0
  2  5  1  0  0  0  0
  5  6  2  0  0  0  0
  5  7  1  0  0  0  0
  7  8  1  0  0  0  0
  7 17  1  0  0  0  0
  8  9  1  0  0  0  0
  8 10  1  0  0  0  0
  8 11  1  0  0  0  0
 11 12  1  0  0  0  0
 11 13  1  0  0  0  0
 11 14  1  0  0  0  0
 14 15  1  0  0  0  0
 14 16  1  0  0  0  0
 14 17  1  0  0  0  0
 17 18  1  0  0  0  0
 17 19  1  0  0  0  0
 19 20  2  0  0  0  0
 19 21  1  0  0  0  0
 21 22  1  0  0  0  0
 21 23  1  0  0  0  0
 23 24  1  0  0  0  0
 23 25  1  0  0  0  0
 23 26  1  0  0  0  0
M  END
$$$$

  -OEChem-11182114133D

 26 26  0     1  0  0  0  0  0999 V2000
   -1.5666   -4.2395   -0.6059 H   0  0  0  0  0  0  0  0  0  0  0  0
   -1.7595   -3.1976   -0.3342 C   0  0  0  0  0  0  0  0  0  0  0  0
   -2.2000   -3.1740    0.6652 H   0  0  0  0  0  0  0  0  0  0  0  0
   -2.4674   -2.7778   -1.0526 H   0  0  0  0  0  0  0  0  0  0  0  0
   -0.4602   -2.4027   -0.3516 C   0  0  0  0  0  0  0  0  0  0  0  0
    0.5752   -3.0250   -0.5087 O   0  0  0  0  0  0  0  0  0  0  0  0
   -0.4459   -1.0101   -0.2680 N   0  0  0  0  0  0  0  0  0  0  0  0
   -1.6498   -0.2555    0.0637 C   0  0  0  0  0  0  0  0  0  0  0  0
   -2.3208   -0.7961    0.7390 H   0  0  0  0  0  0  0  0  0  0  0  0
   -2.1967   -0.0043   -0.8515 H   0  0  0  0  0  0  0  0  0  0  0  0
   -1.1348    1.0067    0.7457 C   0  0  0  0  0  0  0  0  0  0  0  0
   -1.0551    0.8425    1.8247 H   0  0  0  0  0  0  0  0  0  0  0  0
   -1.7922    1.8643    0.5710 H   0  0  0  0  0  0  0  0  0  0  0  0
    0.2461    1.2114    0.1409 C   0  0  0  0  0  0  0  0  0  0  0  0
    0.8978    1.8116    0.7841 H   0  0  0  0  0  0  0  0  0  0  0  0
    0.1535    1.7283   -0.8202 H   0  0  0  0  0  0  0  0  0  0  0  0
    0.7797   -0.2062   -0.0958 C   0  0  1  0  0  0  0  0  0  0  0  0
    1.3267   -0.2088   -1.0446 H   0  0  0  0  0  0  0  0  0  0  0  0
    1.7930   -0.7005    0.9691 C   0  0  0  0  0  0  0  0  0  0  0  0
    2.8395   -1.2358    0.6302 O   0  0  0  0  0  0  0  0  0  0  0  0
    1.6929   -0.2639    2.2806 N   0  0  0  0  0  0  0  0  0  0  0  0
    0.8282    0.1917    2.5507 H   0  0  0  0  0  0  0  0  0  0  0  0
    2.6696   -0.5918    3.3121 C   0  0  0  0  0  0  0  0  0  0  0  0
    3.6556   -0.1966    3.0463 H   0  0  0  0  0  0  0  0  0  0  0  0
    2.3696   -0.1551    4.2694 H   0  0  0  0  0  0  0  0  0  0  0  0
    2.7465   -1.6773    3.4348 H   0  0  0  0  0  0  0  0  0  0  0  0
  1  2  1  0  0  0  0
  2  3  1  0  0  0  0
  2  4  1  0  0  0  0
  2  5  1  0  0  0  0
  5  6  2  0  0  0  0
  5  7  1  0  0  0  0
  7  8  1  0  0  0  0
  7 17  1  0  0  0  0
  8  9  1  0  0  0  0
  8 10  1  0  0  0  0
  8 11  1  0  0  0  0
 11 12  1  0  0  0  0
 11 13  1  0  0  0  0
 11 14  1  0  0  0  0
 14 15  1  0  0  0  0
 14 16  1  0  0  0  0
 14 17  1  0  0  0  0
 17 18  1  0  0  0  0
 17 19  1  0  0  0  0
 19 20  2  0  0  0  0
 19 21  1  0  0  0  0
 21 22  1  0  0  0  0
 21 23  1  0  0  0  0
 23 24  1  0  0  0  0
 23 25  1  0  0  0  0
 23 26  1  0  0  0  0
M  END
$$$$

  -OEChem-11182114133D

 26 26  0     1  0  0  0  0  0999 V2000
   -1.5552   -4.2381   -0.6187 H   0  0  0  0  0  0  0  0  0  0  0  0
   -1.7550   -3.1975   -0.3473 C   0  0  0  0  0  0  0  0  0  0  0  0
   -2.2127   -3.1774    0.6442 H   0  0  0  0  0  0  0  0  0  0  0  0
   -2.4522   -2.7770   -1.0758 H   0  0  0  0  0  0  0  0  0  0  0  0
   -0.4575   -2.3999   -0.3422 C   0  0  0  0  0  0  0  0  0  0  0  0
    0.5866   -3.0181   -0.4595 O   0  0  0  0  0  0  0  0  0  0  0  0
   -0.4482   -1.0073   -0.2670 N   0  0  0  0  0  0  0  0  0  0  0  0
   -1.6484   -0.2509    0.0733 C   0  0  0  0  0  0  0  0  0  0  0  0
   -2.3169   -0.7924    0.7503 H   0  0  0  0  0  0  0  0  0  0  0  0
   -2.2000    0.0056   -0.8375 H   0  0  0  0  0  0  0  0  0  0  0  0
   -1.1241    1.0081    0.7573 C   0  0  0  0  0  0  0  0  0  0  0  0
   -1.0383    0.8425    1.8358 H   0  0  0  0  0  0  0  0  0  0  0  0
   -1.7794    1.8686    0.5884 H   0  0  0  0  0  0  0  0  0  0  0  0
    0.2536    1.2099    0.1432 C   0  0  0  0  0  0  0  0  0  0  0  0
    0.9131    1.7964    0.7917 H   0  0  0  0  0  0  0  0  0  0  0  0
    0.1603    1.7354   -0.8129 H   0  0  0  0  0  0  0  0  0  0  0  0
    0.7793   -0.2073   -0.1020 C   0  0  1  0  0  0  0  0  0  0  0  0
    1.3217   -0.2112   -1.0536 H   0  0  0  0  0  0  0  0  0  0  0  0
    1.7910   -0.6993    0.9612 C   0  0  0  0  0  0  0  0  0  0  0  0
    2.9323   -0.9967    0.6346 O   0  0  0  0  0  0  0  0  0  0  0  0
    1.5234   -0.5148    2.3075 N   0  0  0  0  0  0  0  0  0  0  0  0
    0.5677   -0.2850    2.5566 H   0  0  0  0  0  0  0  0  0  0  0  0
    2.4591   -0.8806    3.3637 C   0  0  0  0  0  0  0  0  0  0  0  0
    3.3883   -0.3091    3.2680 H   0  0  0  0  0  0  0  0  0  0  0  0
    2.0234   -0.6685    4.3447 H   0  0  0  0  0  0  0  0  0  0  0  0
    2.6955   -1.9487    3.3118 H   0  0  0  0  0  0  0  0  0  0  0  0
  1  2  1  0  0  0  0
  2  3  1  0  0  0  0
  2  4  1  0  0  0  0
  2  5  1  0  0  0  0
  5  6  2  0  0  0  0
  5  7  1  0  0  0  0
  7  8  1  0  0  0  0
  7 17  1  0  0  0  0
  8  9  1  0  0  0  0
  8 10  1  0  0  0  0
  8 11  1  0  0  0  0
 11 12  1  0  0  0  0
 11 13  1  0  0  0  0
 11 14  1  0  0  0  0
 14 15  1  0  0  0  0
 14 16  1  0  0  0  0
 14 17  1  0  0  0  0
 17 18  1  0  0  0  0
 17 19  1  0  0  0  0
 19 20  2  0  0  0  0
 19 21  1  0  0  0  0
 21 22  1  0  0  0  0
 21 23  1  0  0  0  0
 23 24  1  0  0  0  0
 23 25  1  0  0  0  0
 23 26  1  0  0  0  0
M  END
$$$$

  -OEChem-11182114133D

 26 26  0     1  0  0  0  0  0999 V2000
   -1.5500   -4.2372   -0.6169 H   0  0  0  0  0  0  0  0  0  0  0  0
   -1.7528   -3.1959   -0.3506 C   0  0  0  0  0  0  0  0  0  0  0  0
   -2.2166   -3.1724    0.6380 H   0  0  0  0  0  0  0  0  0  0  0  0
   -2.4465   -2.7789   -1.0848 H   0  0  0  0  0  0  0  0  0  0  0  0
   -0.4565   -2.3968   -0.3406 C   0  0  0  0  0  0  0  0  0  0  0  0
    0.5924   -3.0117   -0.4389 O   0  0  0  0  0  0  0  0  0  0  0  0
   -0.4494   -1.0043   -0.2707 N   0  0  0  0  0  0  0  0  0  0  0  0
   -1.6465   -0.2463    0.0769 C   0  0  0  0  0  0  0  0  0  0  0  0
   -2.3151   -0.7893    0.7526 H   0  0  0  0  0  0  0  0  0  0  0  0
   -2.1995    0.0165   -0.8312 H   0  0  0  0  0  0  0  0  0  0  0  0
   -1.1158    1.0080    0.7659 C   0  0  0  0  0  0  0  0  0  0  0  0
   -1.0237    0.8365    1.8430 H   0  0  0  0  0  0  0  0  0  0  0  0
   -1.7695    1.8710    0.6055 H   0  0  0  0  0  0  0  0  0  0  0  0
    0.2599    1.2097    0.1475 C   0  0  0  0  0  0  0  0  0  0  0  0
    0.9240    1.7859    0.8006 H   0  0  0  0  0  0  0  0  0  0  0  0
    0.1666    1.7430   -0.8043 H   0  0  0  0  0  0  0  0  0  0  0  0
    0.7793   -0.2066   -0.1066 C   0  0  1  0  0  0  0  0  0  0  0  0
    1.3219   -0.2110   -1.0580 H   0  0  0  0  0  0  0  0  0  0  0  0
    1.7876   -0.6957    0.9581 C   0  0  0  0  0  0  0  0  0  0  0  0
    2.9823   -0.7387    0.6944 O   0  0  0  0  0  0  0  0  0  0  0  0
    1.3969   -0.7934    2.2827 N   0  0  0  0  0  0  0  0  0  0  0  0
    0.3984   -0.8062    2.4590 H   0  0  0  0  0  0  0  0  0  0  0  0
    2.3036   -1.2055    3.3467 C   0  0  0  0  0  0  0  0  0  0  0  0
    3.1343   -0.4979    3.4389 H   0  0  0  0  0  0  0  0  0  0  0  0
    1.7736   -1.2404    4.3033 H   0  0  0  0  0  0  0  0  0  0  0  0
    2.7098   -2.2008    3.1378 H   0  0  0  0  0  0  0  0  0  0  0  0
  1  2  1  0  0  0  0
  2  3  1  0  0  0  0
  2  4  1  0  0  0  0
  2  5  1  0  0  0  0
  5  6  2  0  0  0  0
  5  7  1  0  0  0  0
  7  8  1  0  0  0  0
  7 17  1  0  0  0  0
  8  9  1  0  0  0  0
  8 10  1  0  0  0  0
  8 11  1  0  0  0  0
 11 12  1  0  0  0  0
 11 13  1  0  0  0  0
 11 14  1  0  0  0  0
 14 15  1  0  0  0  0
 14 16  1  0  0  0  0
 14 17  1  0  0  0  0
 17 18  1  0  0  0  0
 17 19  1  0  0  0  0
 19 20  2  0  0  0  0
 19 21  1  0  0  0  0
 21 22  1  0  0  0  0
 21 23  1  0  0  0  0
 23 24  1  0  0  0  0
 23 25  1  0  0  0  0
 23 26  1  0  0  0  0
M  END
$$$$

  -OEChem-11182114133D

 26 26  0     1  0  0  0  0  0999 V2000
   -1.5620   -4.2331   -0.6279 H   0  0  0  0  0  0  0  0  0  0  0  0
   -1.7632   -3.1921   -0.3588 C   0  0  0  0  0  0  0  0  0  0  0  0
   -2.2327   -3.1708    0.6273 H   0  0  0  0  0  0  0  0  0  0  0  0
   -2.4516   -2.7705   -1.0953 H   0  0  0  0  0  0  0  0  0  0  0  0
   -0.4650   -2.3964   -0.3395 C   0  0  0  0  0  0  0  0  0  0  0  0
    0.5844   -3.0138   -0.4179 O   0  0  0  0  0  0  0  0  0  0  0  0
   -0.4532   -1.0039   -0.2746 N   0  0  0  0  0  0  0  0  0  0  0  0
   -1.6469   -0.2417    0.0751 C   0  0  0  0  0  0  0  0  0  0  0  0
   -2.3193   -0.7839    0.7476 H   0  0  0  0  0  0  0  0  0  0  0  0
   -2.1974    0.0277   -0.8326 H   0  0  0  0  0  0  0  0  0  0  0  0
   -1.1108    1.0072    0.7693 C   0  0  0  0  0  0  0  0  0  0  0  0
   -1.0166    0.8280    1.8452 H   0  0  0  0  0  0  0  0  0  0  0  0
   -1.7611    1.8740    0.6153 H   0  0  0  0  0  0  0  0  0  0  0  0
    0.2657    1.2067    0.1529 C   0  0  0  0  0  0  0  0  0  0  0  0
    0.9311    1.7775    0.8095 H   0  0  0  0  0  0  0  0  0  0  0  0
    0.1754    1.7446   -0.7967 H   0  0  0  0  0  0  0  0  0  0  0  0
    0.7788   -0.2106   -0.1063 C   0  0  1  0  0  0  0  0  0  0  0  0
    1.3257   -0.2165   -1.0552 H   0  0  0  0  0  0  0  0  0  0  0  0
    1.7831   -0.6939    0.9640 C   0  0  0  0  0  0  0  0  0  0  0  0
    2.9813   -0.5023    0.8004 O   0  0  0  0  0  0  0  0  0  0  0  0
    1.3308   -1.0805    2.2138 N   0  0  0  0  0  0  0  0  0  0  0  0
    0.3450   -1.3098    2.2791 H   0  0  0  0  0  0  0  0  0  0  0  0
    2.2265   -1.5393    3.2678 C   0  0  0  0  0  0  0  0  0  0  0  0
    2.9257   -0.7450    3.5495 H   0  0  0  0  0  0  0  0  0  0  0  0
    1.6525   -1.8232    4.1548 H   0  0  0  0  0  0  0  0  0  0  0  0
    2.7987   -2.4101    2.9305 H   0  0  0  0  0  0  0  0  0  0  0  0
  1  2  1  0  0  0  0
  2  3  1  0  0  0  0
  2  4  1  0  0  0  0
  2  5  1  0  0  0  0
  5  6  2  0  0  0  0
  5  7  1  0  0  0  0
  7  8  1  0  0  0  0
  7 17  1  0  0  0  0
  8  9  1  0  0  0  0
  8 10  1  0  0  0  0
  8 11  1  0  0  0  0
 11 12  1  0  0  0  0
 11 13  1  0  0  0  0
 11 14  1  0  0  0  0
 14 15  1  0  0  0  0
 14 16  1  0  0  0  0
 14 17  1  0  0  0  0
 17 18  1  0  0  0  0
 17 19  1  0  0  0  0
 19 20  2  0  0  0  0
 19 21  1  0  0  0  0
 21 22  1  0  0  0  0
 21 23  1  0  0  0  0
 23 24  1  0  0  0  0
 23 25  1  0  0  0  0
 23 26  1  0  0  0  0
M  END
$$$$

  -OEChem-11182114133D

 26 26  0     1  0  0  0  0  0999 V2000
   -1.6123   -4.2180   -0.6856 H   0  0  0  0  0  0  0  0  0  0  0  0
   -1.8062   -3.1791   -0.4041 C   0  0  0  0  0  0  0  0  0  0  0  0
   -2.2970   -3.1672    0.5716 H   0  0  0  0  0  0  0  0  0  0  0  0
   -2.4727   -2.7372   -1.1486 H   0  0  0  0  0  0  0  0  0  0  0  0
   -0.4984   -2.4014   -0.3440 C   0  0  0  0  0  0  0  0  0  0  0  0
    0.5447   -3.0328   -0.3917 O   0  0  0  0  0  0  0  0  0  0  0  0
   -0.4674   -1.0098   -0.2726 N   0  0  0  0  0  0  0  0  0  0  0  0
   -1.6576   -0.2386    0.0688 C   0  0  0  0  0  0  0  0  0  0  0  0
   -2.3409   -0.7771    0.7337 H   0  0  0  0  0  0  0  0  0  0  0  0
   -2.1971    0.0385   -0.8432 H   0  0  0  0  0  0  0  0  0  0  0  0
   -1.1186    1.0030    0.7721 C   0  0  0  0  0  0  0  0  0  0  0  0
   -1.0340    0.8168    1.8479 H   0  0  0  0  0  0  0  0  0  0  0  0
   -1.7607    1.8757    0.6174 H   0  0  0  0  0  0  0  0  0  0  0  0
    0.2648    1.1938    0.1701 C   0  0  0  0  0  0  0  0  0  0  0  0
    0.9262    1.7597    0.8352 H   0  0  0  0  0  0  0  0  0  0  0  0
    0.1881    1.7355   -0.7784 H   0  0  0  0  0  0  0  0  0  0  0  0
    0.7710   -0.2268   -0.0892 C   0  0  1  0  0  0  0  0  0  0  0  0
    1.3228   -0.2340   -1.0349 H   0  0  0  0  0  0  0  0  0  0  0  0
    1.7794   -0.7005    0.9840 C   0  0  0  0  0  0  0  0  0  0  0  0
    2.9324   -0.2893    0.9416 O   0  0  0  0  0  0  0  0  0  0  0  0
    1.3492   -1.3688    2.1172 N   0  0  0  0  0  0  0  0  0  0  0  0
    0.4436   -1.8190    2.0386 H   0  0  0  0  0  0  0  0  0  0  0  0
    2.2683   -1.8430    3.1439 C   0  0  0  0  0  0  0  0  0  0  0  0
    2.8201   -1.0048    3.5819 H   0  0  0  0  0  0  0  0  0  0  0  0
    1.7148   -2.3450    3.9431 H   0  0  0  0  0  0  0  0  0  0  0  0
    2.9851   -2.5530    2.7178 H   0  0  0  0  0  0  0  0  0  0  0  0
  1  2  1  0  0  0  0
  2  3  1  0  0  0  0
  2  4  1  0  0  0  0
  2  5  1  0  0  0  0
  5  6  2  0  0  0  0
  5  7  1  0  0  0  0
  7  8  1  0  0  0  0
  7 17  1  0  0  0  0
  8  9  1  0  0  0  0
  8 10  1  0  0  0  0
  8 11  1  0  0  0  0
 11 12  1  0  0  0  0
 11 13  1  0  0  0  0
 11 14  1  0  0  0  0
 14 15  1  0  0  0  0
 14 16  1  0  0  0  0
 14 17  1  0  0  0  0
 17 18  1  0  0  0  0
 17 19  1  0  0  0  0
 19 20  2  0  0  0  0
 19 21  1  0  0  0  0
 21 22  1  0  0  0  0
 21 23  1  0  0  0  0
 23 24  1  0  0  0  0
 23 25  1  0  0  0  0
 23 26  1  0  0  0  0
M  END
$$$$

  -OEChem-11182114133D

 26 26  0     1  0  0  0  0  0999 V2000
   -1.6990   -4.1943   -0.7540 H   0  0  0  0  0  0  0  0  0  0  0  0
   -1.8741   -3.1559   -0.4587 C   0  0  0  0  0  0  0  0  0  0  0  0
   -2.3866   -3.1485    0.5061 H   0  0  0  0  0  0  0  0  0  0  0  0
   -2.5135   -2.6859   -1.2099 H   0  0  0  0  0  0  0  0  0  0  0  0
   -0.5501   -2.4101   -0.3567 C   0  0  0  0  0  0  0  0  0  0  0  0
    0.4782   -3.0674   -0.3787 O   0  0  0  0  0  0  0  0  0  0  0  0
   -0.4860   -1.0213   -0.2666 N   0  0  0  0  0  0  0  0  0  0  0  0
   -1.6709   -0.2365    0.0627 C   0  0  0  0  0  0  0  0  0  0  0  0
   -2.3666   -0.7682    0.7199 H   0  0  0  0  0  0  0  0  0  0  0  0
   -2.1979    0.0478   -0.8543 H   0  0  0  0  0  0  0  0  0  0  0  0
   -1.1290    0.9973    0.7743 C   0  0  0  0  0  0  0  0  0  0  0  0
   -1.0592    0.8075    1.8507 H   0  0  0  0  0  0  0  0  0  0  0  0
   -1.7601    1.8768    0.6134 H   0  0  0  0  0  0  0  0  0  0  0  0
    0.2629    1.1743    0.1912 C   0  0  0  0  0  0  0  0  0  0  0  0
    0.9174    1.7366    0.8660 H   0  0  0  0  0  0  0  0  0  0  0  0
    0.2033    1.7180   -0.7574 H   0  0  0  0  0  0  0  0  0  0  0  0
    0.7614   -0.2519   -0.0652 C   0  0  1  0  0  0  0  0  0  0  0  0
    1.3155   -0.2600   -1.0093 H   0  0  0  0  0  0  0  0  0  0  0  0
    1.7805   -0.7230    1.0043 C   0  0  0  0  0  0  0  0  0  0  0  0
    2.8428   -0.1210    1.1086 O   0  0  0  0  0  0  0  0  0  0  0  0
    1.4439   -1.6457    1.9791 N   0  0  0  0  0  0  0  0  0  0  0  0
    0.7151   -2.2963    1.6973 H   0  0  0  0  0  0  0  0  0  0  0  0
    2.3979   -2.0992    2.9833 C   0  0  0  0  0  0  0  0  0  0  0  0
    2.7514   -1.2562    3.5859 H   0  0  0  0  0  0  0  0  0  0  0  0
    1.9247   -2.8243    3.6520 H   0  0  0  0  0  0  0  0  0  0  0  0
    3.2593   -2.5771    2.5052 H   0  0  0  0  0  0  0  0  0  0  0  0
  1  2  1  0  0  0  0
  2  3  1  0  0  0  0
  2  4  1  0  0  0  0
  2  5  1  0  0  0  0
  5  6  2  0  0  0  0
  5  7  1  0  0  0  0
  7  8  1  0  0  0  0
  7 17  1  0  0  0  0
  8  9  1  0  0  0  0
  8 10  1  0  0  0  0
  8 11  1  0  0  0  0
 11 12  1  0  0  0  0
 11 13  1  0  0  0  0
 11 14  1  0  0  0  0
 14 15  1  0  0  0  0
 14 16  1  0  0  0  0
 14 17  1  0  0  0  0
 17 18  1  0  0  0  0
 17 19  1  0  0  0  0
 19 20  2  0  0  0  0
 19 21  1  0  0  0  0
 21 22  1  0  0  0  0
 21 23  1  0  0  0  0
 23 24  1  0  0  0  0
 23 25  1  0  0  0  0
 23 26  1  0  0  0  0
M  END
$$$$

  -OEChem-11182114133D

 26 26  0     1  0  0  0  0  0999 V2000
   -1.7592   -4.1784   -0.7795 H   0  0  0  0  0  0  0  0  0  0  0  0
   -1.9164   -3.1417   -0.4687 C   0  0  0  0  0  0  0  0  0  0  0  0
   -2.4091   -3.1403    0.5064 H   0  0  0  0  0  0  0  0  0  0  0  0
   -2.5656   -2.6561   -1.2012 H   0  0  0  0  0  0  0  0  0  0  0  0
   -0.5820   -2.4118   -0.3834 C   0  0  0  0  0  0  0  0  0  0  0  0
    0.4363   -3.0816   -0.4641 O   0  0  0  0  0  0  0  0  0  0  0  0
   -0.4970   -1.0253   -0.2696 N   0  0  0  0  0  0  0  0  0  0  0  0
   -1.6805   -0.2342    0.0516 C   0  0  0  0  0  0  0  0  0  0  0  0
   -2.3866   -0.7640    0.6991 H   0  0  0  0  0  0  0  0  0  0  0  0
   -2.1961    0.0575   -0.8696 H   0  0  0  0  0  0  0  0  0  0  0  0
   -1.1421    0.9925    0.7738 C   0  0  0  0  0  0  0  0  0  0  0  0
   -1.0866    0.7980    1.8501 H   0  0  0  0  0  0  0  0  0  0  0  0
   -1.7667    1.8759    0.6087 H   0  0  0  0  0  0  0  0  0  0  0  0
    0.2569    1.1641    0.2092 C   0  0  0  0  0  0  0  0  0  0  0  0
    0.9009    1.7274    0.8928 H   0  0  0  0  0  0  0  0  0  0  0  0
    0.2104    1.7104   -0.7384 H   0  0  0  0  0  0  0  0  0  0  0  0
    0.7556   -0.2649   -0.0483 C   0  0  1  0  0  0  0  0  0  0  0  0
    1.3136   -0.2685   -0.9898 H   0  0  0  0  0  0  0  0  0  0  0  0
    1.7811   -0.7422    1.0189 C   0  0  0  0  0  0  0  0  0  0  0  0
    2.7422   -0.0251    1.2733 O   0  0  0  0  0  0  0  0  0  0  0  0
    1.5873   -1.8694    1.7970 N   0  0  0  0  0  0  0  0  0  0  0  0
    0.9953   -2.5743    1.3582 H   0  0  0  0  0  0  0  0  0  0  0  0
    2.5720   -2.3311    2.7676 C   0  0  0  0  0  0  0  0  0  0  0  0
    2.7453   -1.5667    3.5322 H   0  0  0  0  0  0  0  0  0  0  0  0
    2.2142   -3.2382    3.2640 H   0  0  0  0  0  0  0  0  0  0  0  0
    3.5221   -2.5570    2.2724 H   0  0  0  0  0  0  0  0  0  0  0  0
  1  2  1  0  0  0  0
  2  3  1  0  0  0  0
  2  4  1  0  0  0  0
  2  5  1  0  0  0  0
  5  6  2  0  0  0  0
  5  7  1  0  0  0  0
  7  8  1  0  0  0  0
  7 17  1  0  0  0  0
  8  9  1  0  0  0  0
  8 10  1  0  0  0  0
  8 11  1  0  0  0  0
 11 12  1  0  0  0  0
 11 13  1  0  0  0  0
 11 14  1  0  0  0  0
 14 15  1  0  0  0  0
 14 16  1  0  0  0  0
 14 17  1  0  0  0  0
 17 18  1  0  0  0  0
 17 19  1  0  0  0  0
 19 20  2  0  0  0  0
 19 21  1  0  0  0  0
 21 22  1  0  0  0  0
 21 23  1  0  0  0  0
 23 24  1  0  0  0  0
 23 25  1  0  0  0  0
 23 26  1  0  0  0  0
M  END
$$$$

  -OEChem-11182114133D

 26 26  0     1  0  0  0  0  0999 V2000
   -1.7821   -4.1841   -0.7351 H   0  0  0  0  0  0  0  0  0  0  0  0
   -1.9301   -3.1388   -0.4492 C   0  0  0  0  0  0  0  0  0  0  0  0
   -2.3983   -3.1118    0.5376 H   0  0  0  0  0  0  0  0  0  0  0  0
   -2.5968   -2.6718   -1.1782 H   0  0  0  0  0  0  0  0  0  0  0  0
   -0.5931   -2.4085   -0.4164 C   0  0  0  0  0  0  0  0  0  0  0  0
    0.4154   -3.0737   -0.6003 O   0  0  0  0  0  0  0  0  0  0  0  0
   -0.4997   -1.0242   -0.2773 N   0  0  0  0  0  0  0  0  0  0  0  0
   -1.6852   -0.2335    0.0408 C   0  0  0  0  0  0  0  0  0  0  0  0
   -2.3959   -0.7642    0.6819 H   0  0  0  0  0  0  0  0  0  0  0  0
   -2.1951    0.0624   -0.8823 H   0  0  0  0  0  0  0  0  0  0  0  0
   -1.1533    0.9885    0.7722 C   0  0  0  0  0  0  0  0  0  0  0  0
   -1.1079    0.7896    1.8483 H   0  0  0  0  0  0  0  0  0  0  0  0
   -1.7758    1.8729    0.6053 H   0  0  0  0  0  0  0  0  0  0  0  0
    0.2507    1.1620    0.2225 C   0  0  0  0  0  0  0  0  0  0  0  0
    0.8830    1.7297    0.9126 H   0  0  0  0  0  0  0  0  0  0  0  0
    0.2115    1.7104   -0.7245 H   0  0  0  0  0  0  0  0  0  0  0  0
    0.7545   -0.2674   -0.0383 C   0  0  1  0  0  0  0  0  0  0  0  0
    1.3170   -0.2627   -0.9770 H   0  0  0  0  0  0  0  0  0  0  0  0
    1.7818   -0.7594    1.0267 C   0  0  0  0  0  0  0  0  0  0  0  0
    2.6260    0.0245    1.4459 O   0  0  0  0  0  0  0  0  0  0  0  0
    1.7646   -2.0269    1.5795 N   0  0  0  0  0  0  0  0  0  0  0  0
    1.2585   -2.7225    1.0298 H   0  0  0  0  0  0  0  0  0  0  0  0
    2.7786   -2.5047    2.5113 C   0  0  0  0  0  0  0  0  0  0  0  0
    2.8047   -1.8747    3.4066 H   0  0  0  0  0  0  0  0  0  0  0  0
    2.5527   -3.5299    2.8194 H   0  0  0  0  0  0  0  0  0  0  0  0
    3.7675   -2.4925    2.0413 H   0  0  0  0  0  0  0  0  0  0  0  0
  1  2  1  0  0  0  0
  2  3  1  0  0  0  0
  2  4  1  0  0  0  0
  2  5  1  0  0  0  0
  5  6  2  0  0  0  0
  5  7  1  0  0  0  0
  7  8  1  0  0  0  0
  7 17  1  0  0  0  0
  8  9  1  0  0  0  0
  8 10  1  0  0  0  0
  8 11  1  0  0  0  0
 11 12  1  0  0  0  0
 11 13  1  0  0  0  0
 11 14  1  0  0  0  0
 14 15  1  0  0  0  0
 14 16  1  0  0  0  0
 14 17  1  0  0  0  0
 17 18  1  0  0  0  0
 17 19  1  0  0  0  0
 19 20  2  0  0  0  0
 19 21  1  0  0  0  0
 21 22  1  0  0  0  0
 21 23  1  0  0  0  0
 23 24  1  0  0  0  0
 23 25  1  0  0  0  0
 23 26  1  0  0  0  0
M  END
$$$$

  -OEChem-11182114133D

 26 26  0     1  0  0  0  0  0999 V2000
   -1.8186   -4.1822   -0.6904 H   0  0  0  0  0  0  0  0  0  0  0  0
   -1.9452   -3.1428   -0.3743 C   0  0  0  0  0  0  0  0  0  0  0  0
   -2.3433   -3.1346    0.6431 H   0  0  0  0  0  0  0  0  0  0  0  0
   -2.6606   -2.6622   -1.0459 H   0  0  0  0  0  0  0  0  0  0  0  0
   -0.6082   -2.4129   -0.4184 C   0  0  0  0  0  0  0  0  0  0  0  0
    0.3816   -3.0743   -0.6959 O   0  0  0  0  0  0  0  0  0  0  0  0
   -0.5046   -1.0290   -0.2786 N   0  0  0  0  0  0  0  0  0  0  0  0
   -1.6838   -0.2337    0.0533 C   0  0  0  0  0  0  0  0  0  0  0  0
   -2.3850   -0.7582    0.7102 H   0  0  0  0  0  0  0  0  0  0  0  0
   -2.2082    0.0564   -0.8635 H   0  0  0  0  0  0  0  0  0  0  0  0
   -1.1398    0.9922    0.7660 C   0  0  0  0  0  0  0  0  0  0  0  0
   -1.0800    0.8023    1.8429 H   0  0  0  0  0  0  0  0  0  0  0  0
   -1.7628    1.8766    0.6001 H   0  0  0  0  0  0  0  0  0  0  0  0
    0.2566    1.1597    0.1969 C   0  0  0  0  0  0  0  0  0  0  0  0
    0.8960    1.7404    0.8689 H   0  0  0  0  0  0  0  0  0  0  0  0
    0.2022    1.6971   -0.7555 H   0  0  0  0  0  0  0  0  0  0  0  0
    0.7560   -0.2741   -0.0602 C   0  0  1  0  0  0  0  0  0  0  0  0
    1.3052   -0.2741   -1.0068 H   0  0  0  0  0  0  0  0  0  0  0  0
    1.7974   -0.7764    0.9908 C   0  0  0  0  0  0  0  0  0  0  0  0
    2.5070    0.0343    1.5756 O   0  0  0  0  0  0  0  0  0  0  0  0
    1.9771   -2.1067    1.3211 N   0  0  0  0  0  0  0  0  0  0  0  0
    1.5267   -2.7805    0.6990 H   0  0  0  0  0  0  0  0  0  0  0  0
    3.0110   -2.5869    2.2296 C   0  0  0  0  0  0  0  0  0  0  0  0
    2.8900   -2.1376    3.2208 H   0  0  0  0  0  0  0  0  0  0  0  0
    2.9433   -3.6739    2.3342 H   0  0  0  0  0  0  0  0  0  0  0  0
    4.0055   -2.3357    1.8468 H   0  0  0  0  0  0  0  0  0  0  0  0
  1  2  1  0  0  0  0
  2  3  1  0  0  0  0
  2  4  1  0  0  0  0
  2  5  1  0  0  0  0
  5  6  2  0  0  0  0
  5  7  1  0  0  0  0
  7  8  1  0  0  0  0
  7 17  1  0  0  0  0
  8  9  1  0  0  0  0
  8 10  1  0  0  0  0
  8 11  1  0  0  0  0
 11 12  1  0  0  0  0
 11 13  1  0  0  0  0
 11 14  1  0  0  0  0
 14 15  1  0  0  0  0
 14 16  1  0  0  0  0
 14 17  1  0  0  0  0
 17 18  1  0  0  0  0
 17 19  1  0  0  0  0
 19 20  2  0  0  0  0
 19 21  1  0  0  0  0
 21 22  1  0  0  0  0
 21 23  1  0  0  0  0
 23 24  1  0  0  0  0
 23 25  1  0  0  0  0
 23 26  1  0  0  0  0
M  END
$$$$

  -OEChem-11182114133D

 26 26  0     1  0  0  0  0  0999 V2000
   -1.6874   -4.2046   -0.7527 H   0  0  0  0  0  0  0  0  0  0  0  0
   -1.8490   -3.1702   -0.4360 C   0  0  0  0  0  0  0  0  0  0  0  0
   -2.2413   -3.1772    0.5837 H   0  0  0  0  0  0  0  0  0  0  0  0
   -2.5846   -2.7143   -1.1032 H   0  0  0  0  0  0  0  0  0  0  0  0
   -0.5390   -2.3935   -0.4878 C   0  0  0  0  0  0  0  0  0  0  0  0
    0.4610   -3.0077   -0.8299 O   0  0  0  0  0  0  0  0  0  0  0  0
   -0.4769   -1.0127   -0.2971 N   0  0  0  0  0  0  0  0  0  0  0  0
   -1.6799   -0.2623    0.0546 C   0  0  0  0  0  0  0  0  0  0  0  0
   -2.3686   -0.8266    0.6913 H   0  0  0  0  0  0  0  0  0  0  0  0
   -2.2090    0.0418   -0.8548 H   0  0  0  0  0  0  0  0  0  0  0  0
   -1.1738    0.9551    0.8089 C   0  0  0  0  0  0  0  0  0  0  0  0
   -1.1123    0.7320    1.8794 H   0  0  0  0  0  0  0  0  0  0  0  0
   -1.8216    1.8259    0.6690 H   0  0  0  0  0  0  0  0  0  0  0  0
    0.2198    1.1816    0.2536 C   0  0  0  0  0  0  0  0  0  0  0  0
    0.8406    1.7610    0.9437 H   0  0  0  0  0  0  0  0  0  0  0  0
    0.1527    1.7458   -0.6822 H   0  0  0  0  0  0  0  0  0  0  0  0
    0.7595   -0.2292   -0.0461 C   0  0  1  0  0  0  0  0  0  0  0  0
    1.3156   -0.1803   -0.9873 H   0  0  0  0  0  0  0  0  0  0  0  0
    1.7997   -0.7566    0.9944 C   0  0  0  0  0  0  0  0  0  0  0  0
    2.2999    0.0091    1.8107 O   0  0  0  0  0  0  0  0  0  0  0  0
    2.2124   -2.0738    1.0533 N   0  0  0  0  0  0  0  0  0  0  0  0
    1.8292   -2.7014    0.3429 H   0  0  0  0  0  0  0  0  0  0  0  0
    3.2056   -2.5887    1.9871 C   0  0  0  0  0  0  0  0  0  0  0  0
    2.8712   -2.4458    3.0198 H   0  0  0  0  0  0  0  0  0  0  0  0
    3.3590   -3.6589    1.8185 H   0  0  0  0  0  0  0  0  0  0  0  0
    4.1636   -2.0761    1.8511 H   0  0  0  0  0  0  0  0  0  0  0  0
  1  2  1  0  0  0  0
  2  3  1  0  0  0  0
  2  4  1  0  0  0  0
  2  5  1  0  0  0  0
  5  6  2  0  0  0  0
  5  7  1  0  0  0  0
  7  8  1  0  0  0  0
  7 17  1  0  0  0  0
  8  9  1  0  0  0  0
  8 10  1  0  0  0  0
  8 11  1  0  0  0  0
 11 12  1  0  0  0  0
 11 13  1  0  0  0  0
 11 14  1  0  0  0  0
 14 15  1  0  0  0  0
 14 16  1  0  0  0  0
 14 17  1  0  0  0  0
 17 18  1  0  0  0  0
 17 19  1  0  0  0  0
 19 20  2  0  0  0  0
 19 21  1  0  0  0  0
 21 22  1  0  0  0  0
 21 23  1  0  0  0  0
 23 24  1  0  0  0  0
 23 25  1  0  0  0  0
 23 26  1  0  0  0  0
M  END
$$$$

  -OEChem-11182114133D

 26 26  0     1  0  0  0  0  0999 V2000
   -1.6561   -4.2147   -0.6466 H   0  0  0  0  0  0  0  0  0  0  0  0
   -1.8131   -3.1789   -0.3324 C   0  0  0  0  0  0  0  0  0  0  0  0
   -2.1508   -3.1788    0.7067 H   0  0  0  0  0  0  0  0  0  0  0  0
   -2.5881   -2.7381   -0.9642 H   0  0  0  0  0  0  0  0  0  0  0  0
   -0.5171   -2.3882   -0.4603 C   0  0  0  0  0  0  0  0  0  0  0  0
    0.4754   -2.9958   -0.8353 O   0  0  0  0  0  0  0  0  0  0  0  0
   -0.4660   -1.0033   -0.2994 N   0  0  0  0  0  0  0  0  0  0  0  0
   -1.6565   -0.2565    0.0991 C   0  0  0  0  0  0  0  0  0  0  0  0
   -2.3128   -0.8188    0.7707 H   0  0  0  0  0  0  0  0  0  0  0  0
   -2.2270    0.0362   -0.7888 H   0  0  0  0  0  0  0  0  0  0  0  0
   -1.1230    0.9709    0.8189 C   0  0  0  0  0  0  0  0  0  0  0  0
   -1.0107    0.7572    1.8873 H   0  0  0  0  0  0  0  0  0  0  0  0
   -1.7819    1.8368    0.7026 H   0  0  0  0  0  0  0  0  0  0  0  0
    0.2429    1.2004    0.1984 C   0  0  0  0  0  0  0  0  0  0  0  0
    0.8964    1.7863    0.8524 H   0  0  0  0  0  0  0  0  0  0  0  0
    0.1288    1.7556   -0.7382 H   0  0  0  0  0  0  0  0  0  0  0  0
    0.7731   -0.2103   -0.1119 C   0  0  1  0  0  0  0  0  0  0  0  0
    1.2957   -0.1676   -1.0722 H   0  0  0  0  0  0  0  0  0  0  0  0
    1.8364   -0.7364    0.9018 C   0  0  0  0  0  0  0  0  0  0  0  0
    2.1641   -0.0599    1.8705 O   0  0  0  0  0  0  0  0  0  0  0  0
    2.4482   -1.9668    0.7600 N   0  0  0  0  0  0  0  0  0  0  0  0
    2.0649   -2.5741    0.0313 H   0  0  0  0  0  0  0  0  0  0  0  0
    3.3744   -2.5360    1.7303 C   0  0  0  0  0  0  0  0  0  0  0  0
    2.8812   -2.6691    2.6986 H   0  0  0  0  0  0  0  0  0  0  0  0
    3.7285   -3.5117    1.3841 H   0  0  0  0  0  0  0  0  0  0  0  0
    4.2422   -1.8814    1.8623 H   0  0  0  0  0  0  0  0  0  0  0  0
  1  2  1  0  0  0  0
  2  3  1  0  0  0  0
  2  4  1  0  0  0  0
  2  5  1  0  0  0  0
  5  6  2  0  0  0  0
  5  7  1  0  0  0  0
  7  8  1  0  0  0  0
  7 17  1  0  0  0  0
  8  9  1  0  0  0  0
  8 10  1  0  0  0  0
  8 11  1  0  0  0  0
 11 12  1  0  0  0  0
 11 13  1  0  0  0  0
 11 14  1  0  0  0  0
 14 15  1  0  0  0  0
 14 16  1  0  0  0  0
 14 17  1  0  0  0  0
 17 18  1  0  0  0  0
 17 19  1  0  0  0  0
 19 20  2  0  0  0  0
 19 21  1  0  0  0  0
 21 22  1  0  0  0  0
 21 23  1  0  0  0  0
 23 24  1  0  0  0  0
 23 25  1  0  0  0  0
 23 26  1  0  0  0  0
M  END
$$$$

  -OEChem-11182114133D

 26 26  0     1  0  0  0  0  0999 V2000
   -1.5579   -4.2265   -0.6345 H   0  0  0  0  0  0  0  0  0  0  0  0
   -1.7396   -3.1950   -0.3198 C   0  0  0  0  0  0  0  0  0  0  0  0
   -2.0755   -3.2027    0.7199 H   0  0  0  0  0  0  0  0  0  0  0  0
   -2.5262   -2.7733   -0.9502 H   0  0  0  0  0  0  0  0  0  0  0  0
   -0.4637   -2.3730   -0.4502 C   0  0  0  0  0  0  0  0  0  0  0  0
    0.5510   -2.9547   -0.8087 O   0  0  0  0  0  0  0  0  0  0  0  0
   -0.4512   -0.9859   -0.3065 N   0  0  0  0  0  0  0  0  0  0  0  0
   -1.6461   -0.2617    0.1178 C   0  0  0  0  0  0  0  0  0  0  0  0
   -2.2810   -0.8395    0.7969 H   0  0  0  0  0  0  0  0  0  0  0  0
   -2.2373    0.0282   -0.7573 H   0  0  0  0  0  0  0  0  0  0  0  0
   -1.1151    0.9685    0.8370 C   0  0  0  0  0  0  0  0  0  0  0  0
   -0.9801    0.7481    1.9014 H   0  0  0  0  0  0  0  0  0  0  0  0
   -1.7878    1.8262    0.7395 H   0  0  0  0  0  0  0  0  0  0  0  0
    0.2370    1.2215    0.1924 C   0  0  0  0  0  0  0  0  0  0  0  0
    0.8998    1.8025    0.8420 H   0  0  0  0  0  0  0  0  0  0  0  0
    0.1004    1.7848   -0.7363 H   0  0  0  0  0  0  0  0  0  0  0  0
    0.7773   -0.1789   -0.1370 C   0  0  1  0  0  0  0  0  0  0  0  0
    1.2950   -0.1253   -1.0996 H   0  0  0  0  0  0  0  0  0  0  0  0
    1.8308   -0.7089    0.8789 C   0  0  0  0  0  0  0  0  0  0  0  0
    1.9870   -0.1609    1.9650 O   0  0  0  0  0  0  0  0  0  0  0  0
    2.6403   -1.7859    0.5721 N   0  0  0  0  0  0  0  0  0  0  0  0
    2.3024   -2.3650   -0.2009 H   0  0  0  0  0  0  0  0  0  0  0  0
    3.5590   -2.3899    1.5284 C   0  0  0  0  0  0  0  0  0  0  0  0
    3.0113   -2.7783    2.3932 H   0  0  0  0  0  0  0  0  0  0  0  0
    4.0999   -3.2171    1.0590 H   0  0  0  0  0  0  0  0  0  0  0  0
    4.2911   -1.6533    1.8750 H   0  0  0  0  0  0  0  0  0  0  0  0
  1  2  1  0  0  0  0
  2  3  1  0  0  0  0
  2  4  1  0  0  0  0
  2  5  1  0  0  0  0
  5  6  2  0  0  0  0
  5  7  1  0  0  0  0
  7  8  1  0  0  0  0
  7 17  1  0  0  0  0
  8  9  1  0  0  0  0
  8 10  1  0  0  0  0
  8 11  1  0  0  0  0
 11 12  1  0  0  0  0
 11 13  1  0  0  0  0
 11 14  1  0  0  0  0
 14 15  1  0  0  0  0
 14 16  1  0  0  0  0
 14 17  1  0  0  0  0
 17 18  1  0  0  0  0
 17 19  1  0  0  0  0
 19 20  2  0  0  0  0
 19 21  1  0  0  0  0
 21 22  1  0  0  0  0
 21 23  1  0  0  0  0
 23 24  1  0  0  0  0
 23 25  1  0  0  0  0
 23 26  1  0  0  0  0
M  END
$$$$

  -OEChem-11182114133D

 26 26  0     1  0  0  0  0  0999 V2000
   -1.4634   -4.2393   -0.6078 H   0  0  0  0  0  0  0  0  0  0  0  0
   -1.6759   -3.2085   -0.3105 C   0  0  0  0  0  0  0  0  0  0  0  0
   -2.0191   -3.2090    0.7268 H   0  0  0  0  0  0  0  0  0  0  0  0
   -2.4685   -2.8172   -0.9527 H   0  0  0  0  0  0  0  0  0  0  0  0
   -0.4224   -2.3544   -0.4449 C   0  0  0  0  0  0  0  0  0  0  0  0
    0.6155   -2.9093   -0.7824 O   0  0  0  0  0  0  0  0  0  0  0  0
   -0.4474   -0.9660   -0.3209 N   0  0  0  0  0  0  0  0  0  0  0  0
   -1.6443   -0.2581    0.1225 C   0  0  0  0  0  0  0  0  0  0  0  0
   -2.2658   -0.8486    0.8031 H   0  0  0  0  0  0  0  0  0  0  0  0
   -2.2481    0.0350   -0.7428 H   0  0  0  0  0  0  0  0  0  0  0  0
   -1.1114    0.9698    0.8468 C   0  0  0  0  0  0  0  0  0  0  0  0
   -0.9630    0.7404    1.9077 H   0  0  0  0  0  0  0  0  0  0  0  0
   -1.7902    1.8240    0.7653 H   0  0  0  0  0  0  0  0  0  0  0  0
    0.2325    1.2376    0.1877 C   0  0  0  0  0  0  0  0  0  0  0  0
    0.9034    1.8080    0.8388 H   0  0  0  0  0  0  0  0  0  0  0  0
    0.0839    1.8119   -0.7323 H   0  0  0  0  0  0  0  0  0  0  0  0
    0.7752   -0.1552   -0.1601 C   0  0  1  0  0  0  0  0  0  0  0  0
    1.2951   -0.0941   -1.1210 H   0  0  0  0  0  0  0  0  0  0  0  0
    1.8052   -0.6963    0.8684 C   0  0  0  0  0  0  0  0  0  0  0  0
    1.8021   -0.3007    2.0295 O   0  0  0  0  0  0  0  0  0  0  0  0
    2.7971   -1.5696    0.4635 N   0  0  0  0  0  0  0  0  0  0  0  0
    2.5612   -2.1019   -0.3758 H   0  0  0  0  0  0  0  0  0  0  0  0
    3.7407   -2.1691    1.3985 C   0  0  0  0  0  0  0  0  0  0  0  0
    3.2118   -2.7769    2.1398 H   0  0  0  0  0  0  0  0  0  0  0  0
    4.4463   -2.8105    0.8618 H   0  0  0  0  0  0  0  0  0  0  0  0
    4.3105   -1.3929    1.9199 H   0  0  0  0  0  0  0  0  0  0  0  0
  1  2  1  0  0  0  0
  2  3  1  0  0  0  0
  2  4  1  0  0  0  0
  2  5  1  0  0  0  0
  5  6  2  0  0  0  0
  5  7  1  0  0  0  0
  7  8  1  0  0  0  0
  7 17  1  0  0  0  0
  8  9  1  0  0  0  0
  8 10  1  0  0  0  0
  8 11  1  0  0  0  0
 11 12  1  0  0  0  0
 11 13  1  0  0  0  0
 11 14  1  0  0  0  0
 14 15  1  0  0  0  0
 14 16  1  0  0  0  0
 14 17  1  0  0  0  0
 17 18  1  0  0  0  0
 17 19  1  0  0  0  0
 19 20  2  0  0  0  0
 19 21  1  0  0  0  0
 21 22  1  0  0  0  0
 21 23  1  0  0  0  0
 23 24  1  0  0  0  0
 23 25  1  0  0  0  0
 23 26  1  0  0  0  0
M  END
$$$$

  -OEChem-11182114133D

 26 26  0     1  0  0  0  0  0999 V2000
   -1.4086   -4.2438   -0.5973 H   0  0  0  0  0  0  0  0  0  0  0  0
   -1.6352   -3.2172   -0.2962 C   0  0  0  0  0  0  0  0  0  0  0  0
   -1.9658   -3.2246    0.7451 H   0  0  0  0  0  0  0  0  0  0  0  0
   -2.4419   -2.8387   -0.9285 H   0  0  0  0  0  0  0  0  0  0  0  0
   -0.3983   -2.3416   -0.4438 C   0  0  0  0  0  0  0  0  0  0  0  0
    0.6535   -2.8778   -0.7700 O   0  0  0  0  0  0  0  0  0  0  0  0
   -0.4495   -0.9529   -0.3344 N   0  0  0  0  0  0  0  0  0  0  0  0
   -1.6471   -0.2568    0.1238 C   0  0  0  0  0  0  0  0  0  0  0  0
   -2.2576   -0.8564    0.8063 H   0  0  0  0  0  0  0  0  0  0  0  0
   -2.2607    0.0383   -0.7337 H   0  0  0  0  0  0  0  0  0  0  0  0
   -1.1125    0.9692    0.8511 C   0  0  0  0  0  0  0  0  0  0  0  0
   -0.9546    0.7339    1.9093 H   0  0  0  0  0  0  0  0  0  0  0  0
   -1.7962    1.8206    0.7808 H   0  0  0  0  0  0  0  0  0  0  0  0
    0.2248    1.2476    0.1809 C   0  0  0  0  0  0  0  0  0  0  0  0
    0.9010    1.8090    0.8346 H   0  0  0  0  0  0  0  0  0  0  0  0
    0.0676    1.8308   -0.7321 H   0  0  0  0  0  0  0  0  0  0  0  0
    0.7691   -0.1393   -0.1805 C   0  0  1  0  0  0  0  0  0  0  0  0
    1.2877   -0.0735   -1.1418 H   0  0  0  0  0  0  0  0  0  0  0  0
    1.7868   -0.6830    0.8553 C   0  0  0  0  0  0  0  0  0  0  0  0
    1.6270   -0.4806    2.0547 O   0  0  0  0  0  0  0  0  0  0  0  0
    2.9439   -1.3044    0.4232 N   0  0  0  0  0  0  0  0  0  0  0  0
    2.8854   -1.7011   -0.5129 H   0  0  0  0  0  0  0  0  0  0  0  0
    3.9005   -1.8978    1.3487 C   0  0  0  0  0  0  0  0  0  0  0  0
    3.4285   -2.7000    1.9254 H   0  0  0  0  0  0  0  0  0  0  0  0
    4.7471   -2.3173    0.7970 H   0  0  0  0  0  0  0  0  0  0  0  0
    4.2833   -1.1423    2.0428 H   0  0  0  0  0  0  0  0  0  0  0  0
  1  2  1  0  0  0  0
  2  3  1  0  0  0  0
  2  4  1  0  0  0  0
  2  5  1  0  0  0  0
  5  6  2  0  0  0  0
  5  7  1  0  0  0  0
  7  8  1  0  0  0  0
  7 17  1  0  0  0  0
  8  9  1  0  0  0  0
  8 10  1  0  0  0  0
  8 11  1  0  0  0  0
 11 12  1  0  0  0  0
 11 13  1  0  0  0  0
 11 14  1  0  0  0  0
 14 15  1  0  0  0  0
 14 16  1  0  0  0  0
 14 17  1  0  0  0  0
 17 18  1  0  0  0  0
 17 19  1  0  0  0  0
 19 20  2  0  0  0  0
 19 21  1  0  0  0  0
 21 22  1  0  0  0  0
 21 23  1  0  0  0  0
 23 24  1  0  0  0  0
 23 25  1  0  0  0  0
 23 26  1  0  0  0  0
M  END
$$$$

  -OEChem-11182114133D

 26 26  0     1  0  0  0  0  0999 V2000
   -1.3884   -4.2476   -0.5886 H   0  0  0  0  0  0  0  0  0  0  0  0
   -1.6192   -3.2242   -0.2800 C   0  0  0  0  0  0  0  0  0  0  0  0
   -1.9312   -3.2372    0.7670 H   0  0  0  0  0  0  0  0  0  0  0  0
   -2.4402   -2.8512   -0.8968 H   0  0  0  0  0  0  0  0  0  0  0  0
   -0.3924   -2.3375   -0.4449 C   0  0  0  0  0  0  0  0  0  0  0  0
    0.6626   -2.8657   -0.7733 O   0  0  0  0  0  0  0  0  0  0  0  0
   -0.4552   -0.9484   -0.3473 N   0  0  0  0  0  0  0  0  0  0  0  0
   -1.6517   -0.2562    0.1192 C   0  0  0  0  0  0  0  0  0  0  0  0
   -2.2578   -0.8594    0.8026 H   0  0  0  0  0  0  0  0  0  0  0  0
   -2.2704    0.0406   -0.7342 H   0  0  0  0  0  0  0  0  0  0  0  0
   -1.1142    0.9678    0.8485 C   0  0  0  0  0  0  0  0  0  0  0  0
   -0.9519    0.7286    1.9051 H   0  0  0  0  0  0  0  0  0  0  0  0
   -1.7987    1.8191    0.7841 H   0  0  0  0  0  0  0  0  0  0  0  0
    0.2200    1.2496    0.1724 C   0  0  0  0  0  0  0  0  0  0  0  0
    0.8995    1.8047    0.8278 H   0  0  0  0  0  0  0  0  0  0  0  0
    0.0597    1.8380   -0.7367 H   0  0  0  0  0  0  0  0  0  0  0  0
    0.7625   -0.1346   -0.1966 C   0  0  1  0  0  0  0  0  0  0  0  0
    1.2795   -0.0709   -1.1588 H   0  0  0  0  0  0  0  0  0  0  0  0
    1.7758   -0.6715    0.8452 C   0  0  0  0  0  0  0  0  0  0  0  0
    1.4897   -0.6889    2.0381 O   0  0  0  0  0  0  0  0  0  0  0  0
    3.0576   -1.0112    0.4523 N   0  0  0  0  0  0  0  0  0  0  0  0
    3.1776   -1.1928   -0.5406 H   0  0  0  0  0  0  0  0  0  0  0  0
    4.0287   -1.5884    1.3733 C   0  0  0  0  0  0  0  0  0  0  0  0
    3.6611   -2.5410    1.7693 H   0  0  0  0  0  0  0  0  0  0  0  0
    4.9767   -1.7687    0.8575 H   0  0  0  0  0  0  0  0  0  0  0  0
    4.2169   -0.9075    2.2100 H   0  0  0  0  0  0  0  0  0  0  0  0
  1  2  1  0  0  0  0
  2  3  1  0  0  0  0
  2  4  1  0  0  0  0
  2  5  1  0  0  0  0
  5  6  2  0  0  0  0
  5  7  1  0  0  0  0
  7  8  1  0  0  0  0
  7 17  1  0  0  0  0
  8  9  1  0  0  0  0
  8 10  1  0  0  0  0
  8 11  1  0  0  0  0
 11 12  1  0  0  0  0
 11 13  1  0  0  0  0
 11 14  1  0  0  0  0
 14 15  1  0  0  0  0
 14 16  1  0  0  0  0
 14 17  1  0  0  0  0
 17 18  1  0  0  0  0
 17 19  1  0  0  0  0
 19 20  2  0  0  0  0
 19 21  1  0  0  0  0
 21 22  1  0  0  0  0
 21 23  1  0  0  0  0
 23 24  1  0  0  0  0
 23 25  1  0  0  0  0
 23 26  1  0  0  0  0
M  END
$$$$

  -OEChem-11182114133D

 26 26  0     1  0  0  0  0  0999 V2000
   -1.3894   -4.2530   -0.5688 H   0  0  0  0  0  0  0  0  0  0  0  0
   -1.6195   -3.2273   -0.2671 C   0  0  0  0  0  0  0  0  0  0  0  0
   -1.9181   -3.2313    0.7839 H   0  0  0  0  0  0  0  0  0  0  0  0
   -2.4492   -2.8622   -0.8770 H   0  0  0  0  0  0  0  0  0  0  0  0
   -0.3978   -2.3383   -0.4552 C   0  0  0  0  0  0  0  0  0  0  0  0
    0.6522   -2.8643   -0.8025 O   0  0  0  0  0  0  0  0  0  0  0  0
   -0.4623   -0.9489   -0.3620 N   0  0  0  0  0  0  0  0  0  0  0  0
   -1.6558   -0.2566    0.1115 C   0  0  0  0  0  0  0  0  0  0  0  0
   -2.2633   -0.8614    0.7922 H   0  0  0  0  0  0  0  0  0  0  0  0
   -2.2747    0.0470   -0.7393 H   0  0  0  0  0  0  0  0  0  0  0  0
   -1.1127    0.9612    0.8469 C   0  0  0  0  0  0  0  0  0  0  0  0
   -0.9481    0.7134    1.9013 H   0  0  0  0  0  0  0  0  0  0  0  0
   -1.7954    1.8145    0.7907 H   0  0  0  0  0  0  0  0  0  0  0  0
    0.2208    1.2440    0.1699 C   0  0  0  0  0  0  0  0  0  0  0  0
    0.9030    1.7928    0.8277 H   0  0  0  0  0  0  0  0  0  0  0  0
    0.0598    1.8381   -0.7353 H   0  0  0  0  0  0  0  0  0  0  0  0
    0.7579   -0.1390   -0.2085 C   0  0  1  0  0  0  0  0  0  0  0  0
    1.2754   -0.0771   -1.1704 H   0  0  0  0  0  0  0  0  0  0  0  0
    1.7682   -0.6729    0.8376 C   0  0  0  0  0  0  0  0  0  0  0  0
    1.4030   -0.9160    1.9836 O   0  0  0  0  0  0  0  0  0  0  0  0
    3.1177   -0.7230    0.5362 N   0  0  0  0  0  0  0  0  0  0  0  0
    3.3630   -0.6621   -0.4474 H   0  0  0  0  0  0  0  0  0  0  0  0
    4.1102   -1.2517    1.4637 C   0  0  0  0  0  0  0  0  0  0  0  0
    3.8966   -2.3006    1.6949 H   0  0  0  0  0  0  0  0  0  0  0  0
    5.1098   -1.1893    1.0232 H   0  0  0  0  0  0  0  0  0  0  0  0
    4.1091   -0.6773    2.3961 H   0  0  0  0  0  0  0  0  0  0  0  0
  1  2  1  0  0  0  0
  2  3  1  0  0  0  0
  2  4  1  0  0  0  0
  2  5  1  0  0  0  0
  5  6  2  0  0  0  0
  5  7  1  0  0  0  0
  7  8  1  0  0  0  0
  7 17  1  0  0  0  0
  8  9  1  0  0  0  0
  8 10  1  0  0  0  0
  8 11  1  0  0  0  0
 11 12  1  0  0  0  0
 11 13  1  0  0  0  0
 11 14  1  0  0  0  0
 14 15  1  0  0  0  0
 14 16  1  0  0  0  0
 14 17  1  0  0  0  0
 17 18  1  0  0  0  0
 17 19  1  0  0  0  0
 19 20  2  0  0  0  0
 19 21  1  0  0  0  0
 21 22  1  0  0  0  0
 21 23  1  0  0  0  0
 23 24  1  0  0  0  0
 23 25  1  0  0  0  0
 23 26  1  0  0  0  0
M  END
$$$$

  -OEChem-11182114133D

 26 26  0     1  0  0  0  0  0999 V2000
   -1.4000   -4.2574   -0.5572 H   0  0  0  0  0  0  0  0  0  0  0  0
   -1.6267   -3.2301   -0.2589 C   0  0  0  0  0  0  0  0  0  0  0  0
   -1.9129   -3.2284    0.7955 H   0  0  0  0  0  0  0  0  0  0  0  0
   -2.4633   -2.8684   -0.8610 H   0  0  0  0  0  0  0  0  0  0  0  0
   -0.4068   -2.3425   -0.4659 C   0  0  0  0  0  0  0  0  0  0  0  0
    0.6345   -2.8688   -0.8385 O   0  0  0  0  0  0  0  0  0  0  0  0
   -0.4675   -0.9523   -0.3748 N   0  0  0  0  0  0  0  0  0  0  0  0
   -1.6569   -0.2570    0.1040 C   0  0  0  0  0  0  0  0  0  0  0  0
   -2.2664   -0.8618    0.7829 H   0  0  0  0  0  0  0  0  0  0  0  0
   -2.2758    0.0538   -0.7442 H   0  0  0  0  0  0  0  0  0  0  0  0
   -1.1064    0.9540    0.8443 C   0  0  0  0  0  0  0  0  0  0  0  0
   -0.9422    0.6999    1.8972 H   0  0  0  0  0  0  0  0  0  0  0  0
   -1.7848    1.8110    0.7929 H   0  0  0  0  0  0  0  0  0  0  0  0
    0.2283    1.2338    0.1686 C   0  0  0  0  0  0  0  0  0  0  0  0
    0.9129    1.7773    0.8285 H   0  0  0  0  0  0  0  0  0  0  0  0
    0.0703    1.8327   -0.7340 H   0  0  0  0  0  0  0  0  0  0  0  0
    0.7577   -0.1500   -0.2168 C   0  0  1  0  0  0  0  0  0  0  0  0
    1.2782   -0.0916   -1.1772 H   0  0  0  0  0  0  0  0  0  0  0  0
    1.7652   -0.6822    0.8329 C   0  0  0  0  0  0  0  0  0  0  0  0
    1.3701   -1.1282    1.9058 O   0  0  0  0  0  0  0  0  0  0  0  0
    3.1196   -0.4531    0.6641 N   0  0  0  0  0  0  0  0  0  0  0  0
    3.4245   -0.1657   -0.2607 H   0  0  0  0  0  0  0  0  0  0  0  0
    4.1233   -0.9144    1.6152 C   0  0  0  0  0  0  0  0  0  0  0  0
    4.0945   -2.0057    1.7023 H   0  0  0  0  0  0  0  0  0  0  0  0
    5.1228   -0.6189    1.2823 H   0  0  0  0  0  0  0  0  0  0  0  0
    3.9462   -0.4767    2.6033 H   0  0  0  0  0  0  0  0  0  0  0  0
  1  2  1  0  0  0  0
  2  3  1  0  0  0  0
  2  4  1  0  0  0  0
  2  5  1  0  0  0  0
  5  6  2  0  0  0  0
  5  7  1  0  0  0  0
  7  8  1  0  0  0  0
  7 17  1  0  0  0  0
  8  9  1  0  0  0  0
  8 10  1  0  0  0  0
  8 11  1  0  0  0  0
 11 12  1  0  0  0  0
 11 13  1  0  0  0  0
 11 14  1  0  0  0  0
 14 15  1  0  0  0  0
 14 16  1  0  0  0  0
 14 17  1  0  0  0  0
 17 18  1  0  0  0  0
 17 19  1  0  0  0  0
 19 20  2  0  0  0  0
 19 21  1  0  0  0  0
 21 22  1  0  0  0  0
 21 23  1  0  0  0  0
 23 24  1  0  0  0  0
 23 25  1  0  0  0  0
 23 26  1  0  0  0  0
M  END
$$$$

  -OEChem-11182114133D

 26 26  0     1  0  0  0  0  0999 V2000
   -1.4114   -4.2611   -0.5463 H   0  0  0  0  0  0  0  0  0  0  0  0
   -1.6336   -3.2323   -0.2495 C   0  0  0  0  0  0  0  0  0  0  0  0
   -1.9010   -3.2257    0.8099 H   0  0  0  0  0  0  0  0  0  0  0  0
   -2.4803   -2.8736   -0.8391 H   0  0  0  0  0  0  0  0  0  0  0  0
   -0.4174   -2.3460   -0.4818 C   0  0  0  0  0  0  0  0  0  0  0  0
    0.6103   -2.8718   -0.8908 O   0  0  0  0  0  0  0  0  0  0  0  0
   -0.4710   -0.9553   -0.3868 N   0  0  0  0  0  0  0  0  0  0  0  0
   -1.6564   -0.2563    0.0960 C   0  0  0  0  0  0  0  0  0  0  0  0
   -2.2698   -0.8612    0.7712 H   0  0  0  0  0  0  0  0  0  0  0  0
   -2.2732    0.0633   -0.7503 H   0  0  0  0  0  0  0  0  0  0  0  0
   -1.0990    0.9467    0.8424 C   0  0  0  0  0  0  0  0  0  0  0  0
   -0.9368    0.6858    1.8939 H   0  0  0  0  0  0  0  0  0  0  0  0
   -1.7721    1.8082    0.7954 H   0  0  0  0  0  0  0  0  0  0  0  0
    0.2380    1.2214    0.1696 C   0  0  0  0  0  0  0  0  0  0  0  0
    0.9232    1.7602    0.8326 H   0  0  0  0  0  0  0  0  0  0  0  0
    0.0831    1.8250   -0.7307 H   0  0  0  0  0  0  0  0  0  0  0  0
    0.7614   -0.1635   -0.2233 C   0  0  1  0  0  0  0  0  0  0  0  0
    1.2833   -0.1056   -1.1831 H   0  0  0  0  0  0  0  0  0  0  0  0
    1.7715   -0.6964    0.8261 C   0  0  0  0  0  0  0  0  0  0  0  0
    1.3878   -1.3262    1.8070 O   0  0  0  0  0  0  0  0  0  0  0  0
    3.0698   -0.2150    0.8254 N   0  0  0  0  0  0  0  0  0  0  0  0
    3.3816    0.2748   -0.0074 H   0  0  0  0  0  0  0  0  0  0  0  0
    4.0628   -0.6056    1.8190 C   0  0  0  0  0  0  0  0  0  0  0  0
    4.2330   -1.6868    1.7853 H   0  0  0  0  0  0  0  0  0  0  0  0
    5.0124   -0.0986    1.6236 H   0  0  0  0  0  0  0  0  0  0  0  0
    3.7280   -0.3327    2.8253 H   0  0  0  0  0  0  0  0  0  0  0  0
  1  2  1  0  0  0  0
  2  3  1  0  0  0  0
  2  4  1  0  0  0  0
  2  5  1  0  0  0  0
  5  6  2  0  0  0  0
  5  7  1  0  0  0  0
  7  8  1  0  0  0  0
  7 17  1  0  0  0  0
  8  9  1  0  0  0  0
  8 10  1  0  0  0  0
  8 11  1  0  0  0  0
 11 12  1  0  0  0  0
 11 13  1  0  0  0  0
 11 14  1  0  0  0  0
 14 15  1  0  0  0  0
 14 16  1  0  0  0  0
 14 17  1  0  0  0  0
 17 18  1  0  0  0  0
 17 19  1  0  0  0  0
 19 20  2  0  0  0  0
 19 21  1  0  0  0  0
 21 22  1  0  0  0  0
 21 23  1  0  0  0  0
 23 24  1  0  0  0  0
 23 25  1  0  0  0  0
 23 26  1  0  0  0  0
M  END
$$$$

  -OEChem-11182114133D

 26 26  0     1  0  0  0  0  0999 V2000
   -1.3974   -4.2640   -0.3214 H   0  0  0  0  0  0  0  0  0  0  0  0
   -1.6256   -3.2130   -0.1235 C   0  0  0  0  0  0  0  0  0  0  0  0
   -1.8684   -3.1054    0.9363 H   0  0  0  0  0  0  0  0  0  0  0  0
   -2.4895   -2.9248   -0.7266 H   0  0  0  0  0  0  0  0  0  0  0  0
   -0.4244   -2.3425   -0.4716 C   0  0  0  0  0  0  0  0  0  0  0  0
    0.5651   -2.9007   -0.9289 O   0  0  0  0  0  0  0  0  0  0  0  0
   -0.4589   -0.9454   -0.5075 N   0  0  0  0  0  0  0  0  0  0  0  0
   -1.6507   -0.2326   -0.0479 C   0  0  0  0  0  0  0  0  0  0  0  0
   -2.3374   -0.8455    0.5425 H   0  0  0  0  0  0  0  0  0  0  0  0
   -2.1967    0.1596   -0.9122 H   0  0  0  0  0  0  0  0  0  0  0  0
   -1.1271    0.9068    0.8141 C   0  0  0  0  0  0  0  0  0  0  0  0
   -1.0251    0.5705    1.8517 H   0  0  0  0  0  0  0  0  0  0  0  0
   -1.7868    1.7795    0.7903 H   0  0  0  0  0  0  0  0  0  0  0  0
    0.2412    1.2019    0.2318 C   0  0  0  0  0  0  0  0  0  0  0  0
    0.8915    1.6890    0.9653 H   0  0  0  0  0  0  0  0  0  0  0  0
    0.1409    1.8656   -0.6333 H   0  0  0  0  0  0  0  0  0  0  0  0
    0.7669   -0.1638   -0.2266 C   0  0  1  0  0  0  0  0  0  0  0  0
    1.2964   -0.0336   -1.1752 H   0  0  0  0  0  0  0  0  0  0  0  0
    1.8223   -0.7492    0.7557 C   0  0  0  0  0  0  0  0  0  0  0  0
    1.5192   -1.5955    1.5903 O   0  0  0  0  0  0  0  0  0  0  0  0
    2.9711   -0.0163    1.0094 N   0  0  0  0  0  0  0  0  0  0  0  0
    3.2086    0.7185    0.3507 H   0  0  0  0  0  0  0  0  0  0  0  0
    3.9359   -0.3649    2.0463 C   0  0  0  0  0  0  0  0  0  0  0  0
    4.3284   -1.3739    1.8808 H   0  0  0  0  0  0  0  0  0  0  0  0
    4.7738    0.3386    2.0350 H   0  0  0  0  0  0  0  0  0  0  0  0
    3.4672   -0.3267    3.0352 H   0  0  0  0  0  0  0  0  0  0  0  0
  1  2  1  0  0  0  0
  2  3  1  0  0  0  0
  2  4  1  0  0  0  0
  2  5  1  0  0  0  0
  5  6  2  0  0  0  0
  5  7  1  0  0  0  0
  7  8  1  0  0  0  0
  7 17  1  0  0  0  0
  8  9  1  0  0  0  0
  8 10  1  0  0  0  0
  8 11  1  0  0  0  0
 11 12  1  0  0  0  0
 11 13  1  0  0  0  0
 11 14  1  0  0  0  0
 14 15  1  0  0  0  0
 14 16  1  0  0  0  0
 14 17  1  0  0  0  0
 17 18  1  0  0  0  0
 17 19  1  0  0  0  0
 19 20  2  0  0  0  0
 19 21  1  0  0  0  0
 21 22  1  0  0  0  0
 21 23  1  0  0  0  0
 23 24  1  0  0  0  0
 23 25  1  0  0  0  0
 23 26  1  0  0  0  0
M  END
$$$$

  -OEChem-11182114133D

 26 26  0     1  0  0  0  0  0999 V2000
   -1.3699   -4.2657   -0.2590 H   0  0  0  0  0  0  0  0  0  0  0  0
   -1.6066   -3.2120   -0.0867 C   0  0  0  0  0  0  0  0  0  0  0  0
   -1.8270   -3.0776    0.9750 H   0  0  0  0  0  0  0  0  0  0  0  0
   -2.4870   -2.9506   -0.6784 H   0  0  0  0  0  0  0  0  0  0  0  0
   -0.4235   -2.3387   -0.4862 C   0  0  0  0  0  0  0  0  0  0  0  0
    0.5315   -2.8899   -1.0179 O   0  0  0  0  0  0  0  0  0  0  0  0
   -0.4529   -0.9415   -0.5048 N   0  0  0  0  0  0  0  0  0  0  0  0
   -1.6535   -0.2332   -0.0624 C   0  0  0  0  0  0  0  0  0  0  0  0
   -2.3415   -0.8444    0.5282 H   0  0  0  0  0  0  0  0  0  0  0  0
   -2.1942    0.1464   -0.9357 H   0  0  0  0  0  0  0  0  0  0  0  0
   -1.1472    0.9177    0.7906 C   0  0  0  0  0  0  0  0  0  0  0  0
   -1.0556    0.5946    1.8331 H   0  0  0  0  0  0  0  0  0  0  0  0
   -1.8118    1.7861    0.7486 H   0  0  0  0  0  0  0  0  0  0  0  0
    0.2255    1.2134    0.2205 C   0  0  0  0  0  0  0  0  0  0  0  0
    0.8544    1.7264    0.9537 H   0  0  0  0  0  0  0  0  0  0  0  0
    0.1277    1.8628   -0.6557 H   0  0  0  0  0  0  0  0  0  0  0  0
    0.7719   -0.1552   -0.2192 C   0  0  1  0  0  0  0  0  0  0  0  0
    1.2991   -0.0244   -1.1692 H   0  0  0  0  0  0  0  0  0  0  0  0
    1.8518   -0.7250    0.7550 C   0  0  0  0  0  0  0  0  0  0  0  0
    1.6759   -1.7473    1.4070 O   0  0  0  0  0  0  0  0  0  0  0  0
    2.8262    0.1308    1.2482 N   0  0  0  0  0  0  0  0  0  0  0  0
    2.9602    1.0110    0.7611 H   0  0  0  0  0  0  0  0  0  0  0  0
    3.7606   -0.2279    2.3104 C   0  0  0  0  0  0  0  0  0  0  0  0
    4.3412   -1.1122    2.0272 H   0  0  0  0  0  0  0  0  0  0  0  0
    4.4552    0.5966    2.4971 H   0  0  0  0  0  0  0  0  0  0  0  0
    3.2221   -0.4421    3.2395 H   0  0  0  0  0  0  0  0  0  0  0  0
  1  2  1  0  0  0  0
  2  3  1  0  0  0  0
  2  4  1  0  0  0  0
  2  5  1  0  0  0  0
  5  6  2  0  0  0  0
  5  7  1  0  0  0  0
  7  8  1  0  0  0  0
  7 17  1  0  0  0  0
  8  9  1  0  0  0  0
  8 10  1  0  0  0  0
  8 11  1  0  0  0  0
 11 12  1  0  0  0  0
 11 13  1  0  0  0  0
 11 14  1  0  0  0  0
 14 15  1  0  0  0  0
 14 16  1  0  0  0  0
 14 17  1  0  0  0  0
 17 18  1  0  0  0  0
 17 19  1  0  0  0  0
 19 20  2  0  0  0  0
 19 21  1  0  0  0  0
 21 22  1  0  0  0  0
 21 23  1  0  0  0  0
 23 24  1  0  0  0  0
 23 25  1  0  0  0  0
 23 26  1  0  0  0  0
M  END
$$$$

  -OEChem-11182114133D

 26 26  0     1  0  0  0  0  0999 V2000
   -1.3279   -4.2636   -0.1669 H   0  0  0  0  0  0  0  0  0  0  0  0
   -1.5754   -3.2080   -0.0237 C   0  0  0  0  0  0  0  0  0  0  0  0
   -1.7688   -3.0406    1.0384 H   0  0  0  0  0  0  0  0  0  0  0  0
   -2.4752   -2.9792   -0.5994 H   0  0  0  0  0  0  0  0  0  0  0  0
   -0.4160   -2.3333   -0.4856 C   0  0  0  0  0  0  0  0  0  0  0  0
    0.4940   -2.8814   -1.0919 O   0  0  0  0  0  0  0  0  0  0  0  0
   -0.4423   -0.9363   -0.4963 N   0  0  0  0  0  0  0  0  0  0  0  0
   -1.6602   -0.2308   -0.0977 C   0  0  0  0  0  0  0  0  0  0  0  0
   -2.3555   -0.8350    0.4917 H   0  0  0  0  0  0  0  0  0  0  0  0
   -2.1848    0.1217   -0.9920 H   0  0  0  0  0  0  0  0  0  0  0  0
   -1.1870    0.9450    0.7373 C   0  0  0  0  0  0  0  0  0  0  0  0
   -1.1204    0.6504    1.7900 H   0  0  0  0  0  0  0  0  0  0  0  0
   -1.8585    1.8053    0.6546 H   0  0  0  0  0  0  0  0  0  0  0  0
    0.1967    1.2406    0.1958 C   0  0  0  0  0  0  0  0  0  0  0  0
    0.7951    1.7918    0.9248 H   0  0  0  0  0  0  0  0  0  0  0  0
    0.1108    1.8619   -0.7021 H   0  0  0  0  0  0  0  0  0  0  0  0
    0.7716   -0.1339   -0.1974 C   0  0  1  0  0  0  0  0  0  0  0  0
    1.3096   -0.0114   -1.1424 H   0  0  0  0  0  0  0  0  0  0  0  0
    1.8610   -0.6822    0.7867 C   0  0  0  0  0  0  0  0  0  0  0  0
    1.9082   -1.8442    1.1649 O   0  0  0  0  0  0  0  0  0  0  0  0
    2.6219    0.2053    1.5351 N   0  0  0  0  0  0  0  0  0  0  0  0
    2.5930    1.1832    1.2664 H   0  0  0  0  0  0  0  0  0  0  0  0
    3.5605   -0.2025    2.5761 C   0  0  0  0  0  0  0  0  0  0  0  0
    4.3231   -0.8721    2.1643 H   0  0  0  0  0  0  0  0  0  0  0  0
    4.0617    0.6740    2.9975 H   0  0  0  0  0  0  0  0  0  0  0  0
    3.0352   -0.7212    3.3851 H   0  0  0  0  0  0  0  0  0  0  0  0
  1  2  1  0  0  0  0
  2  3  1  0  0  0  0
  2  4  1  0  0  0  0
  2  5  1  0  0  0  0
  5  6  2  0  0  0  0
  5  7  1  0  0  0  0
  7  8  1  0  0  0  0
  7 17  1  0  0  0  0
  8  9  1  0  0  0  0
  8 10  1  0  0  0  0
  8 11  1  0  0  0  0
 11 12  1  0  0  0  0
 11 13  1  0  0  0  0
 11 14  1  0  0  0  0
 14 15  1  0  0  0  0
 14 16  1  0  0  0  0
 14 17  1  0  0  0  0
 17 18  1  0  0  0  0
 17 19  1  0  0  0  0
 19 20  2  0  0  0  0
 19 21  1  0  0  0  0
 21 22  1  0  0  0  0
 21 23  1  0  0  0  0
 23 24  1  0  0  0  0
 23 25  1  0  0  0  0
 23 26  1  0  0  0  0
M  END
$$$$

  -OEChem-11182114133D

 26 26  0     1  0  0  0  0  0999 V2000
   -1.3107   -4.2519   -0.0588 H   0  0  0  0  0  0  0  0  0  0  0  0
   -1.5648   -3.1924    0.0371 C   0  0  0  0  0  0  0  0  0  0  0  0
   -1.7642   -2.9800    1.0900 H   0  0  0  0  0  0  0  0  0  0  0  0
   -2.4632   -2.9945   -0.5521 H   0  0  0  0  0  0  0  0  0  0  0  0
   -0.4083   -2.3328   -0.4593 C   0  0  0  0  0  0  0  0  0  0  0  0
    0.4809   -2.9019   -1.0724 O   0  0  0  0  0  0  0  0  0  0  0  0
   -0.4286   -0.9359   -0.4832 N   0  0  0  0  0  0  0  0  0  0  0  0
   -1.6609   -0.2225   -0.1452 C   0  0  0  0  0  0  0  0  0  0  0  0
   -2.3754   -0.8117    0.4359 H   0  0  0  0  0  0  0  0  0  0  0  0
   -2.1549    0.1023   -1.0670 H   0  0  0  0  0  0  0  0  0  0  0  0
   -1.2210    0.9794    0.6721 C   0  0  0  0  0  0  0  0  0  0  0  0
   -1.1896    0.7162    1.7346 H   0  0  0  0  0  0  0  0  0  0  0  0
   -1.8928    1.8336    0.5414 H   0  0  0  0  0  0  0  0  0  0  0  0
    0.1787    1.2662    0.1676 C   0  0  0  0  0  0  0  0  0  0  0  0
    0.7556    1.8488    0.8887 H   0  0  0  0  0  0  0  0  0  0  0  0
    0.1163    1.8550   -0.7539 H   0  0  0  0  0  0  0  0  0  0  0  0
    0.7692   -0.1163   -0.1667 C   0  0  1  0  0  0  0  0  0  0  0  0
    1.3347   -0.0117   -1.0980 H   0  0  0  0  0  0  0  0  0  0  0  0
    1.8325   -0.6544    0.8493 C   0  0  0  0  0  0  0  0  0  0  0  0
    2.2214   -1.8112    0.8746 O   0  0  0  0  0  0  0  0  0  0  0  0
    2.3535    0.1704    1.8363 N   0  0  0  0  0  0  0  0  0  0  0  0
    2.0703    1.1438    1.8326 H   0  0  0  0  0  0  0  0  0  0  0  0
    3.3456   -0.2626    2.8156 C   0  0  0  0  0  0  0  0  0  0  0  0
    4.2680   -0.5742    2.3142 H   0  0  0  0  0  0  0  0  0  0  0  0
    3.5838    0.5565    3.5008 H   0  0  0  0  0  0  0  0  0  0  0  0
    2.9630   -1.1034    3.4039 H   0  0  0  0  0  0  0  0  0  0  0  0
  1  2  1  0  0  0  0
  2  3  1  0  0  0  0
  2  4  1  0  0  0  0
  2  5  1  0  0  0  0
  5  6  2  0  0  0  0
  5  7  1  0  0  0  0
  7  8  1  0  0  0  0
  7 17  1  0  0  0  0
  8  9  1  0  0  0  0
  8 10  1  0  0  0  0
  8 11  1  0  0  0  0
 11 12  1  0  0  0  0
 11 13  1  0  0  0  0
 11 14  1  0  0  0  0
 14 15  1  0  0  0  0
 14 16  1  0  0  0  0
 14 17  1  0  0  0  0
 17 18  1  0  0  0  0
 17 19  1  0  0  0  0
 19 20  2  0  0  0  0
 19 21  1  0  0  0  0
 21 22  1  0  0  0  0
 21 23  1  0  0  0  0
 23 24  1  0  0  0  0
 23 25  1  0  0  0  0
 23 26  1  0  0  0  0
M  END
$$$$

  -OEChem-11182114133D

 26 26  0     1  0  0  0  0  0999 V2000
   -1.6194   -4.2460   -0.4808 H   0  0  0  0  0  0  0  0  0  0  0  0
   -1.8004   -3.1909   -0.2559 C   0  0  0  0  0  0  0  0  0  0  0  0
   -2.2801   -3.1230    0.7230 H   0  0  0  0  0  0  0  0  0  0  0  0
   -2.4714   -2.7872   -1.0178 H   0  0  0  0  0  0  0  0  0  0  0  0
   -0.4826   -2.4221   -0.2495 C   0  0  0  0  0  0  0  0  0  0  0  0
    0.5277   -3.0959   -0.3140 O   0  0  0  0  0  0  0  0  0  0  0  0
   -0.4328   -1.0254   -0.3180 N   0  0  0  0  0  0  0  0  0  0  0  0
   -1.6539   -0.2608   -0.0627 C   0  0  0  0  0  0  0  0  0  0  0  0
   -2.3851   -0.7966    0.5502 H   0  0  0  0  0  0  0  0  0  0  0  0
   -2.1258    0.0052   -1.0146 H   0  0  0  0  0  0  0  0  0  0  0  0
   -1.2049    0.9921    0.6788 C   0  0  0  0  0  0  0  0  0  0  0  0
   -1.1935    0.8038    1.7572 H   0  0  0  0  0  0  0  0  0  0  0  0
   -1.8590    1.8464    0.4777 H   0  0  0  0  0  0  0  0  0  0  0  0
    0.2058    1.2173    0.1742 C   0  0  0  0  0  0  0  0  0  0  0  0
    0.7966    1.8313    0.8590 H   0  0  0  0  0  0  0  0  0  0  0  0
    0.1678    1.7418   -0.7869 H   0  0  0  0  0  0  0  0  0  0  0  0
    0.7677   -0.1955   -0.0493 C   0  0  1  0  0  0  0  0  0  0  0  0
    1.3262   -0.1589   -0.9905 H   0  0  0  0  0  0  0  0  0  0  0  0
    1.8421   -0.6817    0.9701 C   0  0  0  0  0  0  0  0  0  0  0  0
    2.6876   -1.5059    0.6547 O   0  0  0  0  0  0  0  0  0  0  0  0
    2.1355    0.0759    2.0948 N   0  0  0  0  0  0  0  0  0  0  0  0
    1.4820    0.8097    2.3454 H   0  0  0  0  0  0  0  0  0  0  0  0
    3.2572   -0.1984    2.9870 C   0  0  0  0  0  0  0  0  0  0  0  0
    4.2077   -0.0635    2.4599 H   0  0  0  0  0  0  0  0  0  0  0  0
    3.2360    0.4835    3.8422 H   0  0  0  0  0  0  0  0  0  0  0  0
    3.2054   -1.2255    3.3634 H   0  0  0  0  0  0  0  0  0  0  0  0
  1  2  1  0  0  0  0
  2  3  1  0  0  0  0
  2  4  1  0  0  0  0
  2  5  1  0  0  0  0
  5  6  2  0  0  0  0
  5  7  1  0  0  0  0
  7  8  1  0  0  0  0
  7 17  1  0  0  0  0
  8  9  1  0  0  0  0
  8 10  1  0  0  0  0
  8 11  1  0  0  0  0
 11 12  1  0  0  0  0
 11 13  1  0  0  0  0
 11 14  1  0  0  0  0
 14 15  1  0  0  0  0
 14 16  1  0  0  0  0
 14 17  1  0  0  0  0
 17 18  1  0  0  0  0
 17 19  1  0  0  0  0
 19 20  2  0  0  0  0
 19 21  1  0  0  0  0
 21 22  1  0  0  0  0
 21 23  1  0  0  0  0
 23 24  1  0  0  0  0
 23 25  1  0  0  0  0
 23 26  1  0  0  0  0
M  END
$$$$

  -OEChem-11182114133D

 26 26  0     1  0  0  0  0  0999 V2000
   -1.5883   -4.2408   -0.5123 H   0  0  0  0  0  0  0  0  0  0  0  0
   -1.7874   -3.1889   -0.2878 C   0  0  0  0  0  0  0  0  0  0  0  0
   -2.3076   -3.1306    0.6709 H   0  0  0  0  0  0  0  0  0  0  0  0
   -2.4293   -2.7845   -1.0740 H   0  0  0  0  0  0  0  0  0  0  0  0
   -0.4775   -2.4110   -0.2228 C   0  0  0  0  0  0  0  0  0  0  0  0
    0.5434   -3.0726   -0.1849 O   0  0  0  0  0  0  0  0  0  0  0  0
   -0.4368   -1.0163   -0.3164 N   0  0  0  0  0  0  0  0  0  0  0  0
   -1.6532   -0.2506   -0.0472 C   0  0  0  0  0  0  0  0  0  0  0  0
   -2.3790   -0.7889    0.5703 H   0  0  0  0  0  0  0  0  0  0  0  0
   -2.1340    0.0203   -0.9933 H   0  0  0  0  0  0  0  0  0  0  0  0
   -1.1902    1.0003    0.6940 C   0  0  0  0  0  0  0  0  0  0  0  0
   -1.1649    0.8082    1.7715 H   0  0  0  0  0  0  0  0  0  0  0  0
   -1.8443    1.8574    0.5051 H   0  0  0  0  0  0  0  0  0  0  0  0
    0.2151    1.2234    0.1693 C   0  0  0  0  0  0  0  0  0  0  0  0
    0.8244    1.8213    0.8536 H   0  0  0  0  0  0  0  0  0  0  0  0
    0.1688    1.7560   -0.7868 H   0  0  0  0  0  0  0  0  0  0  0  0
    0.7659   -0.1893   -0.0650 C   0  0  1  0  0  0  0  0  0  0  0  0
    1.3181   -0.1557   -1.0102 H   0  0  0  0  0  0  0  0  0  0  0  0
    1.8282   -0.6810    0.9576 C   0  0  0  0  0  0  0  0  0  0  0  0
    2.8068   -1.3104    0.5788 O   0  0  0  0  0  0  0  0  0  0  0  0
    1.9114   -0.0968    2.2124 N   0  0  0  0  0  0  0  0  0  0  0  0
    1.1201    0.4592    2.5179 H   0  0  0  0  0  0  0  0  0  0  0  0
    2.9799   -0.3817    3.1635 C   0  0  0  0  0  0  0  0  0  0  0  0
    3.9498   -0.0820    2.7526 H   0  0  0  0  0  0  0  0  0  0  0  0
    2.8147    0.1694    4.0942 H   0  0  0  0  0  0  0  0  0  0  0  0
    3.0107   -1.4516    3.3951 H   0  0  0  0  0  0  0  0  0  0  0  0
  1  2  1  0  0  0  0
  2  3  1  0  0  0  0
  2  4  1  0  0  0  0
  2  5  1  0  0  0  0
  5  6  2  0  0  0  0
  5  7  1  0  0  0  0
  7  8  1  0  0  0  0
  7 17  1  0  0  0  0
  8  9  1  0  0  0  0
  8 10  1  0  0  0  0
  8 11  1  0  0  0  0
 11 12  1  0  0  0  0
 11 13  1  0  0  0  0
 11 14  1  0  0  0  0
 14 15  1  0  0  0  0
 14 16  1  0  0  0  0
 14 17  1  0  0  0  0
 17 18  1  0  0  0  0
 17 19  1  0  0  0  0
 19 20  2  0  0  0  0
 19 21  1  0  0  0  0
 21 22  1  0  0  0  0
 21 23  1  0  0  0  0
 23 24  1  0  0  0  0
 23 25  1  0  0  0  0
 23 26  1  0  0  0  0
M  END
$$$$

  -OEChem-11182114133D

 26 26  0     1  0  0  0  0  0999 V2000
   -1.5558   -4.2405   -0.4908 H   0  0  0  0  0  0  0  0  0  0  0  0
   -1.7661   -3.1880   -0.2793 C   0  0  0  0  0  0  0  0  0  0  0  0
   -2.2917   -3.1233    0.6760 H   0  0  0  0  0  0  0  0  0  0  0  0
   -2.4081   -2.7986   -1.0731 H   0  0  0  0  0  0  0  0  0  0  0  0
   -0.4643   -2.3970   -0.2180 C   0  0  0  0  0  0  0  0  0  0  0  0
    0.5665   -3.0436   -0.1590 O   0  0  0  0  0  0  0  0  0  0  0  0
   -0.4360   -1.0038   -0.3279 N   0  0  0  0  0  0  0  0  0  0  0  0
   -1.6493   -0.2392   -0.0426 C   0  0  0  0  0  0  0  0  0  0  0  0
   -2.3711   -0.7820    0.5758 H   0  0  0  0  0  0  0  0  0  0  0  0
   -2.1371    0.0401   -0.9826 H   0  0  0  0  0  0  0  0  0  0  0  0
   -1.1765    1.0057    0.7051 C   0  0  0  0  0  0  0  0  0  0  0  0
   -1.1418    0.8064    1.7808 H   0  0  0  0  0  0  0  0  0  0  0  0
   -1.8306    1.8656    0.5290 H   0  0  0  0  0  0  0  0  0  0  0  0
    0.2243    1.2307    0.1671 C   0  0  0  0  0  0  0  0  0  0  0  0
    0.8457    1.8101    0.8577 H   0  0  0  0  0  0  0  0  0  0  0  0
    0.1736    1.7763   -0.7812 H   0  0  0  0  0  0  0  0  0  0  0  0
    0.7674   -0.1794   -0.0837 C   0  0  1  0  0  0  0  0  0  0  0  0
    1.3172   -0.1440   -1.0303 H   0  0  0  0  0  0  0  0  0  0  0  0
    1.8189   -0.6739    0.9430 C   0  0  0  0  0  0  0  0  0  0  0  0
    2.8994   -1.1030    0.5595 O   0  0  0  0  0  0  0  0  0  0  0  0
    1.7055   -0.3131    2.2759 N   0  0  0  0  0  0  0  0  0  0  0  0
    0.8075    0.0461    2.5808 H   0  0  0  0  0  0  0  0  0  0  0  0
    2.7105   -0.6402    3.2800 C   0  0  0  0  0  0  0  0  0  0  0  0
    3.6698   -0.1760    3.0280 H   0  0  0  0  0  0  0  0  0  0  0  0
    2.3976   -0.2727    4.2619 H   0  0  0  0  0  0  0  0  0  0  0  0
    2.8494   -1.7248    3.3425 H   0  0  0  0  0  0  0  0  0  0  0  0
  1  2  1  0  0  0  0
  2  3  1  0  0  0  0
  2  4  1  0  0  0  0
  2  5  1  0  0  0  0
  5  6  2  0  0  0  0
  5  7  1  0  0  0  0
  7  8  1  0  0  0  0
  7 17  1  0  0  0  0
  8  9  1  0  0  0  0
  8 10  1  0  0  0  0
  8 11  1  0  0  0  0
 11 12  1  0  0  0  0
 11 13  1  0  0  0  0
 11 14  1  0  0  0  0
 14 15  1  0  0  0  0
 14 16  1  0  0  0  0
 14 17  1  0  0  0  0
 17 18  1  0  0  0  0
 17 19  1  0  0  0  0
 19 20  2  0  0  0  0
 19 21  1  0  0  0  0
 21 22  1  0  0  0  0
 21 23  1  0  0  0  0
 23 24  1  0  0  0  0
 23 25  1  0  0  0  0
 23 26  1  0  0  0  0
M  END
$$$$

  -OEChem-11182114133D

 26 26  0     1  0  0  0  0  0999 V2000
   -1.5321   -4.2383   -0.4614 H   0  0  0  0  0  0  0  0  0  0  0  0
   -1.7475   -3.1855   -0.2574 C   0  0  0  0  0  0  0  0  0  0  0  0
   -2.2634   -3.1155    0.7030 H   0  0  0  0  0  0  0  0  0  0  0  0
   -2.4007   -2.8078   -1.0476 H   0  0  0  0  0  0  0  0  0  0  0  0
   -0.4512   -2.3847   -0.2171 C   0  0  0  0  0  0  0  0  0  0  0  0
    0.5879   -3.0197   -0.1580 O   0  0  0  0  0  0  0  0  0  0  0  0
   -0.4327   -0.9924   -0.3371 N   0  0  0  0  0  0  0  0  0  0  0  0
   -1.6460   -0.2298   -0.0452 C   0  0  0  0  0  0  0  0  0  0  0  0
   -2.3663   -0.7756    0.5720 H   0  0  0  0  0  0  0  0  0  0  0  0
   -2.1360    0.0538   -0.9828 H   0  0  0  0  0  0  0  0  0  0  0  0
   -1.1712    1.0117    0.7079 C   0  0  0  0  0  0  0  0  0  0  0  0
   -1.1334    0.8093    1.7829 H   0  0  0  0  0  0  0  0  0  0  0  0
   -1.8256    1.8721    0.5362 H   0  0  0  0  0  0  0  0  0  0  0  0
    0.2283    1.2395    0.1667 C   0  0  0  0  0  0  0  0  0  0  0  0
    0.8528    1.8072    0.8646 H   0  0  0  0  0  0  0  0  0  0  0  0
    0.1778    1.7943   -0.7763 H   0  0  0  0  0  0  0  0  0  0  0  0
    0.7695   -0.1678   -0.0929 C   0  0  1  0  0  0  0  0  0  0  0  0
    1.3214   -0.1312   -1.0383 H   0  0  0  0  0  0  0  0  0  0  0  0
    1.8124   -0.6603    0.9400 C   0  0  0  0  0  0  0  0  0  0  0  0
    2.9695   -0.8625    0.5948 O   0  0  0  0  0  0  0  0  0  0  0  0
    1.5360   -0.5641    2.2936 N   0  0  0  0  0  0  0  0  0  0  0  0
    0.5632   -0.4380    2.5505 H   0  0  0  0  0  0  0  0  0  0  0  0
    2.4880   -0.9558    3.3256 C   0  0  0  0  0  0  0  0  0  0  0  0
    3.4014   -0.3560    3.2534 H   0  0  0  0  0  0  0  0  0  0  0  0
    2.0537   -0.8027    4.3181 H   0  0  0  0  0  0  0  0  0  0  0  0
    2.7515   -2.0136    3.2207 H   0  0  0  0  0  0  0  0  0  0  0  0
  1  2  1  0  0  0  0
  2  3  1  0  0  0  0
  2  4  1  0  0  0  0
  2  5  1  0  0  0  0
  5  6  2  0  0  0  0
  5  7  1  0  0  0  0
  7  8  1  0  0  0  0
  7 17  1  0  0  0  0
  8  9  1  0  0  0  0
  8 10  1  0  0  0  0
  8 11  1  0  0  0  0
 11 12  1  0  0  0  0
 11 13  1  0  0  0  0
 11 14  1  0  0  0  0
 14 15  1  0  0  0  0
 14 16  1  0  0  0  0
 14 17  1  0  0  0  0
 17 18  1  0  0  0  0
 17 19  1  0  0  0  0
 19 20  2  0  0  0  0
 19 21  1  0  0  0  0
 21 22  1  0  0  0  0
 21 23  1  0  0  0  0
 23 24  1  0  0  0  0
 23 25  1  0  0  0  0
 23 26  1  0  0  0  0
M  END
$$$$

  -OEChem-11182114133D

 26 26  0     1  0  0  0  0  0999 V2000
   -1.5377   -4.2348   -0.4628 H   0  0  0  0  0  0  0  0  0  0  0  0
   -1.7524   -3.1826   -0.2554 C   0  0  0  0  0  0  0  0  0  0  0  0
   -2.2663   -3.1151    0.7061 H   0  0  0  0  0  0  0  0  0  0  0  0
   -2.4077   -2.8029   -1.0430 H   0  0  0  0  0  0  0  0  0  0  0  0
   -0.4561   -2.3818   -0.2157 C   0  0  0  0  0  0  0  0  0  0  0  0
    0.5845   -3.0146   -0.1491 O   0  0  0  0  0  0  0  0  0  0  0  0
   -0.4346   -0.9903   -0.3419 N   0  0  0  0  0  0  0  0  0  0  0  0
   -1.6447   -0.2229   -0.0502 C   0  0  0  0  0  0  0  0  0  0  0  0
   -2.3710   -0.7683    0.5602 H   0  0  0  0  0  0  0  0  0  0  0  0
   -2.1288    0.0695   -0.9882 H   0  0  0  0  0  0  0  0  0  0  0  0
   -1.1658    1.0124    0.7113 C   0  0  0  0  0  0  0  0  0  0  0  0
   -1.1290    0.8026    1.7851 H   0  0  0  0  0  0  0  0  0  0  0  0
   -1.8163    1.8769    0.5452 H   0  0  0  0  0  0  0  0  0  0  0  0
    0.2356    1.2373    0.1748 C   0  0  0  0  0  0  0  0  0  0  0  0
    0.8609    1.7945    0.8805 H   0  0  0  0  0  0  0  0  0  0  0  0
    0.1919    1.7995   -0.7639 H   0  0  0  0  0  0  0  0  0  0  0  0
    0.7695   -0.1703   -0.0906 C   0  0  1  0  0  0  0  0  0  0  0  0
    1.3278   -0.1353   -1.0322 H   0  0  0  0  0  0  0  0  0  0  0  0
    1.8030   -0.6588    0.9513 C   0  0  0  0  0  0  0  0  0  0  0  0
    2.9984   -0.6181    0.6887 O   0  0  0  0  0  0  0  0  0  0  0  0
    1.4155   -0.8480    2.2670 N   0  0  0  0  0  0  0  0  0  0  0  0
    0.4201   -0.9497    2.4317 H   0  0  0  0  0  0  0  0  0  0  0  0
    2.3425   -1.2800    3.3051 C   0  0  0  0  0  0  0  0  0  0  0  0
    3.1483   -0.5489    3.4281 H   0  0  0  0  0  0  0  0  0  0  0  0
    1.8201   -1.3798    4.2612 H   0  0  0  0  0  0  0  0  0  0  0  0
    2.7813   -2.2491    3.0452 H   0  0  0  0  0  0  0  0  0  0  0  0
  1  2  1  0  0  0  0
  2  3  1  0  0  0  0
  2  4  1  0  0  0  0
  2  5  1  0  0  0  0
  5  6  2  0  0  0  0
  5  7  1  0  0  0  0
  7  8  1  0  0  0  0
  7 17  1  0  0  0  0
  8  9  1  0  0  0  0
  8 10  1  0  0  0  0
  8 11  1  0  0  0  0
 11 12  1  0  0  0  0
 11 13  1  0  0  0  0
 11 14  1  0  0  0  0
 14 15  1  0  0  0  0
 14 16  1  0  0  0  0
 14 17  1  0  0  0  0
 17 18  1  0  0  0  0
 17 19  1  0  0  0  0
 19 20  2  0  0  0  0
 19 21  1  0  0  0  0
 21 22  1  0  0  0  0
 21 23  1  0  0  0  0
 23 24  1  0  0  0  0
 23 25  1  0  0  0  0
 23 26  1  0  0  0  0
M  END
$$$$

  -OEChem-11182114133D

 26 26  0     1  0  0  0  0  0999 V2000
   -1.5770   -4.2282   -0.4899 H   0  0  0  0  0  0  0  0  0  0  0  0
   -1.7876   -3.1737   -0.2901 C   0  0  0  0  0  0  0  0  0  0  0  0
   -2.3339   -3.0995    0.6530 H   0  0  0  0  0  0  0  0  0  0  0  0
   -2.4106   -2.7874   -1.1006 H   0  0  0  0  0  0  0  0  0  0  0  0
   -0.4849   -2.3872   -0.2075 C   0  0  0  0  0  0  0  0  0  0  0  0
    0.5472   -3.0294   -0.1050 O   0  0  0  0  0  0  0  0  0  0  0  0
   -0.4444   -0.9967   -0.3345 N   0  0  0  0  0  0  0  0  0  0  0  0
   -1.6508   -0.2193   -0.0545 C   0  0  0  0  0  0  0  0  0  0  0  0
   -2.3871   -0.7578    0.5501 H   0  0  0  0  0  0  0  0  0  0  0  0
   -2.1242    0.0758   -0.9971 H   0  0  0  0  0  0  0  0  0  0  0  0
   -1.1696    1.0123    0.7108 C   0  0  0  0  0  0  0  0  0  0  0  0
   -1.1420    0.8008    1.7848 H   0  0  0  0  0  0  0  0  0  0  0  0
   -1.8123    1.8816    0.5408 H   0  0  0  0  0  0  0  0  0  0  0  0
    0.2381    1.2268    0.1881 C   0  0  0  0  0  0  0  0  0  0  0  0
    0.8599    1.7793    0.9007 H   0  0  0  0  0  0  0  0  0  0  0  0
    0.2080    1.7894   -0.7509 H   0  0  0  0  0  0  0  0  0  0  0  0
    0.7641   -0.1848   -0.0715 C   0  0  1  0  0  0  0  0  0  0  0  0
    1.3302   -0.1565   -1.0085 H   0  0  0  0  0  0  0  0  0  0  0  0
    1.7946   -0.6608    0.9798 C   0  0  0  0  0  0  0  0  0  0  0  0
    2.9771   -0.3789    0.8293 O   0  0  0  0  0  0  0  0  0  0  0  0
    1.3710   -1.1361    2.2091 N   0  0  0  0  0  0  0  0  0  0  0  0
    0.4203   -1.4882    2.2360 H   0  0  0  0  0  0  0  0  0  0  0  0
    2.3032   -1.5975    3.2298 C   0  0  0  0  0  0  0  0  0  0  0  0
    2.9768   -0.7878    3.5297 H   0  0  0  0  0  0  0  0  0  0  0  0
    1.7566   -1.9357    4.1151 H   0  0  0  0  0  0  0  0  0  0  0  0
    2.9023   -2.4321    2.8503 H   0  0  0  0  0  0  0  0  0  0  0  0
  1  2  1  0  0  0  0
  2  3  1  0  0  0  0
  2  4  1  0  0  0  0
  2  5  1  0  0  0  0
  5  6  2  0  0  0  0
  5  7  1  0  0  0  0
  7  8  1  0  0  0  0
  7 17  1  0  0  0  0
  8  9  1  0  0  0  0
  8 10  1  0  0  0  0
  8 11  1  0  0  0  0
 11 12  1  0  0  0  0
 11 13  1  0  0  0  0
 11 14  1  0  0  0  0
 14 15  1  0  0  0  0
 14 16  1  0  0  0  0
 14 17  1  0  0  0  0
 17 18  1  0  0  0  0
 17 19  1  0  0  0  0
 19 20  2  0  0  0  0
 19 21  1  0  0  0  0
 21 22  1  0  0  0  0
 21 23  1  0  0  0  0
 23 24  1  0  0  0  0
 23 25  1  0  0  0  0
 23 26  1  0  0  0  0
M  END
$$$$

  -OEChem-11182114133D

 26 26  0     1  0  0  0  0  0999 V2000
   -1.6706   -4.2101   -0.5624 H   0  0  0  0  0  0  0  0  0  0  0  0
   -1.8617   -3.1547   -0.3481 C   0  0  0  0  0  0  0  0  0  0  0  0
   -2.4256   -3.0851    0.5850 H   0  0  0  0  0  0  0  0  0  0  0  0
   -2.4597   -2.7404   -1.1636 H   0  0  0  0  0  0  0  0  0  0  0  0
   -0.5443   -2.3986   -0.2248 C   0  0  0  0  0  0  0  0  0  0  0  0
    0.4701   -3.0655   -0.1018 O   0  0  0  0  0  0  0  0  0  0  0  0
   -0.4664   -1.0087   -0.3292 N   0  0  0  0  0  0  0  0  0  0  0  0
   -1.6647   -0.2125   -0.0662 C   0  0  0  0  0  0  0  0  0  0  0  0
   -2.4187   -0.7415    0.5248 H   0  0  0  0  0  0  0  0  0  0  0  0
   -2.1184    0.0941   -1.0147 H   0  0  0  0  0  0  0  0  0  0  0  0
   -1.1785    1.0081    0.7117 C   0  0  0  0  0  0  0  0  0  0  0  0
   -1.1723    0.7911    1.7851 H   0  0  0  0  0  0  0  0  0  0  0  0
   -1.8040    1.8885    0.5344 H   0  0  0  0  0  0  0  0  0  0  0  0
    0.2407    1.2022    0.2155 C   0  0  0  0  0  0  0  0  0  0  0  0
    0.8556    1.7453    0.9414 H   0  0  0  0  0  0  0  0  0  0  0  0
    0.2368    1.7684   -0.7218 H   0  0  0  0  0  0  0  0  0  0  0  0
    0.7521   -0.2166   -0.0406 C   0  0  1  0  0  0  0  0  0  0  0  0
    1.3264   -0.1924   -0.9725 H   0  0  0  0  0  0  0  0  0  0  0  0
    1.7869   -0.6888    1.0126 C   0  0  0  0  0  0  0  0  0  0  0  0
    2.9013   -0.1794    1.0043 O   0  0  0  0  0  0  0  0  0  0  0  0
    1.4118   -1.4426    2.1113 N   0  0  0  0  0  0  0  0  0  0  0  0
    0.6083   -2.0422    1.9462 H   0  0  0  0  0  0  0  0  0  0  0  0
    2.3735   -1.8747    3.1177 C   0  0  0  0  0  0  0  0  0  0  0  0
    2.8505   -1.0099    3.5909 H   0  0  0  0  0  0  0  0  0  0  0  0
    1.8693   -2.4565    3.8951 H   0  0  0  0  0  0  0  0  0  0  0  0
    3.1488   -2.5000    2.6624 H   0  0  0  0  0  0  0  0  0  0  0  0
  1  2  1  0  0  0  0
  2  3  1  0  0  0  0
  2  4  1  0  0  0  0
  2  5  1  0  0  0  0
  5  6  2  0  0  0  0
  5  7  1  0  0  0  0
  7  8  1  0  0  0  0
  7 17  1  0  0  0  0
  8  9  1  0  0  0  0
  8 10  1  0  0  0  0
  8 11  1  0  0  0  0
 11 12  1  0  0  0  0
 11 13  1  0  0  0  0
 11 14  1  0  0  0  0
 14 15  1  0  0  0  0
 14 16  1  0  0  0  0
 14 17  1  0  0  0  0
 17 18  1  0  0  0  0
 17 19  1  0  0  0  0
 19 20  2  0  0  0  0
 19 21  1  0  0  0  0
 21 22  1  0  0  0  0
 21 23  1  0  0  0  0
 23 24  1  0  0  0  0
 23 25  1  0  0  0  0
 23 26  1  0  0  0  0
M  END
$$$$

  -OEChem-11182114133D

 26 26  0     1  0  0  0  0  0999 V2000
   -1.7573   -4.1908   -0.6173 H   0  0  0  0  0  0  0  0  0  0  0  0
   -1.9253   -3.1359   -0.3818 C   0  0  0  0  0  0  0  0  0  0  0  0
   -2.4804   -3.0724    0.5571 H   0  0  0  0  0  0  0  0  0  0  0  0
   -2.5210   -2.6951   -1.1849 H   0  0  0  0  0  0  0  0  0  0  0  0
   -0.5915   -2.4088   -0.2546 C   0  0  0  0  0  0  0  0  0  0  0  0
    0.4107   -3.1021   -0.1805 O   0  0  0  0  0  0  0  0  0  0  0  0
   -0.4829   -1.0188   -0.3293 N   0  0  0  0  0  0  0  0  0  0  0  0
   -1.6760   -0.2092   -0.0796 C   0  0  0  0  0  0  0  0  0  0  0  0
   -2.4449   -0.7314    0.4984 H   0  0  0  0  0  0  0  0  0  0  0  0
   -2.1121    0.1070   -1.0332 H   0  0  0  0  0  0  0  0  0  0  0  0
   -1.1915    1.0010    0.7116 C   0  0  0  0  0  0  0  0  0  0  0  0
   -1.2062    0.7788    1.7837 H   0  0  0  0  0  0  0  0  0  0  0  0
   -1.8045    1.8890    0.5279 H   0  0  0  0  0  0  0  0  0  0  0  0
    0.2372    1.1815    0.2417 C   0  0  0  0  0  0  0  0  0  0  0  0
    0.8403    1.7193    0.9812 H   0  0  0  0  0  0  0  0  0  0  0  0
    0.2553    1.7521   -0.6927 H   0  0  0  0  0  0  0  0  0  0  0  0
    0.7423   -0.2423   -0.0138 C   0  0  1  0  0  0  0  0  0  0  0  0
    1.3242   -0.2164   -0.9407 H   0  0  0  0  0  0  0  0  0  0  0  0
    1.7818   -0.7163    1.0400 C   0  0  0  0  0  0  0  0  0  0  0  0
    2.8045   -0.0551    1.1792 O   0  0  0  0  0  0  0  0  0  0  0  0
    1.5179   -1.7101    1.9657 N   0  0  0  0  0  0  0  0  0  0  0  0
    0.8623   -2.4140    1.6291 H   0  0  0  0  0  0  0  0  0  0  0  0
    2.5032   -2.1383    2.9510 C   0  0  0  0  0  0  0  0  0  0  0  0
    2.7880   -1.3023    3.5983 H   0  0  0  0  0  0  0  0  0  0  0  0
    2.0869   -2.9320    3.5787 H   0  0  0  0  0  0  0  0  0  0  0  0
    3.4002   -2.5220    2.4539 H   0  0  0  0  0  0  0  0  0  0  0  0
  1  2  1  0  0  0  0
  2  3  1  0  0  0  0
  2  4  1  0  0  0  0
  2  5  1  0  0  0  0
  5  6  2  0  0  0  0
  5  7  1  0  0  0  0
  7  8  1  0  0  0  0
  7 17  1  0  0  0  0
  8  9  1  0  0  0  0
  8 10  1  0  0  0  0
  8 11  1  0  0  0  0
 11 12  1  0  0  0  0
 11 13  1  0  0  0  0
 11 14  1  0  0  0  0
 14 15  1  0  0  0  0
 14 16  1  0  0  0  0
 14 17  1  0  0  0  0
 17 18  1  0  0  0  0
 17 19  1  0  0  0  0
 19 20  2  0  0  0  0
 19 21  1  0  0  0  0
 21 22  1  0  0  0  0
 21 23  1  0  0  0  0
 23 24  1  0  0  0  0
 23 25  1  0  0  0  0
 23 26  1  0  0  0  0
M  END
$$$$

  -OEChem-11182114133D

 26 26  0     1  0  0  0  0  0999 V2000
   -1.8180   -4.1834   -0.6060 H   0  0  0  0  0  0  0  0  0  0  0  0
   -1.9641   -3.1239   -0.3765 C   0  0  0  0  0  0  0  0  0  0  0  0
   -2.4879   -3.0448    0.5790 H   0  0  0  0  0  0  0  0  0  0  0  0
   -2.5796   -2.6830   -1.1643 H   0  0  0  0  0  0  0  0  0  0  0  0
   -0.6178   -2.4119   -0.2987 C   0  0  0  0  0  0  0  0  0  0  0  0
    0.3785   -3.1176   -0.3304 O   0  0  0  0  0  0  0  0  0  0  0  0
   -0.4922   -1.0216   -0.3394 N   0  0  0  0  0  0  0  0  0  0  0  0
   -1.6834   -0.2049   -0.1002 C   0  0  0  0  0  0  0  0  0  0  0  0
   -2.4672   -0.7245    0.4592 H   0  0  0  0  0  0  0  0  0  0  0  0
   -2.1002    0.1240   -1.0581 H   0  0  0  0  0  0  0  0  0  0  0  0
   -1.2067    0.9932    0.7101 C   0  0  0  0  0  0  0  0  0  0  0  0
   -1.2434    0.7616    1.7798 H   0  0  0  0  0  0  0  0  0  0  0  0
   -1.8105    1.8866    0.5223 H   0  0  0  0  0  0  0  0  0  0  0  0
    0.2304    1.1681    0.2685 C   0  0  0  0  0  0  0  0  0  0  0  0
    0.8175    1.7020    1.0230 H   0  0  0  0  0  0  0  0  0  0  0  0
    0.2678    1.7464   -0.6604 H   0  0  0  0  0  0  0  0  0  0  0  0
    0.7359   -0.2580    0.0072 C   0  0  1  0  0  0  0  0  0  0  0  0
    1.3275   -0.2237   -0.9129 H   0  0  0  0  0  0  0  0  0  0  0  0
    1.7748   -0.7440    1.0625 C   0  0  0  0  0  0  0  0  0  0  0  0
    2.6977    0.0088    1.3532 O   0  0  0  0  0  0  0  0  0  0  0  0
    1.6659   -1.9217    1.7796 N   0  0  0  0  0  0  0  0  0  0  0  0
    1.1003   -2.6383    1.3237 H   0  0  0  0  0  0  0  0  0  0  0  0
    2.6823   -2.3690    2.7242 C   0  0  0  0  0  0  0  0  0  0  0  0
    2.8132   -1.6335    3.5250 H   0  0  0  0  0  0  0  0  0  0  0  0
    2.3831   -3.3193    3.1763 H   0  0  0  0  0  0  0  0  0  0  0  0
    3.6415   -2.5126    2.2159 H   0  0  0  0  0  0  0  0  0  0  0  0
  1  2  1  0  0  0  0
  2  3  1  0  0  0  0
  2  4  1  0  0  0  0
  2  5  1  0  0  0  0
  5  6  2  0  0  0  0
  5  7  1  0  0  0  0
  7  8  1  0  0  0  0
  7 17  1  0  0  0  0
  8  9  1  0  0  0  0
  8 10  1  0  0  0  0
  8 11  1  0  0  0  0
 11 12  1  0  0  0  0
 11 13  1  0  0  0  0
 11 14  1  0  0  0  0
 14 15  1  0  0  0  0
 14 16  1  0  0  0  0
 14 17  1  0  0  0  0
 17 18  1  0  0  0  0
 17 19  1  0  0  0  0
 19 20  2  0  0  0  0
 19 21  1  0  0  0  0
 21 22  1  0  0  0  0
 21 23  1  0  0  0  0
 23 24  1  0  0  0  0
 23 25  1  0  0  0  0
 23 26  1  0  0  0  0
M  END
$$$$

  -OEChem-11182114133D

 26 26  0     1  0  0  0  0  0999 V2000
   -1.8458   -4.1818   -0.5789 H   0  0  0  0  0  0  0  0  0  0  0  0
   -1.9778   -3.1207   -0.3485 C   0  0  0  0  0  0  0  0  0  0  0  0
   -2.4545   -3.0360    0.6310 H   0  0  0  0  0  0  0  0  0  0  0  0
   -2.6298   -2.6823   -1.1080 H   0  0  0  0  0  0  0  0  0  0  0  0
   -0.6274   -2.4119   -0.3385 C   0  0  0  0  0  0  0  0  0  0  0  0
    0.3593   -3.1177   -0.4812 O   0  0  0  0  0  0  0  0  0  0  0  0
   -0.4941   -1.0213   -0.3508 N   0  0  0  0  0  0  0  0  0  0  0  0
   -1.6851   -0.2036   -0.1096 C   0  0  0  0  0  0  0  0  0  0  0  0
   -2.4732   -0.7239    0.4426 H   0  0  0  0  0  0  0  0  0  0  0  0
   -2.0972    0.1338   -1.0667 H   0  0  0  0  0  0  0  0  0  0  0  0
   -1.2118    0.9858    0.7118 C   0  0  0  0  0  0  0  0  0  0  0  0
   -1.2560    0.7460    1.7794 H   0  0  0  0  0  0  0  0  0  0  0  0
   -1.8124    1.8819    0.5274 H   0  0  0  0  0  0  0  0  0  0  0  0
    0.2284    1.1615    0.2834 C   0  0  0  0  0  0  0  0  0  0  0  0
    0.8053    1.6968    1.0441 H   0  0  0  0  0  0  0  0  0  0  0  0
    0.2722    1.7444   -0.6424 H   0  0  0  0  0  0  0  0  0  0  0  0
    0.7360   -0.2652    0.0136 C   0  0  1  0  0  0  0  0  0  0  0  0
    1.3318   -0.2211   -0.9034 H   0  0  0  0  0  0  0  0  0  0  0  0
    1.7746   -0.7729    1.0653 C   0  0  0  0  0  0  0  0  0  0  0  0
    2.5771    0.0295    1.5292 O   0  0  0  0  0  0  0  0  0  0  0  0
    1.8445   -2.0661    1.5496 N   0  0  0  0  0  0  0  0  0  0  0  0
    1.3479   -2.7648    0.9951 H   0  0  0  0  0  0  0  0  0  0  0  0
    2.8831   -2.5316    2.4606 C   0  0  0  0  0  0  0  0  0  0  0  0
    2.8586   -1.9611    3.3949 H   0  0  0  0  0  0  0  0  0  0  0  0
    2.7272   -3.5881    2.6989 H   0  0  0  0  0  0  0  0  0  0  0  0
    3.8721   -2.4207    2.0041 H   0  0  0  0  0  0  0  0  0  0  0  0
  1  2  1  0  0  0  0
  2  3  1  0  0  0  0
  2  4  1  0  0  0  0
  2  5  1  0  0  0  0
  5  6  2  0  0  0  0
  5  7  1  0  0  0  0
  7  8  1  0  0  0  0
  7 17  1  0  0  0  0
  8  9  1  0  0  0  0
  8 10  1  0  0  0  0
  8 11  1  0  0  0  0
 11 12  1  0  0  0  0
 11 13  1  0  0  0  0
 11 14  1  0  0  0  0
 14 15  1  0  0  0  0
 14 16  1  0  0  0  0
 14 17  1  0  0  0  0
 17 18  1  0  0  0  0
 17 19  1  0  0  0  0
 19 20  2  0  0  0  0
 19 21  1  0  0  0  0
 21 22  1  0  0  0  0
 21 23  1  0  0  0  0
 23 24  1  0  0  0  0
 23 25  1  0  0  0  0
 23 26  1  0  0  0  0
M  END
$$$$

  -OEChem-11182114133D

 26 26  0     1  0  0  0  0  0999 V2000
   -1.8441   -4.1873   -0.5314 H   0  0  0  0  0  0  0  0  0  0  0  0
   -1.9696   -3.1251   -0.3026 C   0  0  0  0  0  0  0  0  0  0  0  0
   -2.3975   -3.0352    0.6987 H   0  0  0  0  0  0  0  0  0  0  0  0
   -2.6600   -2.6947   -1.0323 H   0  0  0  0  0  0  0  0  0  0  0  0
   -0.6234   -2.4107   -0.3636 C   0  0  0  0  0  0  0  0  0  0  0  0
    0.3511   -3.1080   -0.6015 O   0  0  0  0  0  0  0  0  0  0  0  0
   -0.4927   -1.0195   -0.3562 N   0  0  0  0  0  0  0  0  0  0  0  0
   -1.6833   -0.2058   -0.0973 C   0  0  0  0  0  0  0  0  0  0  0  0
   -2.4640   -0.7296    0.4619 H   0  0  0  0  0  0  0  0  0  0  0  0
   -2.1073    0.1344   -1.0481 H   0  0  0  0  0  0  0  0  0  0  0  0
   -1.2048    0.9801    0.7245 C   0  0  0  0  0  0  0  0  0  0  0  0
   -1.2391    0.7355    1.7915 H   0  0  0  0  0  0  0  0  0  0  0  0
   -1.8089    1.8757    0.5492 H   0  0  0  0  0  0  0  0  0  0  0  0
    0.2311    1.1613    0.2850 C   0  0  0  0  0  0  0  0  0  0  0  0
    0.8112    1.7018    1.0393 H   0  0  0  0  0  0  0  0  0  0  0  0
    0.2629    1.7455   -0.6404 H   0  0  0  0  0  0  0  0  0  0  0  0
    0.7404   -0.2641    0.0032 C   0  0  1  0  0  0  0  0  0  0  0  0
    1.3277   -0.2101   -0.9185 H   0  0  0  0  0  0  0  0  0  0  0  0
    1.7885   -0.7962    1.0366 C   0  0  0  0  0  0  0  0  0  0  0  0
    2.4424    0.0073    1.6920 O   0  0  0  0  0  0  0  0  0  0  0  0
    2.0547   -2.1312    1.2743 N   0  0  0  0  0  0  0  0  0  0  0  0
    1.6163   -2.7969    0.6352 H   0  0  0  0  0  0  0  0  0  0  0  0
    3.0933   -2.6137    2.1762 C   0  0  0  0  0  0  0  0  0  0  0  0
    2.9110   -2.2600    3.1962 H   0  0  0  0  0  0  0  0  0  0  0  0
    3.1016   -3.7078    2.1873 H   0  0  0  0  0  0  0  0  0  0  0  0
    4.0779   -2.2624    1.8505 H   0  0  0  0  0  0  0  0  0  0  0  0
  1  2  1  0  0  0  0
  2  3  1  0  0  0  0
  2  4  1  0  0  0  0
  2  5  1  0  0  0  0
  5  6  2  0  0  0  0
  5  7  1  0  0  0  0
  7  8  1  0  0  0  0
  7 17  1  0  0  0  0
  8  9  1  0  0  0  0
  8 10  1  0  0  0  0
  8 11  1  0  0  0  0
 11 12  1  0  0  0  0
 11 13  1  0  0  0  0
 11 14  1  0  0  0  0
 14 15  1  0  0  0  0
 14 16  1  0  0  0  0
 14 17  1  0  0  0  0
 17 18  1  0  0  0  0
 17 19  1  0  0  0  0
 19 20  2  0  0  0  0
 19 21  1  0  0  0  0
 21 22  1  0  0  0  0
 21 23  1  0  0  0  0
 23 24  1  0  0  0  0
 23 25  1  0  0  0  0
 23 26  1  0  0  0  0
M  END
$$$$

  -OEChem-11182114133D

 26 26  0     1  0  0  0  0  0999 V2000
   -1.7345   -4.2104   -0.5758 H   0  0  0  0  0  0  0  0  0  0  0  0
   -1.8859   -3.1542   -0.3353 C   0  0  0  0  0  0  0  0  0  0  0  0
   -2.3000   -3.0861    0.6735 H   0  0  0  0  0  0  0  0  0  0  0  0
   -2.5997   -2.7367   -1.0498 H   0  0  0  0  0  0  0  0  0  0  0  0
   -0.5615   -2.4016   -0.4107 C   0  0  0  0  0  0  0  0  0  0  0  0
    0.4235   -3.0657   -0.6949 O   0  0  0  0  0  0  0  0  0  0  0  0
   -0.4683   -1.0077   -0.3708 N   0  0  0  0  0  0  0  0  0  0  0  0
   -1.6751   -0.2297   -0.0796 C   0  0  0  0  0  0  0  0  0  0  0  0
   -2.4366   -0.7854    0.4752 H   0  0  0  0  0  0  0  0  0  0  0  0
   -2.1178    0.1223   -1.0175 H   0  0  0  0  0  0  0  0  0  0  0  0
   -1.2158    0.9488    0.7640 C   0  0  0  0  0  0  0  0  0  0  0  0
   -1.2309    0.6792    1.8253 H   0  0  0  0  0  0  0  0  0  0  0  0
   -1.8437    1.8329    0.6169 H   0  0  0  0  0  0  0  0  0  0  0  0
    0.2102    1.1764    0.3132 C   0  0  0  0  0  0  0  0  0  0  0  0
    0.7883    1.7168    1.0689 H   0  0  0  0  0  0  0  0  0  0  0  0
    0.2146    1.7803   -0.6001 H   0  0  0  0  0  0  0  0  0  0  0  0
    0.7488   -0.2301   -0.0069 C   0  0  1  0  0  0  0  0  0  0  0  0
    1.3277   -0.1375   -0.9308 H   0  0  0  0  0  0  0  0  0  0  0  0
    1.8095   -0.7804    1.0032 C   0  0  0  0  0  0  0  0  0  0  0  0
    2.2614   -0.0446    1.8733 O   0  0  0  0  0  0  0  0  0  0  0  0
    2.3013   -2.0710    0.9831 N   0  0  0  0  0  0  0  0  0  0  0  0
    1.9012   -2.6990    0.2825 H   0  0  0  0  0  0  0  0  0  0  0  0
    3.2680   -2.6041    1.9346 C   0  0  0  0  0  0  0  0  0  0  0  0
    2.8575   -2.5840    2.9493 H   0  0  0  0  0  0  0  0  0  0  0  0
    3.5129   -3.6398    1.6802 H   0  0  0  0  0  0  0  0  0  0  0  0
    4.1915   -2.0162    1.9142 H   0  0  0  0  0  0  0  0  0  0  0  0
  1  2  1  0  0  0  0
  2  3  1  0  0  0  0
  2  4  1  0  0  0  0
  2  5  1  0  0  0  0
  5  6  2  0  0  0  0
  5  7  1  0  0  0  0
  7  8  1  0  0  0  0
  7 17  1  0  0  0  0
  8  9  1  0  0  0  0
  8 10  1  0  0  0  0
  8 11  1  0  0  0  0
 11 12  1  0  0  0  0
 11 13  1  0  0  0  0
 11 14  1  0  0  0  0
 14 15  1  0  0  0  0
 14 16  1  0  0  0  0
 14 17  1  0  0  0  0
 17 18  1  0  0  0  0
 17 19  1  0  0  0  0
 19 20  2  0  0  0  0
 19 21  1  0  0  0  0
 21 22  1  0  0  0  0
 21 23  1  0  0  0  0
 23 24  1  0  0  0  0
 23 25  1  0  0  0  0
 23 26  1  0  0  0  0
M  END
$$$$

  -OEChem-11182114133D

 26 26  0     1  0  0  0  0  0999 V2000
   -1.6924   -4.2215   -0.4696 H   0  0  0  0  0  0  0  0  0  0  0  0
   -1.8468   -3.1638   -0.2375 C   0  0  0  0  0  0  0  0  0  0  0  0
   -2.2238   -3.0862    0.7850 H   0  0  0  0  0  0  0  0  0  0  0  0
   -2.5911   -2.7639   -0.9304 H   0  0  0  0  0  0  0  0  0  0  0  0
   -0.5350   -2.3978   -0.3717 C   0  0  0  0  0  0  0  0  0  0  0  0
    0.4521   -3.0560   -0.6632 O   0  0  0  0  0  0  0  0  0  0  0  0
   -0.4605   -1.0022   -0.3717 N   0  0  0  0  0  0  0  0  0  0  0  0
   -1.6583   -0.2283   -0.0359 C   0  0  0  0  0  0  0  0  0  0  0  0
   -2.3919   -0.7833    0.5561 H   0  0  0  0  0  0  0  0  0  0  0  0
   -2.1432    0.1128   -0.9568 H   0  0  0  0  0  0  0  0  0  0  0  0
   -1.1677    0.9609    0.7765 C   0  0  0  0  0  0  0  0  0  0  0  0
   -1.1323    0.6995    1.8396 H   0  0  0  0  0  0  0  0  0  0  0  0
   -1.8068    1.8404    0.6519 H   0  0  0  0  0  0  0  0  0  0  0  0
    0.2359    1.1926    0.2602 C   0  0  0  0  0  0  0  0  0  0  0  0
    0.8498    1.7390    0.9830 H   0  0  0  0  0  0  0  0  0  0  0  0
    0.1953    1.7880   -0.6578 H   0  0  0  0  0  0  0  0  0  0  0  0
    0.7635   -0.2136   -0.0697 C   0  0  1  0  0  0  0  0  0  0  0  0
    1.3121   -0.1280   -1.0126 H   0  0  0  0  0  0  0  0  0  0  0  0
    1.8402   -0.7647    0.9177 C   0  0  0  0  0  0  0  0  0  0  0  0
    2.1303   -0.1330    1.9276 O   0  0  0  0  0  0  0  0  0  0  0  0
    2.5164   -1.9506    0.7056 N   0  0  0  0  0  0  0  0  0  0  0  0
    2.1211   -2.5552   -0.0189 H   0  0  0  0  0  0  0  0  0  0  0  0
    3.4390   -2.5398    1.6678 C   0  0  0  0  0  0  0  0  0  0  0  0
    2.9221   -2.7633    2.6067 H   0  0  0  0  0  0  0  0  0  0  0  0
    3.8536   -3.4705    1.2689 H   0  0  0  0  0  0  0  0  0  0  0  0
    4.2676   -1.8546    1.8745 H   0  0  0  0  0  0  0  0  0  0  0  0
  1  2  1  0  0  0  0
  2  3  1  0  0  0  0
  2  4  1  0  0  0  0
  2  5  1  0  0  0  0
  5  6  2  0  0  0  0
  5  7  1  0  0  0  0
  7  8  1  0  0  0  0
  7 17  1  0  0  0  0
  8  9  1  0  0  0  0
  8 10  1  0  0  0  0
  8 11  1  0  0  0  0
 11 12  1  0  0  0  0
 11 13  1  0  0  0  0
 11 14  1  0  0  0  0
 14 15  1  0  0  0  0
 14 16  1  0  0  0  0
 14 17  1  0  0  0  0
 17 18  1  0  0  0  0
 17 19  1  0  0  0  0
 19 20  2  0  0  0  0
 19 21  1  0  0  0  0
 21 22  1  0  0  0  0
 21 23  1  0  0  0  0
 23 24  1  0  0  0  0
 23 25  1  0  0  0  0
 23 26  1  0  0  0  0
M  END
$$$$

  -OEChem-11182114133D

 26 26  0     1  0  0  0  0  0999 V2000
   -1.5774   -4.2362   -0.4486 H   0  0  0  0  0  0  0  0  0  0  0  0
   -1.7615   -3.1827   -0.2191 C   0  0  0  0  0  0  0  0  0  0  0  0
   -2.1290   -3.1116    0.8074 H   0  0  0  0  0  0  0  0  0  0  0  0
   -2.5255   -2.8085   -0.9049 H   0  0  0  0  0  0  0  0  0  0  0  0
   -0.4754   -2.3781   -0.3711 C   0  0  0  0  0  0  0  0  0  0  0  0
    0.5370   -3.0047   -0.6492 O   0  0  0  0  0  0  0  0  0  0  0  0
   -0.4443   -0.9812   -0.3920 N   0  0  0  0  0  0  0  0  0  0  0  0
   -1.6489   -0.2313   -0.0303 C   0  0  0  0  0  0  0  0  0  0  0  0
   -2.3657   -0.8059    0.5632 H   0  0  0  0  0  0  0  0  0  0  0  0
   -2.1511    0.1148   -0.9399 H   0  0  0  0  0  0  0  0  0  0  0  0
   -1.1612    0.9540    0.7920 C   0  0  0  0  0  0  0  0  0  0  0  0
   -1.1069    0.6782    1.8506 H   0  0  0  0  0  0  0  0  0  0  0  0
   -1.8140    1.8262    0.6890 H   0  0  0  0  0  0  0  0  0  0  0  0
    0.2325    1.2125    0.2585 C   0  0  0  0  0  0  0  0  0  0  0  0
    0.8551    1.7480    0.9826 H   0  0  0  0  0  0  0  0  0  0  0  0
    0.1725    1.8230   -0.6483 H   0  0  0  0  0  0  0  0  0  0  0  0
    0.7699   -0.1811   -0.0976 C   0  0  1  0  0  0  0  0  0  0  0  0
    1.3210   -0.0787   -1.0373 H   0  0  0  0  0  0  0  0  0  0  0  0
    1.8233   -0.7493    0.8984 C   0  0  0  0  0  0  0  0  0  0  0  0
    1.9429   -0.2635    2.0180 O   0  0  0  0  0  0  0  0  0  0  0  0
    2.6840   -1.7676    0.5351 N   0  0  0  0  0  0  0  0  0  0  0  0
    2.3489   -2.3365   -0.2460 H   0  0  0  0  0  0  0  0  0  0  0  0
    3.6149   -2.3864    1.4703 C   0  0  0  0  0  0  0  0  0  0  0  0
    3.0749   -2.8235    2.3166 H   0  0  0  0  0  0  0  0  0  0  0  0
    4.1783   -3.1800    0.9703 H   0  0  0  0  0  0  0  0  0  0  0  0
    4.3263   -1.6456    1.8496 H   0  0  0  0  0  0  0  0  0  0  0  0
  1  2  1  0  0  0  0
  2  3  1  0  0  0  0
  2  4  1  0  0  0  0
  2  5  1  0  0  0  0
  5  6  2  0  0  0  0
  5  7  1  0  0  0  0
  7  8  1  0  0  0  0
  7 17  1  0  0  0  0
  8  9  1  0  0  0  0
  8 10  1  0  0  0  0
  8 11  1  0  0  0  0
 11 12  1  0  0  0  0
 11 13  1  0  0  0  0
 11 14  1  0  0  0  0
 14 15  1  0  0  0  0
 14 16  1  0  0  0  0
 14 17  1  0  0  0  0
 17 18  1  0  0  0  0
 17 19  1  0  0  0  0
 19 20  2  0  0  0  0
 19 21  1  0  0  0  0
 21 22  1  0  0  0  0
 21 23  1  0  0  0  0
 23 24  1  0  0  0  0
 23 25  1  0  0  0  0
 23 26  1  0  0  0  0
M  END
$$$$

  -OEChem-11182114133D

 26 26  0     1  0  0  0  0  0999 V2000
   -1.4844   -4.2428   -0.4369 H   0  0  0  0  0  0  0  0  0  0  0  0
   -1.6936   -3.1948   -0.2043 C   0  0  0  0  0  0  0  0  0  0  0  0
   -2.0550   -3.1334    0.8250 H   0  0  0  0  0  0  0  0  0  0  0  0
   -2.4720   -2.8384   -0.8833 H   0  0  0  0  0  0  0  0  0  0  0  0
   -0.4295   -2.3585   -0.3645 C   0  0  0  0  0  0  0  0  0  0  0  0
    0.6063   -2.9568   -0.6237 O   0  0  0  0  0  0  0  0  0  0  0  0
   -0.4376   -0.9621   -0.4111 N   0  0  0  0  0  0  0  0  0  0  0  0
   -1.6451   -0.2303   -0.0249 C   0  0  0  0  0  0  0  0  0  0  0  0
   -2.3470   -0.8203    0.5717 H   0  0  0  0  0  0  0  0  0  0  0  0
   -2.1639    0.1207   -0.9232 H   0  0  0  0  0  0  0  0  0  0  0  0
   -1.1546    0.9510    0.8034 C   0  0  0  0  0  0  0  0  0  0  0  0
   -1.0817    0.6639    1.8581 H   0  0  0  0  0  0  0  0  0  0  0  0
   -1.8168    1.8181    0.7200 H   0  0  0  0  0  0  0  0  0  0  0  0
    0.2295    1.2284    0.2507 C   0  0  0  0  0  0  0  0  0  0  0  0
    0.8624    1.7517    0.9753 H   0  0  0  0  0  0  0  0  0  0  0  0
    0.1528    1.8518   -0.6461 H   0  0  0  0  0  0  0  0  0  0  0  0
    0.7705   -0.1554   -0.1279 C   0  0  1  0  0  0  0  0  0  0  0  0
    1.3211   -0.0429   -1.0667 H   0  0  0  0  0  0  0  0  0  0  0  0
    1.8016   -0.7383    0.8770 C   0  0  0  0  0  0  0  0  0  0  0  0
    1.7605   -0.4212    2.0612 O   0  0  0  0  0  0  0  0  0  0  0  0
    2.8365   -1.5403    0.4327 N   0  0  0  0  0  0  0  0  0  0  0  0
    2.6261   -2.0362   -0.4338 H   0  0  0  0  0  0  0  0  0  0  0  0
    3.7817   -2.1676    1.3476 C   0  0  0  0  0  0  0  0  0  0  0  0
    3.2606   -2.8469    2.0300 H   0  0  0  0  0  0  0  0  0  0  0  0
    4.5250   -2.7411    0.7856 H   0  0  0  0  0  0  0  0  0  0  0  0
    4.3074   -1.4091    1.9370 H   0  0  0  0  0  0  0  0  0  0  0  0
  1  2  1  0  0  0  0
  2  3  1  0  0  0  0
  2  4  1  0  0  0  0
  2  5  1  0  0  0  0
  5  6  2  0  0  0  0
  5  7  1  0  0  0  0
  7  8  1  0  0  0  0
  7 17  1  0  0  0  0
  8  9  1  0  0  0  0
  8 10  1  0  0  0  0
  8 11  1  0  0  0  0
 11 12  1  0  0  0  0
 11 13  1  0  0  0  0
 11 14  1  0  0  0  0
 14 15  1  0  0  0  0
 14 16  1  0  0  0  0
 14 17  1  0  0  0  0
 17 18  1  0  0  0  0
 17 19  1  0  0  0  0
 19 20  2  0  0  0  0
 19 21  1  0  0  0  0
 21 22  1  0  0  0  0
 21 23  1  0  0  0  0
 23 24  1  0  0  0  0
 23 25  1  0  0  0  0
 23 26  1  0  0  0  0
M  END
$$$$

  -OEChem-11182114133D

 26 26  0     1  0  0  0  0  0999 V2000
   -1.4228   -4.2472   -0.4191 H   0  0  0  0  0  0  0  0  0  0  0  0
   -1.6482   -3.2024   -0.1874 C   0  0  0  0  0  0  0  0  0  0  0  0
   -1.9945   -3.1427    0.8473 H   0  0  0  0  0  0  0  0  0  0  0  0
   -2.4429   -2.8630   -0.8560 H   0  0  0  0  0  0  0  0  0  0  0  0
   -0.4028   -2.3437   -0.3703 C   0  0  0  0  0  0  0  0  0  0  0  0
    0.6451   -2.9218   -0.6284 O   0  0  0  0  0  0  0  0  0  0  0  0
   -0.4389   -0.9482   -0.4329 N   0  0  0  0  0  0  0  0  0  0  0  0
   -1.6468   -0.2305   -0.0230 C   0  0  0  0  0  0  0  0  0  0  0  0
   -2.3370   -0.8329    0.5746 H   0  0  0  0  0  0  0  0  0  0  0  0
   -2.1793    0.1275   -0.9104 H   0  0  0  0  0  0  0  0  0  0  0  0
   -1.1520    0.9444    0.8130 C   0  0  0  0  0  0  0  0  0  0  0  0
   -1.0631    0.6443    1.8628 H   0  0  0  0  0  0  0  0  0  0  0  0
   -1.8210    1.8079    0.7501 H   0  0  0  0  0  0  0  0  0  0  0  0
    0.2231    1.2373    0.2442 C   0  0  0  0  0  0  0  0  0  0  0  0
    0.8649    1.7480    0.9702 H   0  0  0  0  0  0  0  0  0  0  0  0
    0.1326    1.8735   -0.6421 H   0  0  0  0  0  0  0  0  0  0  0  0
    0.7655   -0.1374   -0.1578 C   0  0  1  0  0  0  0  0  0  0  0  0
    1.3115   -0.0164   -1.0981 H   0  0  0  0  0  0  0  0  0  0  0  0
    1.7862   -0.7263    0.8504 C   0  0  0  0  0  0  0  0  0  0  0  0
    1.5936   -0.6136    2.0567 O   0  0  0  0  0  0  0  0  0  0  0  0
    2.9761   -1.2694    0.4012 N   0  0  0  0  0  0  0  0  0  0  0  0
    2.9558   -1.5964   -0.5621 H   0  0  0  0  0  0  0  0  0  0  0  0
    3.9297   -1.8991    1.3054 C   0  0  0  0  0  0  0  0  0  0  0  0
    3.4704   -2.7560    1.8094 H   0  0  0  0  0  0  0  0  0  0  0  0
    4.8026   -2.2504    0.7473 H   0  0  0  0  0  0  0  0  0  0  0  0
    4.2705   -1.1852    2.0625 H   0  0  0  0  0  0  0  0  0  0  0  0
  1  2  1  0  0  0  0
  2  3  1  0  0  0  0
  2  4  1  0  0  0  0
  2  5  1  0  0  0  0
  5  6  2  0  0  0  0
  5  7  1  0  0  0  0
  7  8  1  0  0  0  0
  7 17  1  0  0  0  0
  8  9  1  0  0  0  0
  8 10  1  0  0  0  0
  8 11  1  0  0  0  0
 11 12  1  0  0  0  0
 11 13  1  0  0  0  0
 11 14  1  0  0  0  0
 14 15  1  0  0  0  0
 14 16  1  0  0  0  0
 14 17  1  0  0  0  0
 17 18  1  0  0  0  0
 17 19  1  0  0  0  0
 19 20  2  0  0  0  0
 19 21  1  0  0  0  0
 21 22  1  0  0  0  0
 21 23  1  0  0  0  0
 23 24  1  0  0  0  0
 23 25  1  0  0  0  0
 23 26  1  0  0  0  0
M  END
$$$$

  -OEChem-11182114133D

 26 26  0     1  0  0  0  0  0999 V2000
   -1.3914   -4.2524   -0.3888 H   0  0  0  0  0  0  0  0  0  0  0  0
   -1.6262   -3.2070   -0.1692 C   0  0  0  0  0  0  0  0  0  0  0  0
   -1.9545   -3.1361    0.8706 H   0  0  0  0  0  0  0  0  0  0  0  0
   -2.4369   -2.8879   -0.8285 H   0  0  0  0  0  0  0  0  0  0  0  0
   -0.3947   -2.3358   -0.3856 C   0  0  0  0  0  0  0  0  0  0  0  0
    0.6543   -2.9032   -0.6632 O   0  0  0  0  0  0  0  0  0  0  0  0
   -0.4449   -0.9407   -0.4537 N   0  0  0  0  0  0  0  0  0  0  0  0
   -1.6513   -0.2304   -0.0278 C   0  0  0  0  0  0  0  0  0  0  0  0
   -2.3363   -0.8398    0.5687 H   0  0  0  0  0  0  0  0  0  0  0  0
   -2.1910    0.1352   -0.9076 H   0  0  0  0  0  0  0  0  0  0  0  0
   -1.1519    0.9373    0.8159 C   0  0  0  0  0  0  0  0  0  0  0  0
   -1.0550    0.6264    1.8619 H   0  0  0  0  0  0  0  0  0  0  0  0
   -1.8226    1.8003    0.7665 H   0  0  0  0  0  0  0  0  0  0  0  0
    0.2184    1.2389    0.2392 C   0  0  0  0  0  0  0  0  0  0  0  0
    0.8653    1.7398    0.9674 H   0  0  0  0  0  0  0  0  0  0  0  0
    0.1208    1.8852   -0.6390 H   0  0  0  0  0  0  0  0  0  0  0  0
    0.7591   -0.1300   -0.1802 C   0  0  1  0  0  0  0  0  0  0  0  0
    1.3012   -0.0051   -1.1221 H   0  0  0  0  0  0  0  0  0  0  0  0
    1.7771   -0.7202    0.8284 C   0  0  0  0  0  0  0  0  0  0  0  0
    1.4713   -0.8285    2.0116 O   0  0  0  0  0  0  0  0  0  0  0  0
    3.0785   -0.9807    0.4381 N   0  0  0  0  0  0  0  0  0  0  0  0
    3.2279   -1.0749   -0.5624 H   0  0  0  0  0  0  0  0  0  0  0  0
    4.0522   -1.5918    1.3341 C   0  0  0  0  0  0  0  0  0  0  0  0
    3.7096   -2.5817    1.6535 H   0  0  0  0  0  0  0  0  0  0  0  0
    5.0145   -1.7040    0.8257 H   0  0  0  0  0  0  0  0  0  0  0  0
    4.2031   -0.9675    2.2210 H   0  0  0  0  0  0  0  0  0  0  0  0
  1  2  1  0  0  0  0
  2  3  1  0  0  0  0
  2  4  1  0  0  0  0
  2  5  1  0  0  0  0
  5  6  2  0  0  0  0
  5  7  1  0  0  0  0
  7  8  1  0  0  0  0
  7 17  1  0  0  0  0
  8  9  1  0  0  0  0
  8 10  1  0  0  0  0
  8 11  1  0  0  0  0
 11 12  1  0  0  0  0
 11 13  1  0  0  0  0
 11 14  1  0  0  0  0
 14 15  1  0  0  0  0
 14 16  1  0  0  0  0
 14 17  1  0  0  0  0
 17 18  1  0  0  0  0
 17 19  1  0  0  0  0
 19 20  2  0  0  0  0
 19 21  1  0  0  0  0
 21 22  1  0  0  0  0
 21 23  1  0  0  0  0
 23 24  1  0  0  0  0
 23 25  1  0  0  0  0
 23 26  1  0  0  0  0
M  END
$$$$

  -OEChem-11182114133D

 26 26  0     1  0  0  0  0  0999 V2000
   -1.3877   -4.2557   -0.3775 H   0  0  0  0  0  0  0  0  0  0  0  0
   -1.6229   -3.2102   -0.1593 C   0  0  0  0  0  0  0  0  0  0  0  0
   -1.9338   -3.1353    0.8855 H   0  0  0  0  0  0  0  0  0  0  0  0
   -2.4452   -2.8965   -0.8067 H   0  0  0  0  0  0  0  0  0  0  0  0
   -0.3985   -2.3360   -0.4003 C   0  0  0  0  0  0  0  0  0  0  0  0
    0.6449   -2.9001   -0.7053 O   0  0  0  0  0  0  0  0  0  0  0  0
   -0.4520   -0.9410   -0.4710 N   0  0  0  0  0  0  0  0  0  0  0  0
   -1.6544   -0.2318   -0.0318 C   0  0  0  0  0  0  0  0  0  0  0  0
   -2.3368   -0.8437    0.5651 H   0  0  0  0  0  0  0  0  0  0  0  0
   -2.1994    0.1408   -0.9056 H   0  0  0  0  0  0  0  0  0  0  0  0
   -1.1471    0.9288    0.8165 C   0  0  0  0  0  0  0  0  0  0  0  0
   -1.0435    0.6097    1.8593 H   0  0  0  0  0  0  0  0  0  0  0  0
   -1.8170    1.7932    0.7781 H   0  0  0  0  0  0  0  0  0  0  0  0
    0.2201    1.2320    0.2332 C   0  0  0  0  0  0  0  0  0  0  0  0
    0.8728    1.7263    0.9608 H   0  0  0  0  0  0  0  0  0  0  0  0
    0.1174    1.8841   -0.6402 H   0  0  0  0  0  0  0  0  0  0  0  0
    0.7550   -0.1342   -0.1989 C   0  0  1  0  0  0  0  0  0  0  0  0
    1.2942   -0.0099   -1.1425 H   0  0  0  0  0  0  0  0  0  0  0  0
    1.7742   -0.7236    0.8088 C   0  0  0  0  0  0  0  0  0  0  0  0
    1.4055   -1.0350    1.9370 O   0  0  0  0  0  0  0  0  0  0  0  0
    3.1287   -0.7005    0.5262 N   0  0  0  0  0  0  0  0  0  0  0  0
    3.3854   -0.5643   -0.4468 H   0  0  0  0  0  0  0  0  0  0  0  0
    4.1277   -1.2521    1.4334 C   0  0  0  0  0  0  0  0  0  0  0  0
    3.9415   -2.3175    1.6051 H   0  0  0  0  0  0  0  0  0  0  0  0
    5.1289   -1.1387    1.0069 H   0  0  0  0  0  0  0  0  0  0  0  0
    4.1027   -0.7303    2.3959 H   0  0  0  0  0  0  0  0  0  0  0  0
  1  2  1  0  0  0  0
  2  3  1  0  0  0  0
  2  4  1  0  0  0  0
  2  5  1  0  0  0  0
  5  6  2  0  0  0  0
  5  7  1  0  0  0  0
  7  8  1  0  0  0  0
  7 17  1  0  0  0  0
  8  9  1  0  0  0  0
  8 10  1  0  0  0  0
  8 11  1  0  0  0  0
 11 12  1  0  0  0  0
 11 13  1  0  0  0  0
 11 14  1  0  0  0  0
 14 15  1  0  0  0  0
 14 16  1  0  0  0  0
 14 17  1  0  0  0  0
 17 18  1  0  0  0  0
 17 19  1  0  0  0  0
 19 20  2  0  0  0  0
 19 21  1  0  0  0  0
 21 22  1  0  0  0  0
 21 23  1  0  0  0  0
 23 24  1  0  0  0  0
 23 25  1  0  0  0  0
 23 26  1  0  0  0  0
M  END
$$$$

  -OEChem-11182114133D

 26 26  0     1  0  0  0  0  0999 V2000
   -1.3938   -4.2592   -0.3641 H   0  0  0  0  0  0  0  0  0  0  0  0
   -1.6265   -3.2122   -0.1508 C   0  0  0  0  0  0  0  0  0  0  0  0
   -1.9160   -3.1282    0.8995 H   0  0  0  0  0  0  0  0  0  0  0  0
   -2.4624   -2.9061   -0.7841 H   0  0  0  0  0  0  0  0  0  0  0  0
   -0.4087   -2.3384   -0.4246 C   0  0  0  0  0  0  0  0  0  0  0  0
    0.6221   -2.9006   -0.7732 O   0  0  0  0  0  0  0  0  0  0  0  0
   -0.4586   -0.9429   -0.4876 N   0  0  0  0  0  0  0  0  0  0  0  0
   -1.6556   -0.2317   -0.0379 C   0  0  0  0  0  0  0  0  0  0  0  0
   -2.3400   -0.8448    0.5555 H   0  0  0  0  0  0  0  0  0  0  0  0
   -2.2012    0.1515   -0.9065 H   0  0  0  0  0  0  0  0  0  0  0  0
   -1.1390    0.9186    0.8183 C   0  0  0  0  0  0  0  0  0  0  0  0
   -1.0341    0.5893    1.8578 H   0  0  0  0  0  0  0  0  0  0  0  0
   -1.8044    1.7869    0.7899 H   0  0  0  0  0  0  0  0  0  0  0  0
    0.2281    1.2194    0.2337 C   0  0  0  0  0  0  0  0  0  0  0  0
    0.8846    1.7047    0.9637 H   0  0  0  0  0  0  0  0  0  0  0  0
    0.1264    1.8794   -0.6340 H   0  0  0  0  0  0  0  0  0  0  0  0
    0.7548   -0.1458   -0.2121 C   0  0  1  0  0  0  0  0  0  0  0  0
    1.2917   -0.0208   -1.1570 H   0  0  0  0  0  0  0  0  0  0  0  0
    1.7793   -0.7380    0.7898 C   0  0  0  0  0  0  0  0  0  0  0  0
    1.3926   -1.2359    1.8427 O   0  0  0  0  0  0  0  0  0  0  0  0
    3.1249   -0.4431    0.6530 N   0  0  0  0  0  0  0  0  0  0  0  0
    3.4282   -0.0851   -0.2473 H   0  0  0  0  0  0  0  0  0  0  0  0
    4.1365   -0.9111    1.5929 C   0  0  0  0  0  0  0  0  0  0  0  0
    4.1364   -2.0052    1.6421 H   0  0  0  0  0  0  0  0  0  0  0  0
    5.1296   -0.5781    1.2763 H   0  0  0  0  0  0  0  0  0  0  0  0
    3.9433   -0.5132    2.5947 H   0  0  0  0  0  0  0  0  0  0  0  0
  1  2  1  0  0  0  0
  2  3  1  0  0  0  0
  2  4  1  0  0  0  0
  2  5  1  0  0  0  0
  5  6  2  0  0  0  0
  5  7  1  0  0  0  0
  7  8  1  0  0  0  0
  7 17  1  0  0  0  0
  8  9  1  0  0  0  0
  8 10  1  0  0  0  0
  8 11  1  0  0  0  0
 11 12  1  0  0  0  0
 11 13  1  0  0  0  0
 11 14  1  0  0  0  0
 14 15  1  0  0  0  0
 14 16  1  0  0  0  0
 14 17  1  0  0  0  0
 17 18  1  0  0  0  0
 17 19  1  0  0  0  0
 19 20  2  0  0  0  0
 19 21  1  0  0  0  0
 21 22  1  0  0  0  0
 21 23  1  0  0  0  0
 23 24  1  0  0  0  0
 23 25  1  0  0  0  0
 23 26  1  0  0  0  0
M  END
$$$$

  -OEChem-11182114133D

 26 26  0     1  0  0  0  0  0999 V2000
   -1.4028   -4.2613   -0.3546 H   0  0  0  0  0  0  0  0  0  0  0  0
   -1.6303   -3.2127   -0.1429 C   0  0  0  0  0  0  0  0  0  0  0  0
   -1.8961   -3.1221    0.9131 H   0  0  0  0  0  0  0  0  0  0  0  0
   -2.4797   -2.9098   -0.7594 H   0  0  0  0  0  0  0  0  0  0  0  0
   -0.4181   -2.3417   -0.4491 C   0  0  0  0  0  0  0  0  0  0  0  0
    0.5954   -2.9037   -0.8455 O   0  0  0  0  0  0  0  0  0  0  0  0
   -0.4606   -0.9453   -0.5007 N   0  0  0  0  0  0  0  0  0  0  0  0
   -1.6527   -0.2326   -0.0407 C   0  0  0  0  0  0  0  0  0  0  0  0
   -2.3370   -0.8464    0.5519 H   0  0  0  0  0  0  0  0  0  0  0  0
   -2.2009    0.1581   -0.9043 H   0  0  0  0  0  0  0  0  0  0  0  0
   -1.1283    0.9092    0.8204 C   0  0  0  0  0  0  0  0  0  0  0  0
   -1.0226    0.5736    1.8579 H   0  0  0  0  0  0  0  0  0  0  0  0
   -1.7899    1.7806    0.7982 H   0  0  0  0  0  0  0  0  0  0  0  0
    0.2382    1.2070    0.2339 C   0  0  0  0  0  0  0  0  0  0  0  0
    0.8965    1.6879    0.9652 H   0  0  0  0  0  0  0  0  0  0  0  0
    0.1359    1.8723   -0.6298 H   0  0  0  0  0  0  0  0  0  0  0  0
    0.7598   -0.1575   -0.2232 C   0  0  1  0  0  0  0  0  0  0  0  0
    1.2929   -0.0297   -1.1698 H   0  0  0  0  0  0  0  0  0  0  0  0
    1.7959   -0.7495    0.7694 C   0  0  0  0  0  0  0  0  0  0  0  0
    1.4293   -1.4221    1.7281 O   0  0  0  0  0  0  0  0  0  0  0  0
    3.0718   -0.2122    0.8125 N   0  0  0  0  0  0  0  0  0  0  0  0
    3.3684    0.3442    0.0169 H   0  0  0  0  0  0  0  0  0  0  0  0
    4.0681   -0.6033    1.8029 C   0  0  0  0  0  0  0  0  0  0  0  0
    4.2650   -1.6791    1.7437 H   0  0  0  0  0  0  0  0  0  0  0  0
    5.0065   -0.0688    1.6267 H   0  0  0  0  0  0  0  0  0  0  0  0
    3.7197   -0.3635    2.8130 H   0  0  0  0  0  0  0  0  0  0  0  0
  1  2  1  0  0  0  0
  2  3  1  0  0  0  0
  2  4  1  0  0  0  0
  2  5  1  0  0  0  0
  5  6  2  0  0  0  0
  5  7  1  0  0  0  0
  7  8  1  0  0  0  0
  7 17  1  0  0  0  0
  8  9  1  0  0  0  0
  8 10  1  0  0  0  0
  8 11  1  0  0  0  0
 11 12  1  0  0  0  0
 11 13  1  0  0  0  0
 11 14  1  0  0  0  0
 14 15  1  0  0  0  0
 14 16  1  0  0  0  0
 14 17  1  0  0  0  0
 17 18  1  0  0  0  0
 17 19  1  0  0  0  0
 19 20  2  0  0  0  0
 19 21  1  0  0  0  0
 21 22  1  0  0  0  0
 21 23  1  0  0  0  0
 23 24  1  0  0  0  0
 23 25  1  0  0  0  0
 23 26  1  0  0  0  0
M  END
$$$$

  -OEChem-11182114133D

 26 26  0     1  0  0  0  0  0999 V2000
   -1.3608   -4.2369   -0.0627 H   0  0  0  0  0  0  0  0  0  0  0  0
   -1.6118   -3.1743   -0.0009 C   0  0  0  0  0  0  0  0  0  0  0  0
   -1.8464   -2.9372    1.0394 H   0  0  0  0  0  0  0  0  0  0  0  0
   -2.4876   -2.9867   -0.6265 H   0  0  0  0  0  0  0  0  0  0  0  0
   -0.4332   -2.3307   -0.4746 C   0  0  0  0  0  0  0  0  0  0  0  0
    0.5147   -2.9268   -0.9698 O   0  0  0  0  0  0  0  0  0  0  0  0
   -0.4394   -0.9381   -0.6143 N   0  0  0  0  0  0  0  0  0  0  0  0
   -1.6398   -0.2107   -0.1883 C   0  0  0  0  0  0  0  0  0  0  0  0
   -2.4062   -0.8249    0.2902 H   0  0  0  0  0  0  0  0  0  0  0  0
   -2.0950    0.2613   -1.0653 H   0  0  0  0  0  0  0  0  0  0  0  0
   -1.1716    0.8578    0.7942 C   0  0  0  0  0  0  0  0  0  0  0  0
   -1.1326    0.4439    1.8075 H   0  0  0  0  0  0  0  0  0  0  0  0
   -1.8251    1.7358    0.7952 H   0  0  0  0  0  0  0  0  0  0  0  0
    0.2244    1.1763    0.3103 C   0  0  0  0  0  0  0  0  0  0  0  0
    0.8359    1.5996    1.1135 H   0  0  0  0  0  0  0  0  0  0  0  0
    0.1797    1.9024   -0.5083 H   0  0  0  0  0  0  0  0  0  0  0  0
    0.7597   -0.1624   -0.2117 C   0  0  1  0  0  0  0  0  0  0  0  0
    1.2900    0.0488   -1.1451 H   0  0  0  0  0  0  0  0  0  0  0  0
    1.8685   -0.7871    0.6861 C   0  0  0  0  0  0  0  0  0  0  0  0
    1.6296   -1.7136    1.4524 O   0  0  0  0  0  0  0  0  0  0  0  0
    2.9643   -0.0034    1.0145 N   0  0  0  0  0  0  0  0  0  0  0  0
    3.1437    0.8105    0.4350 H   0  0  0  0  0  0  0  0  0  0  0  0
    3.9503   -0.3723    2.0248 C   0  0  0  0  0  0  0  0  0  0  0  0
    4.3867   -1.3503    1.7956 H   0  0  0  0  0  0  0  0  0  0  0  0
    4.7560    0.3673    2.0536 H   0  0  0  0  0  0  0  0  0  0  0  0
    3.4864   -0.4163    3.0157 H   0  0  0  0  0  0  0  0  0  0  0  0
  1  2  1  0  0  0  0
  2  3  1  0  0  0  0
  2  4  1  0  0  0  0
  2  5  1  0  0  0  0
  5  6  2  0  0  0  0
  5  7  1  0  0  0  0
  7  8  1  0  0  0  0
  7 17  1  0  0  0  0
  8  9  1  0  0  0  0
  8 10  1  0  0  0  0
  8 11  1  0  0  0  0
 11 12  1  0  0  0  0
 11 13  1  0  0  0  0
 11 14  1  0  0  0  0
 14 15  1  0  0  0  0
 14 16  1  0  0  0  0
 14 17  1  0  0  0  0
 17 18  1  0  0  0  0
 17 19  1  0  0  0  0
 19 20  2  0  0  0  0
 19 21  1  0  0  0  0
 21 22  1  0  0  0  0
 21 23  1  0  0  0  0
 23 24  1  0  0  0  0
 23 25  1  0  0  0  0
 23 26  1  0  0  0  0
M  END
$$$$

  -OEChem-11182114133D

 26 26  0     1  0  0  0  0  0999 V2000
   -1.2583   -4.2138    0.0803 H   0  0  0  0  0  0  0  0  0  0  0  0
   -1.5417   -3.1576    0.0928 C   0  0  0  0  0  0  0  0  0  0  0  0
   -1.7167   -2.8617    1.1299 H   0  0  0  0  0  0  0  0  0  0  0  0
   -2.4614   -3.0363   -0.4841 H   0  0  0  0  0  0  0  0  0  0  0  0
   -0.4242   -2.3132   -0.5090 C   0  0  0  0  0  0  0  0  0  0  0  0
    0.4620   -2.9035   -1.1117 O   0  0  0  0  0  0  0  0  0  0  0  0
   -0.4325   -0.9202   -0.6305 N   0  0  0  0  0  0  0  0  0  0  0  0
   -1.6485   -0.2043   -0.2315 C   0  0  0  0  0  0  0  0  0  0  0  0
   -2.4163   -0.8239    0.2376 H   0  0  0  0  0  0  0  0  0  0  0  0
   -2.0938    0.2536   -1.1210 H   0  0  0  0  0  0  0  0  0  0  0  0
   -1.2110    0.8782    0.7458 C   0  0  0  0  0  0  0  0  0  0  0  0
   -1.1900    0.4772    1.7647 H   0  0  0  0  0  0  0  0  0  0  0  0
   -1.8721    1.7501    0.7224 H   0  0  0  0  0  0  0  0  0  0  0  0
    0.1912    1.2043    0.2863 C   0  0  0  0  0  0  0  0  0  0  0  0
    0.7713    1.6562    1.0957 H   0  0  0  0  0  0  0  0  0  0  0  0
    0.1527    1.9171   -0.5442 H   0  0  0  0  0  0  0  0  0  0  0  0
    0.7581   -0.1351   -0.2128 C   0  0  1  0  0  0  0  0  0  0  0  0
    1.2935    0.0797   -1.1427 H   0  0  0  0  0  0  0  0  0  0  0  0
    1.8853   -0.7379    0.6879 C   0  0  0  0  0  0  0  0  0  0  0  0
    1.8063   -1.8424    1.2093 O   0  0  0  0  0  0  0  0  0  0  0  0
    2.7945    0.1247    1.2836 N   0  0  0  0  0  0  0  0  0  0  0  0
    2.8543    1.0663    0.9094 H   0  0  0  0  0  0  0  0  0  0  0  0
    3.7661   -0.2862    2.2926 C   0  0  0  0  0  0  0  0  0  0  0  0
    4.3956   -1.0971    1.9112 H   0  0  0  0  0  0  0  0  0  0  0  0
    4.4120    0.5553    2.5601 H   0  0  0  0  0  0  0  0  0  0  0  0
    3.2563   -0.6314    3.1982 H   0  0  0  0  0  0  0  0  0  0  0  0
  1  2  1  0  0  0  0
  2  3  1  0  0  0  0
  2  4  1  0  0  0  0
  2  5  1  0  0  0  0
  5  6  2  0  0  0  0
  5  7  1  0  0  0  0
  7  8  1  0  0  0  0
  7 17  1  0  0  0  0
  8  9  1  0  0  0  0
  8 10  1  0  0  0  0
  8 11  1  0  0  0  0
 11 12  1  0  0  0  0
 11 13  1  0  0  0  0
 11 14  1  0  0  0  0
 14 15  1  0  0  0  0
 14 16  1  0  0  0  0
 14 17  1  0  0  0  0
 17 18  1  0  0  0  0
 17 19  1  0  0  0  0
 19 20  2  0  0  0  0
 19 21  1  0  0  0  0
 21 22  1  0  0  0  0
 21 23  1  0  0  0  0
 23 24  1  0  0  0  0
 23 25  1  0  0  0  0
 23 26  1  0  0  0  0
M  END
$$$$

  -OEChem-11182114133D

 26 26  0     1  0  0  0  0  0999 V2000
   -1.0209   -4.1165    0.3852 H   0  0  0  0  0  0  0  0  0  0  0  0
   -1.3885   -3.0920    0.2809 C   0  0  0  0  0  0  0  0  0  0  0  0
   -1.4801   -2.6565    1.2785 H   0  0  0  0  0  0  0  0  0  0  0  0
   -2.3695   -3.1186   -0.1987 H   0  0  0  0  0  0  0  0  0  0  0  0
   -0.4121   -2.2769   -0.5584 C   0  0  0  0  0  0  0  0  0  0  0  0
    0.3602   -2.8837   -1.2856 O   0  0  0  0  0  0  0  0  0  0  0  0
   -0.4219   -0.8859   -0.6793 N   0  0  0  0  0  0  0  0  0  0  0  0
   -1.6605   -0.1847   -0.3304 C   0  0  0  0  0  0  0  0  0  0  0  0
   -2.4393   -0.8155    0.1051 H   0  0  0  0  0  0  0  0  0  0  0  0
   -2.0748    0.2637   -1.2397 H   0  0  0  0  0  0  0  0  0  0  0  0
   -1.2752    0.9089    0.6540 C   0  0  0  0  0  0  0  0  0  0  0  0
   -1.2907    0.5162    1.6761 H   0  0  0  0  0  0  0  0  0  0  0  0
   -1.9452    1.7724    0.5968 H   0  0  0  0  0  0  0  0  0  0  0  0
    0.1408    1.2481    0.2464 C   0  0  0  0  0  0  0  0  0  0  0  0
    0.6795    1.7271    1.0672 H   0  0  0  0  0  0  0  0  0  0  0  0
    0.1221    1.9490   -0.5951 H   0  0  0  0  0  0  0  0  0  0  0  0
    0.7463   -0.0889   -0.2215 C   0  0  1  0  0  0  0  0  0  0  0  0
    1.3155    0.1309   -1.1299 H   0  0  0  0  0  0  0  0  0  0  0  0
    1.8451   -0.6919    0.7179 C   0  0  0  0  0  0  0  0  0  0  0  0
    2.0401   -1.8894    0.8599 O   0  0  0  0  0  0  0  0  0  0  0  0
    2.5317    0.1307    1.5994 N   0  0  0  0  0  0  0  0  0  0  0  0
    2.4069    1.1322    1.4962 H   0  0  0  0  0  0  0  0  0  0  0  0
    3.5210   -0.3513    2.5582 C   0  0  0  0  0  0  0  0  0  0  0  0
    4.3521   -0.8396    2.0384 H   0  0  0  0  0  0  0  0  0  0  0  0
    3.9202    0.4842    3.1411 H   0  0  0  0  0  0  0  0  0  0  0  0
    3.0676   -1.0686    3.2506 H   0  0  0  0  0  0  0  0  0  0  0  0
  1  2  1  0  0  0  0
  2  3  1  0  0  0  0
  2  4  1  0  0  0  0
  2  5  1  0  0  0  0
  5  6  2  0  0  0  0
  5  7  1  0  0  0  0
  7  8  1  0  0  0  0
  7 17  1  0  0  0  0
  8  9  1  0  0  0  0
  8 10  1  0  0  0  0
  8 11  1  0  0  0  0
 11 12  1  0  0  0  0
 11 13  1  0  0  0  0
 11 14  1  0  0  0  0
 14 15  1  0  0  0  0
 14 16  1  0  0  0  0
 14 17  1  0  0  0  0
 17 18  1  0  0  0  0
 17 19  1  0  0  0  0
 19 20  2  0  0  0  0
 19 21  1  0  0  0  0
 21 22  1  0  0  0  0
 21 23  1  0  0  0  0
 23 24  1  0  0  0  0
 23 25  1  0  0  0  0
 23 26  1  0  0  0  0
M  END
$$$$

  -OEChem-11182114133D

 26 26  0     1  0  0  0  0  0999 V2000
   -1.6120   -4.2485   -0.5653 H   0  0  0  0  0  0  0  0  0  0  0  0
   -1.8428   -3.1937   -0.3900 C   0  0  0  0  0  0  0  0  0  0  0  0
   -2.5766   -3.1261    0.4162 H   0  0  0  0  0  0  0  0  0  0  0  0
   -2.2716   -2.7793   -1.3054 H   0  0  0  0  0  0  0  0  0  0  0  0
   -0.5724   -2.4385   -0.0121 C   0  0  0  0  0  0  0  0  0  0  0  0
    0.3235   -3.1146    0.4547 O   0  0  0  0  0  0  0  0  0  0  0  0
   -0.4476   -1.0664   -0.2619 N   0  0  0  0  0  0  0  0  0  0  0  0
   -1.6661   -0.2790   -0.0648 C   0  0  0  0  0  0  0  0  0  0  0  0
   -2.4349   -0.8007    0.5147 H   0  0  0  0  0  0  0  0  0  0  0  0
   -2.0898   -0.0131   -1.0391 H   0  0  0  0  0  0  0  0  0  0  0  0
   -1.2432    0.9785    0.6916 C   0  0  0  0  0  0  0  0  0  0  0  0
   -1.2619    0.7918    1.7704 H   0  0  0  0  0  0  0  0  0  0  0  0
   -1.8903    1.8327    0.4696 H   0  0  0  0  0  0  0  0  0  0  0  0
    0.1786    1.1943    0.2239 C   0  0  0  0  0  0  0  0  0  0  0  0
    0.7452    1.8067    0.9295 H   0  0  0  0  0  0  0  0  0  0  0  0
    0.1726    1.7182   -0.7380 H   0  0  0  0  0  0  0  0  0  0  0  0
    0.7409   -0.2232    0.0258 C   0  0  1  0  0  0  0  0  0  0  0  0
    1.2676   -0.1787   -0.9332 H   0  0  0  0  0  0  0  0  0  0  0  0
    1.9009   -0.6778    0.9627 C   0  0  0  0  0  0  0  0  0  0  0  0
    2.6687   -1.5608    0.6050 O   0  0  0  0  0  0  0  0  0  0  0  0
    2.4139    0.1902    1.9161 N   0  0  0  0  0  0  0  0  0  0  0  0
    1.8267    0.9669    2.1989 H   0  0  0  0  0  0  0  0  0  0  0  0
    3.6376   -0.0672    2.6687 C   0  0  0  0  0  0  0  0  0  0  0  0
    4.5012   -0.1022    1.9963 H   0  0  0  0  0  0  0  0  0  0  0  0
    3.8043    0.7267    3.4027 H   0  0  0  0  0  0  0  0  0  0  0  0
    3.5667   -1.0216    3.2009 H   0  0  0  0  0  0  0  0  0  0  0  0
  1  2  1  0  0  0  0
  2  3  1  0  0  0  0
  2  4  1  0  0  0  0
  2  5  1  0  0  0  0
  5  6  2  0  0  0  0
  5  7  1  0  0  0  0
  7  8  1  0  0  0  0
  7 17  1  0  0  0  0
  8  9  1  0  0  0  0
  8 10  1  0  0  0  0
  8 11  1  0  0  0  0
 11 12  1  0  0  0  0
 11 13  1  0  0  0  0
 11 14  1  0  0  0  0
 14 15  1  0  0  0  0
 14 16  1  0  0  0  0
 14 17  1  0  0  0  0
 17 18  1  0  0  0  0
 17 19  1  0  0  0  0
 19 20  2  0  0  0  0
 19 21  1  0  0  0  0
 21 22  1  0  0  0  0
 21 23  1  0  0  0  0
 23 24  1  0  0  0  0
 23 25  1  0  0  0  0
 23 26  1  0  0  0  0
M  END
$$$$

  -OEChem-11182114133D

 26 26  0     1  0  0  0  0  0999 V2000
   -1.5784   -4.2468   -0.5032 H   0  0  0  0  0  0  0  0  0  0  0  0
   -1.8147   -3.1925   -0.3325 C   0  0  0  0  0  0  0  0  0  0  0  0
   -2.5072   -3.1218    0.5092 H   0  0  0  0  0  0  0  0  0  0  0  0
   -2.2953   -2.7987   -1.2313 H   0  0  0  0  0  0  0  0  0  0  0  0
   -0.5381   -2.4142   -0.0305 C   0  0  0  0  0  0  0  0  0  0  0  0
    0.3987   -3.0714    0.3828 O   0  0  0  0  0  0  0  0  0  0  0  0
   -0.4391   -1.0436   -0.3001 N   0  0  0  0  0  0  0  0  0  0  0  0
   -1.6606   -0.2622   -0.0964 C   0  0  0  0  0  0  0  0  0  0  0  0
   -2.4284   -0.7892    0.4789 H   0  0  0  0  0  0  0  0  0  0  0  0
   -2.0850    0.0090   -1.0691 H   0  0  0  0  0  0  0  0  0  0  0  0
   -1.2409    0.9932    0.6683 C   0  0  0  0  0  0  0  0  0  0  0  0
   -1.2559    0.7993    1.7458 H   0  0  0  0  0  0  0  0  0  0  0  0
   -1.8927    1.8459    0.4536 H   0  0  0  0  0  0  0  0  0  0  0  0
    0.1790    1.2196    0.1975 C   0  0  0  0  0  0  0  0  0  0  0  0
    0.7536    1.8234    0.9051 H   0  0  0  0  0  0  0  0  0  0  0  0
    0.1683    1.7513   -0.7602 H   0  0  0  0  0  0  0  0  0  0  0  0
    0.7418   -0.1937   -0.0108 C   0  0  1  0  0  0  0  0  0  0  0  0
    1.2752   -0.1429   -0.9660 H   0  0  0  0  0  0  0  0  0  0  0  0
    1.8794   -0.6596    0.9429 C   0  0  0  0  0  0  0  0  0  0  0  0
    2.7669   -1.3889    0.5186 O   0  0  0  0  0  0  0  0  0  0  0  0
    2.1773    0.0629    2.0884 N   0  0  0  0  0  0  0  0  0  0  0  0
    1.4595    0.6873    2.4398 H   0  0  0  0  0  0  0  0  0  0  0  0
    3.3405   -0.2074    2.9263 C   0  0  0  0  0  0  0  0  0  0  0  0
    4.2650   -0.0258    2.3682 H   0  0  0  0  0  0  0  0  0  0  0  0
    3.3339    0.4449    3.8046 H   0  0  0  0  0  0  0  0  0  0  0  0
    3.3334   -1.2481    3.2675 H   0  0  0  0  0  0  0  0  0  0  0  0
  1  2  1  0  0  0  0
  2  3  1  0  0  0  0
  2  4  1  0  0  0  0
  2  5  1  0  0  0  0
  5  6  2  0  0  0  0
  5  7  1  0  0  0  0
  7  8  1  0  0  0  0
  7 17  1  0  0  0  0
  8  9  1  0  0  0  0
  8 10  1  0  0  0  0
  8 11  1  0  0  0  0
 11 12  1  0  0  0  0
 11 13  1  0  0  0  0
 11 14  1  0  0  0  0
 14 15  1  0  0  0  0
 14 16  1  0  0  0  0
 14 17  1  0  0  0  0
 17 18  1  0  0  0  0
 17 19  1  0  0  0  0
 19 20  2  0  0  0  0
 19 21  1  0  0  0  0
 21 22  1  0  0  0  0
 21 23  1  0  0  0  0
 23 24  1  0  0  0  0
 23 25  1  0  0  0  0
 23 26  1  0  0  0  0
M  END
$$$$

  -OEChem-11182114133D

 26 26  0     1  0  0  0  0  0999 V2000
   -1.5512   -4.2410   -0.4614 H   0  0  0  0  0  0  0  0  0  0  0  0
   -1.7922   -3.1860   -0.3013 C   0  0  0  0  0  0  0  0  0  0  0  0
   -2.4643   -3.1079    0.5563 H   0  0  0  0  0  0  0  0  0  0  0  0
   -2.2989   -2.8100   -1.1935 H   0  0  0  0  0  0  0  0  0  0  0  0
   -0.5151   -2.3924   -0.0444 C   0  0  0  0  0  0  0  0  0  0  0  0
    0.4493   -3.0369    0.3263 O   0  0  0  0  0  0  0  0  0  0  0  0
   -0.4338   -1.0238   -0.3287 N   0  0  0  0  0  0  0  0  0  0  0  0
   -1.6556   -0.2468   -0.1083 C   0  0  0  0  0  0  0  0  0  0  0  0
   -2.4204   -0.7810    0.4642 H   0  0  0  0  0  0  0  0  0  0  0  0
   -2.0857    0.0353   -1.0752 H   0  0  0  0  0  0  0  0  0  0  0  0
   -1.2328    1.0007    0.6694 C   0  0  0  0  0  0  0  0  0  0  0  0
   -1.2401    0.7938    1.7445 H   0  0  0  0  0  0  0  0  0  0  0  0
   -1.8875    1.8548    0.4699 H   0  0  0  0  0  0  0  0  0  0  0  0
    0.1835    1.2362    0.1909 C   0  0  0  0  0  0  0  0  0  0  0  0
    0.7683    1.8238    0.9052 H   0  0  0  0  0  0  0  0  0  0  0  0
    0.1670    1.7818   -0.7588 H   0  0  0  0  0  0  0  0  0  0  0  0
    0.7434   -0.1720   -0.0378 C   0  0  1  0  0  0  0  0  0  0  0  0
    1.2793   -0.1131   -0.9913 H   0  0  0  0  0  0  0  0  0  0  0  0
    1.8653   -0.6435    0.9268 C   0  0  0  0  0  0  0  0  0  0  0  0
    2.8593   -1.2020    0.4792 O   0  0  0  0  0  0  0  0  0  0  0  0
    1.9525   -0.1164    2.2056 N   0  0  0  0  0  0  0  0  0  0  0  0
    1.1238    0.3388    2.5725 H   0  0  0  0  0  0  0  0  0  0  0  0
    3.0483   -0.4191    3.1187 C   0  0  0  0  0  0  0  0  0  0  0  0
    4.0007   -0.0742    2.7027 H   0  0  0  0  0  0  0  0  0  0  0  0
    2.8903    0.0818    4.0785 H   0  0  0  0  0  0  0  0  0  0  0  0
    3.1114   -1.4980    3.2963 H   0  0  0  0  0  0  0  0  0  0  0  0
  1  2  1  0  0  0  0
  2  3  1  0  0  0  0
  2  4  1  0  0  0  0
  2  5  1  0  0  0  0
  5  6  2  0  0  0  0
  5  7  1  0  0  0  0
  7  8  1  0  0  0  0
  7 17  1  0  0  0  0
  8  9  1  0  0  0  0
  8 10  1  0  0  0  0
  8 11  1  0  0  0  0
 11 12  1  0  0  0  0
 11 13  1  0  0  0  0
 11 14  1  0  0  0  0
 14 15  1  0  0  0  0
 14 16  1  0  0  0  0
 14 17  1  0  0  0  0
 17 18  1  0  0  0  0
 17 19  1  0  0  0  0
 19 20  2  0  0  0  0
 19 21  1  0  0  0  0
 21 22  1  0  0  0  0
 21 23  1  0  0  0  0
 23 24  1  0  0  0  0
 23 25  1  0  0  0  0
 23 26  1  0  0  0  0
M  END
$$$$

  -OEChem-11182114133D

 26 26  0     1  0  0  0  0  0999 V2000
   -1.5274   -4.2356   -0.4157 H   0  0  0  0  0  0  0  0  0  0  0  0
   -1.7719   -3.1802   -0.2644 C   0  0  0  0  0  0  0  0  0  0  0  0
   -2.4234   -3.0946    0.6083 H   0  0  0  0  0  0  0  0  0  0  0  0
   -2.3026   -2.8199   -1.1492 H   0  0  0  0  0  0  0  0  0  0  0  0
   -0.4948   -2.3744   -0.0497 C   0  0  0  0  0  0  0  0  0  0  0  0
    0.4895   -3.0076    0.2903 O   0  0  0  0  0  0  0  0  0  0  0  0
   -0.4275   -1.0080   -0.3479 N   0  0  0  0  0  0  0  0  0  0  0  0
   -1.6502   -0.2336   -0.1192 C   0  0  0  0  0  0  0  0  0  0  0  0
   -2.4157   -0.7722    0.4482 H   0  0  0  0  0  0  0  0  0  0  0  0
   -2.0803    0.0569   -1.0837 H   0  0  0  0  0  0  0  0  0  0  0  0
   -1.2275    1.0085    0.6690 C   0  0  0  0  0  0  0  0  0  0  0  0
   -1.2320    0.7935    1.7423 H   0  0  0  0  0  0  0  0  0  0  0  0
   -1.8841    1.8630    0.4779 H   0  0  0  0  0  0  0  0  0  0  0  0
    0.1869    1.2510    0.1876 C   0  0  0  0  0  0  0  0  0  0  0  0
    0.7764    1.8229    0.9118 H   0  0  0  0  0  0  0  0  0  0  0  0
    0.1703    1.8097   -0.7543 H   0  0  0  0  0  0  0  0  0  0  0  0
    0.7454   -0.1528   -0.0543 C   0  0  1  0  0  0  0  0  0  0  0  0
    1.2842   -0.0901   -1.0060 H   0  0  0  0  0  0  0  0  0  0  0  0
    1.8551   -0.6210    0.9211 C   0  0  0  0  0  0  0  0  0  0  0  0
    2.9443   -0.9739    0.4857 O   0  0  0  0  0  0  0  0  0  0  0  0
    1.7518   -0.3329    2.2720 N   0  0  0  0  0  0  0  0  0  0  0  0
    0.8287   -0.0908    2.6152 H   0  0  0  0  0  0  0  0  0  0  0  0
    2.7813   -0.6989    3.2369 C   0  0  0  0  0  0  0  0  0  0  0  0
    3.7274   -0.2031    2.9957 H   0  0  0  0  0  0  0  0  0  0  0  0
    2.4807   -0.3953    4.2441 H   0  0  0  0  0  0  0  0  0  0  0  0
    2.9402   -1.7825    3.2329 H   0  0  0  0  0  0  0  0  0  0  0  0
  1  2  1  0  0  0  0
  2  3  1  0  0  0  0
  2  4  1  0  0  0  0
  2  5  1  0  0  0  0
  5  6  2  0  0  0  0
  5  7  1  0  0  0  0
  7  8  1  0  0  0  0
  7 17  1  0  0  0  0
  8  9  1  0  0  0  0
  8 10  1  0  0  0  0
  8 11  1  0  0  0  0
 11 12  1  0  0  0  0
 11 13  1  0  0  0  0
 11 14  1  0  0  0  0
 14 15  1  0  0  0  0
 14 16  1  0  0  0  0
 14 17  1  0  0  0  0
 17 18  1  0  0  0  0
 17 19  1  0  0  0  0
 19 20  2  0  0  0  0
 19 21  1  0  0  0  0
 21 22  1  0  0  0  0
 21 23  1  0  0  0  0
 23 24  1  0  0  0  0
 23 25  1  0  0  0  0
 23 26  1  0  0  0  0
M  END
$$$$

  -OEChem-11182114133D

 26 26  0     1  0  0  0  0  0999 V2000
   -1.5257   -4.2297   -0.3771 H   0  0  0  0  0  0  0  0  0  0  0  0
   -1.7672   -3.1724   -0.2351 C   0  0  0  0  0  0  0  0  0  0  0  0
   -2.4008   -3.0753    0.6494 H   0  0  0  0  0  0  0  0  0  0  0  0
   -2.3157   -2.8246   -1.1138 H   0  0  0  0  0  0  0  0  0  0  0  0
   -0.4867   -2.3634   -0.0567 C   0  0  0  0  0  0  0  0  0  0  0  0
    0.5099   -2.9929    0.2546 O   0  0  0  0  0  0  0  0  0  0  0  0
   -0.4231   -0.9981   -0.3598 N   0  0  0  0  0  0  0  0  0  0  0  0
   -1.6461   -0.2219   -0.1368 C   0  0  0  0  0  0  0  0  0  0  0  0
   -2.4188   -0.7611    0.4197 H   0  0  0  0  0  0  0  0  0  0  0  0
   -2.0662    0.0760   -1.1034 H   0  0  0  0  0  0  0  0  0  0  0  0
   -1.2278    1.0148    0.6630 C   0  0  0  0  0  0  0  0  0  0  0  0
   -1.2403    0.7942    1.7351 H   0  0  0  0  0  0  0  0  0  0  0  0
   -1.8816    1.8716    0.4718 H   0  0  0  0  0  0  0  0  0  0  0  0
    0.1905    1.2586    0.1936 C   0  0  0  0  0  0  0  0  0  0  0  0
    0.7761    1.8175    0.9311 H   0  0  0  0  0  0  0  0  0  0  0  0
    0.1843    1.8268   -0.7428 H   0  0  0  0  0  0  0  0  0  0  0  0
    0.7466   -0.1436   -0.0525 C   0  0  1  0  0  0  0  0  0  0  0  0
    1.2955   -0.0795   -0.9983 H   0  0  0  0  0  0  0  0  0  0  0  0
    1.8420   -0.6094    0.9374 C   0  0  0  0  0  0  0  0  0  0  0  0
    3.0018   -0.7198    0.5586 O   0  0  0  0  0  0  0  0  0  0  0  0
    1.5841   -0.5994    2.2977 N   0  0  0  0  0  0  0  0  0  0  0  0
    0.6060   -0.6063    2.5657 H   0  0  0  0  0  0  0  0  0  0  0  0
    2.5744   -1.0131    3.2838 C   0  0  0  0  0  0  0  0  0  0  0  0
    3.4641   -0.3774    3.2253 H   0  0  0  0  0  0  0  0  0  0  0  0
    2.1597   -0.9319    4.2930 H   0  0  0  0  0  0  0  0  0  0  0  0
    2.8723   -2.0530    3.1123 H   0  0  0  0  0  0  0  0  0  0  0  0
  1  2  1  0  0  0  0
  2  3  1  0  0  0  0
  2  4  1  0  0  0  0
  2  5  1  0  0  0  0
  5  6  2  0  0  0  0
  5  7  1  0  0  0  0
  7  8  1  0  0  0  0
  7 17  1  0  0  0  0
  8  9  1  0  0  0  0
  8 10  1  0  0  0  0
  8 11  1  0  0  0  0
 11 12  1  0  0  0  0
 11 13  1  0  0  0  0
 11 14  1  0  0  0  0
 14 15  1  0  0  0  0
 14 16  1  0  0  0  0
 14 17  1  0  0  0  0
 17 18  1  0  0  0  0
 17 19  1  0  0  0  0
 19 20  2  0  0  0  0
 19 21  1  0  0  0  0
 21 22  1  0  0  0  0
 21 23  1  0  0  0  0
 23 24  1  0  0  0  0
 23 25  1  0  0  0  0
 23 26  1  0  0  0  0
M  END
$$$$

  -OEChem-11182114133D

 26 26  0     1  0  0  0  0  0999 V2000
   -1.5582   -4.2241   -0.3741 H   0  0  0  0  0  0  0  0  0  0  0  0
   -1.7927   -3.1638   -0.2430 C   0  0  0  0  0  0  0  0  0  0  0  0
   -2.4383   -3.0555    0.6314 H   0  0  0  0  0  0  0  0  0  0  0  0
   -2.3260   -2.8174   -1.1318 H   0  0  0  0  0  0  0  0  0  0  0  0
   -0.5079   -2.3644   -0.0533 C   0  0  0  0  0  0  0  0  0  0  0  0
    0.4840   -3.0010    0.2602 O   0  0  0  0  0  0  0  0  0  0  0  0
   -0.4277   -1.0009   -0.3583 N   0  0  0  0  0  0  0  0  0  0  0  0
   -1.6466   -0.2142   -0.1488 C   0  0  0  0  0  0  0  0  0  0  0  0
   -2.4304   -0.7467    0.3986 H   0  0  0  0  0  0  0  0  0  0  0  0
   -2.0533    0.0874   -1.1200 H   0  0  0  0  0  0  0  0  0  0  0  0
   -1.2274    1.0185    0.6569 C   0  0  0  0  0  0  0  0  0  0  0  0
   -1.2516    0.7961    1.7287 H   0  0  0  0  0  0  0  0  0  0  0  0
   -1.8726    1.8807    0.4609 H   0  0  0  0  0  0  0  0  0  0  0  0
    0.1976    1.2519    0.2049 C   0  0  0  0  0  0  0  0  0  0  0  0
    0.7790    1.8031    0.9517 H   0  0  0  0  0  0  0  0  0  0  0  0
    0.2087    1.8219   -0.7303 H   0  0  0  0  0  0  0  0  0  0  0  0
    0.7442   -0.1539   -0.0357 C   0  0  1  0  0  0  0  0  0  0  0  0
    1.3056   -0.0970   -0.9746 H   0  0  0  0  0  0  0  0  0  0  0  0
    1.8267   -0.6133    0.9707 C   0  0  0  0  0  0  0  0  0  0  0  0
    3.0110   -0.4686    0.6920 O   0  0  0  0  0  0  0  0  0  0  0  0
    1.4766   -0.8919    2.2808 N   0  0  0  0  0  0  0  0  0  0  0  0
    0.5064   -1.1502    2.4257 H   0  0  0  0  0  0  0  0  0  0  0  0
    2.4549   -1.3283    3.2688 C   0  0  0  0  0  0  0  0  0  0  0  0
    3.2291   -0.5659    3.4064 H   0  0  0  0  0  0  0  0  0  0  0  0
    1.9669   -1.5000    4.2328 H   0  0  0  0  0  0  0  0  0  0  0  0
    2.9309   -2.2610    2.9481 H   0  0  0  0  0  0  0  0  0  0  0  0
  1  2  1  0  0  0  0
  2  3  1  0  0  0  0
  2  4  1  0  0  0  0
  2  5  1  0  0  0  0
  5  6  2  0  0  0  0
  5  7  1  0  0  0  0
  7  8  1  0  0  0  0
  7 17  1  0  0  0  0
  8  9  1  0  0  0  0
  8 10  1  0  0  0  0
  8 11  1  0  0  0  0
 11 12  1  0  0  0  0
 11 13  1  0  0  0  0
 11 14  1  0  0  0  0
 14 15  1  0  0  0  0
 14 16  1  0  0  0  0
 14 17  1  0  0  0  0
 17 18  1  0  0  0  0
 17 19  1  0  0  0  0
 19 20  2  0  0  0  0
 19 21  1  0  0  0  0
 21 22  1  0  0  0  0
 21 23  1  0  0  0  0
 23 24  1  0  0  0  0
 23 25  1  0  0  0  0
 23 26  1  0  0  0  0
M  END
$$$$

  -OEChem-11182114133D

 26 26  0     1  0  0  0  0  0999 V2000
   -1.6541   -4.2098   -0.4315 H   0  0  0  0  0  0  0  0  0  0  0  0
   -1.8667   -3.1457   -0.2943 C   0  0  0  0  0  0  0  0  0  0  0  0
   -2.5303   -3.0311    0.5659 H   0  0  0  0  0  0  0  0  0  0  0  0
   -2.3709   -2.7776   -1.1914 H   0  0  0  0  0  0  0  0  0  0  0  0
   -0.5688   -2.3781   -0.0660 C   0  0  0  0  0  0  0  0  0  0  0  0
    0.4023   -3.0389    0.2626 O   0  0  0  0  0  0  0  0  0  0  0  0
   -0.4487   -1.0142   -0.3507 N   0  0  0  0  0  0  0  0  0  0  0  0
   -1.6565   -0.2049   -0.1634 C   0  0  0  0  0  0  0  0  0  0  0  0
   -2.4610   -0.7238    0.3664 H   0  0  0  0  0  0  0  0  0  0  0  0
   -2.0376    0.1075   -1.1415 H   0  0  0  0  0  0  0  0  0  0  0  0
   -1.2324    1.0172    0.6542 C   0  0  0  0  0  0  0  0  0  0  0  0
   -1.2819    0.7909    1.7245 H   0  0  0  0  0  0  0  0  0  0  0  0
   -1.8577    1.8916    0.4487 H   0  0  0  0  0  0  0  0  0  0  0  0
    0.2052    1.2259    0.2329 C   0  0  0  0  0  0  0  0  0  0  0  0
    0.7792    1.7645    0.9949 H   0  0  0  0  0  0  0  0  0  0  0  0
    0.2469    1.7992   -0.6993 H   0  0  0  0  0  0  0  0  0  0  0  0
    0.7328   -0.1888   -0.0007 C   0  0  1  0  0  0  0  0  0  0  0  0
    1.3076   -0.1411   -0.9318 H   0  0  0  0  0  0  0  0  0  0  0  0
    1.8117   -0.6424    1.0150 C   0  0  0  0  0  0  0  0  0  0  0  0
    2.9595   -0.2383    0.8703 O   0  0  0  0  0  0  0  0  0  0  0  0
    1.4569   -1.2122    2.2255 N   0  0  0  0  0  0  0  0  0  0  0  0
    0.5958   -1.7508    2.1901 H   0  0  0  0  0  0  0  0  0  0  0  0
    2.4544   -1.6135    3.2096 C   0  0  0  0  0  0  0  0  0  0  0  0
    3.0432   -0.7496    3.5353 H   0  0  0  0  0  0  0  0  0  0  0  0
    1.9650   -2.0457    4.0874 H   0  0  0  0  0  0  0  0  0  0  0  0
    3.1314   -2.3618    2.7844 H   0  0  0  0  0  0  0  0  0  0  0  0
  1  2  1  0  0  0  0
  2  3  1  0  0  0  0
  2  4  1  0  0  0  0
  2  5  1  0  0  0  0
  5  6  2  0  0  0  0
  5  7  1  0  0  0  0
  7  8  1  0  0  0  0
  7 17  1  0  0  0  0
  8  9  1  0  0  0  0
  8 10  1  0  0  0  0
  8 11  1  0  0  0  0
 11 12  1  0  0  0  0
 11 13  1  0  0  0  0
 11 14  1  0  0  0  0
 14 15  1  0  0  0  0
 14 16  1  0  0  0  0
 14 17  1  0  0  0  0
 17 18  1  0  0  0  0
 17 19  1  0  0  0  0
 19 20  2  0  0  0  0
 19 21  1  0  0  0  0
 21 22  1  0  0  0  0
 21 23  1  0  0  0  0
 23 24  1  0  0  0  0
 23 25  1  0  0  0  0
 23 26  1  0  0  0  0
M  END
$$$$

  -OEChem-11182114133D

 26 26  0     1  0  0  0  0  0999 V2000
   -1.7596   -4.1921   -0.4744 H   0  0  0  0  0  0  0  0  0  0  0  0
   -1.9425   -3.1242   -0.3231 C   0  0  0  0  0  0  0  0  0  0  0  0
   -2.5913   -3.0029    0.5475 H   0  0  0  0  0  0  0  0  0  0  0  0
   -2.4491   -2.7338   -1.2092 H   0  0  0  0  0  0  0  0  0  0  0  0
   -0.6220   -2.3923   -0.1034 C   0  0  0  0  0  0  0  0  0  0  0  0
    0.3430   -3.0900    0.1629 O   0  0  0  0  0  0  0  0  0  0  0  0
   -0.4680   -1.0250   -0.3527 N   0  0  0  0  0  0  0  0  0  0  0  0
   -1.6667   -0.1968   -0.1852 C   0  0  0  0  0  0  0  0  0  0  0  0
   -2.4920   -0.7045    0.3229 H   0  0  0  0  0  0  0  0  0  0  0  0
   -2.0204    0.1293   -1.1693 H   0  0  0  0  0  0  0  0  0  0  0  0
   -1.2446    1.0112    0.6516 C   0  0  0  0  0  0  0  0  0  0  0  0
   -1.3225    0.7770    1.7186 H   0  0  0  0  0  0  0  0  0  0  0  0
   -1.8515    1.8968    0.4393 H   0  0  0  0  0  0  0  0  0  0  0  0
    0.2045    1.2008    0.2668 C   0  0  0  0  0  0  0  0  0  0  0  0
    0.7650    1.7272    1.0469 H   0  0  0  0  0  0  0  0  0  0  0  0
    0.2776    1.7809   -0.6591 H   0  0  0  0  0  0  0  0  0  0  0  0
    0.7198   -0.2202    0.0335 C   0  0  1  0  0  0  0  0  0  0  0  0
    1.3087   -0.1729   -0.8885 H   0  0  0  0  0  0  0  0  0  0  0  0
    1.7976   -0.6739    1.0553 C   0  0  0  0  0  0  0  0  0  0  0  0
    2.8689   -0.0783    1.0605 O   0  0  0  0  0  0  0  0  0  0  0  0
    1.5132   -1.5150    2.1163 N   0  0  0  0  0  0  0  0  0  0  0  0
    0.7879   -2.1990    1.9050 H   0  0  0  0  0  0  0  0  0  0  0  0
    2.5260   -1.9038    3.0901 C   0  0  0  0  0  0  0  0  0  0  0  0
    2.9169   -1.0236    3.6112 H   0  0  0  0  0  0  0  0  0  0  0  0
    2.0925   -2.5787    3.8343 H   0  0  0  0  0  0  0  0  0  0  0  0
    3.3561   -2.4187    2.5948 H   0  0  0  0  0  0  0  0  0  0  0  0
  1  2  1  0  0  0  0
  2  3  1  0  0  0  0
  2  4  1  0  0  0  0
  2  5  1  0  0  0  0
  5  6  2  0  0  0  0
  5  7  1  0  0  0  0
  7  8  1  0  0  0  0
  7 17  1  0  0  0  0
  8  9  1  0  0  0  0
  8 10  1  0  0  0  0
  8 11  1  0  0  0  0
 11 12  1  0  0  0  0
 11 13  1  0  0  0  0
 11 14  1  0  0  0  0
 14 15  1  0  0  0  0
 14 16  1  0  0  0  0
 14 17  1  0  0  0  0
 17 18  1  0  0  0  0
 17 19  1  0  0  0  0
 19 20  2  0  0  0  0
 19 21  1  0  0  0  0
 21 22  1  0  0  0  0
 21 23  1  0  0  0  0
 23 24  1  0  0  0  0
 23 25  1  0  0  0  0
 23 26  1  0  0  0  0
M  END
$$$$

  -OEChem-11182114133D

 26 26  0     1  0  0  0  0  0999 V2000
   -1.8449   -4.1805   -0.4651 H   0  0  0  0  0  0  0  0  0  0  0  0
   -1.9970   -3.1069   -0.3206 C   0  0  0  0  0  0  0  0  0  0  0  0
   -2.6114   -2.9615    0.5712 H   0  0  0  0  0  0  0  0  0  0  0  0
   -2.5257   -2.7151   -1.1931 H   0  0  0  0  0  0  0  0  0  0  0  0
   -0.6531   -2.4027   -0.1559 C   0  0  0  0  0  0  0  0  0  0  0  0
    0.3153   -3.1301   -0.0051 O   0  0  0  0  0  0  0  0  0  0  0  0
   -0.4784   -1.0306   -0.3642 N   0  0  0  0  0  0  0  0  0  0  0  0
   -1.6728   -0.1904   -0.2165 C   0  0  0  0  0  0  0  0  0  0  0  0
   -2.5180   -0.6916    0.2639 H   0  0  0  0  0  0  0  0  0  0  0  0
   -1.9969    0.1508   -1.2056 H   0  0  0  0  0  0  0  0  0  0  0  0
   -1.2638    1.0029    0.6441 C   0  0  0  0  0  0  0  0  0  0  0  0
   -1.3738    0.7581    1.7058 H   0  0  0  0  0  0  0  0  0  0  0  0
   -1.8564    1.8964    0.4244 H   0  0  0  0  0  0  0  0  0  0  0  0
    0.1961    1.1819    0.3020 C   0  0  0  0  0  0  0  0  0  0  0  0
    0.7348    1.6994    1.1031 H   0  0  0  0  0  0  0  0  0  0  0  0
    0.2998    1.7709   -0.6154 H   0  0  0  0  0  0  0  0  0  0  0  0
    0.7088   -0.2424    0.0657 C   0  0  1  0  0  0  0  0  0  0  0  0
    1.3154   -0.1878   -0.8441 H   0  0  0  0  0  0  0  0  0  0  0  0
    1.7801   -0.7044    1.0970 C   0  0  0  0  0  0  0  0  0  0  0  0
    2.7606    0.0139    1.2572 O   0  0  0  0  0  0  0  0  0  0  0  0
    1.6201   -1.7691    1.9650 N   0  0  0  0  0  0  0  0  0  0  0  0
    0.9865   -2.4917    1.6222 H   0  0  0  0  0  0  0  0  0  0  0  0
    2.6573   -2.1810    2.9032 C   0  0  0  0  0  0  0  0  0  0  0  0
    2.8884   -1.3699    3.6015 H   0  0  0  0  0  0  0  0  0  0  0  0
    2.3188   -3.0460    3.4813 H   0  0  0  0  0  0  0  0  0  0  0  0
    3.5715   -2.4569    2.3671 H   0  0  0  0  0  0  0  0  0  0  0  0
  1  2  1  0  0  0  0
  2  3  1  0  0  0  0
  2  4  1  0  0  0  0
  2  5  1  0  0  0  0
  5  6  2  0  0  0  0
  5  7  1  0  0  0  0
  7  8  1  0  0  0  0
  7 17  1  0  0  0  0
  8  9  1  0  0  0  0
  8 10  1  0  0  0  0
  8 11  1  0  0  0  0
 11 12  1  0  0  0  0
 11 13  1  0  0  0  0
 11 14  1  0  0  0  0
 14 15  1  0  0  0  0
 14 16  1  0  0  0  0
 14 17  1  0  0  0  0
 17 18  1  0  0  0  0
 17 19  1  0  0  0  0
 19 20  2  0  0  0  0
 19 21  1  0  0  0  0
 21 22  1  0  0  0  0
 21 23  1  0  0  0  0
 23 24  1  0  0  0  0
 23 25  1  0  0  0  0
 23 26  1  0  0  0  0
M  END
$$$$

  -OEChem-11182114133D

 26 26  0     1  0  0  0  0  0999 V2000
   -1.9060   -4.1700   -0.4539 H   0  0  0  0  0  0  0  0  0  0  0  0
   -2.0323   -3.0943   -0.2997 C   0  0  0  0  0  0  0  0  0  0  0  0
   -2.5909   -2.9419    0.6270 H   0  0  0  0  0  0  0  0  0  0  0  0
   -2.6052   -2.6934   -1.1396 H   0  0  0  0  0  0  0  0  0  0  0  0
   -0.6708   -2.4097   -0.2120 C   0  0  0  0  0  0  0  0  0  0  0  0
    0.2959   -3.1545   -0.1863 O   0  0  0  0  0  0  0  0  0  0  0  0
   -0.4834   -1.0334   -0.3806 N   0  0  0  0  0  0  0  0  0  0  0  0
   -1.6742   -0.1857   -0.2394 C   0  0  0  0  0  0  0  0  0  0  0  0
   -2.5324   -0.6838    0.2196 H   0  0  0  0  0  0  0  0  0  0  0  0
   -1.9785    0.1718   -1.2289 H   0  0  0  0  0  0  0  0  0  0  0  0
   -1.2740    0.9909    0.6443 C   0  0  0  0  0  0  0  0  0  0  0  0
   -1.4054    0.7320    1.7001 H   0  0  0  0  0  0  0  0  0  0  0  0
   -1.8561    1.8916    0.4259 H   0  0  0  0  0  0  0  0  0  0  0  0
    0.1922    1.1642    0.3327 C   0  0  0  0  0  0  0  0  0  0  0  0
    0.7130    1.6725    1.1508 H   0  0  0  0  0  0  0  0  0  0  0  0
    0.3161    1.7651   -0.5743 H   0  0  0  0  0  0  0  0  0  0  0  0
    0.7041   -0.2615    0.0846 C   0  0  1  0  0  0  0  0  0  0  0  0
    1.3233   -0.1952   -0.8156 H   0  0  0  0  0  0  0  0  0  0  0  0
    1.7694   -0.7449    1.1183 C   0  0  0  0  0  0  0  0  0  0  0  0
    2.6439    0.0487    1.4480 O   0  0  0  0  0  0  0  0  0  0  0  0
    1.7668   -1.9695    1.7599 N   0  0  0  0  0  0  0  0  0  0  0  0
    1.2085   -2.6925    1.3047 H   0  0  0  0  0  0  0  0  0  0  0  0
    2.8244   -2.4011    2.6658 C   0  0  0  0  0  0  0  0  0  0  0  0
    2.9082   -1.7140    3.5142 H   0  0  0  0  0  0  0  0  0  0  0  0
    2.6027   -3.3999    3.0536 H   0  0  0  0  0  0  0  0  0  0  0  0
    3.7859   -2.4366    2.1433 H   0  0  0  0  0  0  0  0  0  0  0  0
  1  2  1  0  0  0  0
  2  3  1  0  0  0  0
  2  4  1  0  0  0  0
  2  5  1  0  0  0  0
  5  6  2  0  0  0  0
  5  7  1  0  0  0  0
  7  8  1  0  0  0  0
  7 17  1  0  0  0  0
  8  9  1  0  0  0  0
  8 10  1  0  0  0  0
  8 11  1  0  0  0  0
 11 12  1  0  0  0  0
 11 13  1  0  0  0  0
 11 14  1  0  0  0  0
 14 15  1  0  0  0  0
 14 16  1  0  0  0  0
 14 17  1  0  0  0  0
 17 18  1  0  0  0  0
 17 19  1  0  0  0  0
 19 20  2  0  0  0  0
 19 21  1  0  0  0  0
 21 22  1  0  0  0  0
 21 23  1  0  0  0  0
 23 24  1  0  0  0  0
 23 25  1  0  0  0  0
 23 26  1  0  0  0  0
M  END
$$$$

  -OEChem-11182114133D

 26 26  0     1  0  0  0  0  0999 V2000
   -1.9382   -4.1701   -0.4105 H   0  0  0  0  0  0  0  0  0  0  0  0
   -2.0517   -3.0901   -0.2788 C   0  0  0  0  0  0  0  0  0  0  0  0
   -2.5806   -2.9127    0.6606 H   0  0  0  0  0  0  0  0  0  0  0  0
   -2.6468   -2.7041   -1.1103 H   0  0  0  0  0  0  0  0  0  0  0  0
   -0.6825   -2.4151   -0.2493 C   0  0  0  0  0  0  0  0  0  0  0  0
    0.2762   -3.1670   -0.3232 O   0  0  0  0  0  0  0  0  0  0  0  0
   -0.4886   -1.0357   -0.3851 N   0  0  0  0  0  0  0  0  0  0  0  0
   -1.6760   -0.1833   -0.2376 C   0  0  0  0  0  0  0  0  0  0  0  0
   -2.5386   -0.6799    0.2140 H   0  0  0  0  0  0  0  0  0  0  0  0
   -1.9759    0.1855   -1.2244 H   0  0  0  0  0  0  0  0  0  0  0  0
   -1.2736    0.9821    0.6577 C   0  0  0  0  0  0  0  0  0  0  0  0
   -1.4115    0.7147    1.7106 H   0  0  0  0  0  0  0  0  0  0  0  0
   -1.8495    1.8881    0.4450 H   0  0  0  0  0  0  0  0  0  0  0  0
    0.1943    1.1506    0.3545 C   0  0  0  0  0  0  0  0  0  0  0  0
    0.7087    1.6564    1.1777 H   0  0  0  0  0  0  0  0  0  0  0  0
    0.3239    1.7575   -0.5476 H   0  0  0  0  0  0  0  0  0  0  0  0
    0.7035   -0.2766    0.0941 C   0  0  1  0  0  0  0  0  0  0  0  0
    1.3231   -0.1997   -0.8048 H   0  0  0  0  0  0  0  0  0  0  0  0
    1.7730   -0.7882    1.1149 C   0  0  0  0  0  0  0  0  0  0  0  0
    2.5252    0.0346    1.6251 O   0  0  0  0  0  0  0  0  0  0  0  0
    1.9521   -2.1003    1.5095 N   0  0  0  0  0  0  0  0  0  0  0  0
    1.4554   -2.8023    0.9589 H   0  0  0  0  0  0  0  0  0  0  0  0
    3.0239   -2.5485    2.3903 C   0  0  0  0  0  0  0  0  0  0  0  0
    2.9559   -2.0491    3.3623 H   0  0  0  0  0  0  0  0  0  0  0  0
    2.9501   -3.6281    2.5523 H   0  0  0  0  0  0  0  0  0  0  0  0
    4.0012   -2.3298    1.9475 H   0  0  0  0  0  0  0  0  0  0  0  0
  1  2  1  0  0  0  0
  2  3  1  0  0  0  0
  2  4  1  0  0  0  0
  2  5  1  0  0  0  0
  5  6  2  0  0  0  0
  5  7  1  0  0  0  0
  7  8  1  0  0  0  0
  7 17  1  0  0  0  0
  8  9  1  0  0  0  0
  8 10  1  0  0  0  0
  8 11  1  0  0  0  0
 11 12  1  0  0  0  0
 11 13  1  0  0  0  0
 11 14  1  0  0  0  0
 14 15  1  0  0  0  0
 14 16  1  0  0  0  0
 14 17  1  0  0  0  0
 17 18  1  0  0  0  0
 17 19  1  0  0  0  0
 19 20  2  0  0  0  0
 19 21  1  0  0  0  0
 21 22  1  0  0  0  0
 21 23  1  0  0  0  0
 23 24  1  0  0  0  0
 23 25  1  0  0  0  0
 23 26  1  0  0  0  0
M  END
$$$$

  -OEChem-11182114133D

 26 26  0     1  0  0  0  0  0999 V2000
   -1.9253   -4.1772   -0.3542 H   0  0  0  0  0  0  0  0  0  0  0  0
   -2.0335   -3.0970   -0.2195 C   0  0  0  0  0  0  0  0  0  0  0  0
   -2.5030   -2.9172    0.7506 H   0  0  0  0  0  0  0  0  0  0  0  0
   -2.6806   -2.7161   -1.0134 H   0  0  0  0  0  0  0  0  0  0  0  0
   -0.6675   -2.4174   -0.2766 C   0  0  0  0  0  0  0  0  0  0  0  0
    0.2849   -3.1647   -0.4322 O   0  0  0  0  0  0  0  0  0  0  0  0
   -0.4835   -1.0350   -0.3994 N   0  0  0  0  0  0  0  0  0  0  0  0
   -1.6705   -0.1871   -0.2240 C   0  0  0  0  0  0  0  0  0  0  0  0
   -2.5253   -0.6887    0.2366 H   0  0  0  0  0  0  0  0  0  0  0  0
   -1.9866    0.1896   -1.2026 H   0  0  0  0  0  0  0  0  0  0  0  0
   -1.2568    0.9714    0.6739 C   0  0  0  0  0  0  0  0  0  0  0  0
   -1.3761    0.6944    1.7266 H   0  0  0  0  0  0  0  0  0  0  0  0
   -1.8391    1.8773    0.4788 H   0  0  0  0  0  0  0  0  0  0  0  0
    0.2055    1.1473    0.3490 C   0  0  0  0  0  0  0  0  0  0  0  0
    0.7298    1.6549    1.1645 H   0  0  0  0  0  0  0  0  0  0  0  0
    0.3164    1.7598   -0.5518 H   0  0  0  0  0  0  0  0  0  0  0  0
    0.7150   -0.2778    0.0682 C   0  0  1  0  0  0  0  0  0  0  0  0
    1.3216   -0.1876   -0.8380 H   0  0  0  0  0  0  0  0  0  0  0  0
    1.7962   -0.8166    1.0644 C   0  0  0  0  0  0  0  0  0  0  0  0
    2.3971   -0.0182    1.7745 O   0  0  0  0  0  0  0  0  0  0  0  0
    2.1644   -2.1402    1.2060 N   0  0  0  0  0  0  0  0  0  0  0  0
    1.7097   -2.8094    0.5819 H   0  0  0  0  0  0  0  0  0  0  0  0
    3.2028   -2.6189    2.1101 C   0  0  0  0  0  0  0  0  0  0  0  0
    2.9548   -2.3666    3.1463 H   0  0  0  0  0  0  0  0  0  0  0  0
    3.2961   -3.7064    2.0325 H   0  0  0  0  0  0  0  0  0  0  0  0
    4.1687   -2.1695    1.8576 H   0  0  0  0  0  0  0  0  0  0  0  0
  1  2  1  0  0  0  0
  2  3  1  0  0  0  0
  2  4  1  0  0  0  0
  2  5  1  0  0  0  0
  5  6  2  0  0  0  0
  5  7  1  0  0  0  0
  7  8  1  0  0  0  0
  7 17  1  0  0  0  0
  8  9  1  0  0  0  0
  8 10  1  0  0  0  0
  8 11  1  0  0  0  0
 11 12  1  0  0  0  0
 11 13  1  0  0  0  0
 11 14  1  0  0  0  0
 14 15  1  0  0  0  0
 14 16  1  0  0  0  0
 14 17  1  0  0  0  0
 17 18  1  0  0  0  0
 17 19  1  0  0  0  0
 19 20  2  0  0  0  0
 19 21  1  0  0  0  0
 21 22  1  0  0  0  0
 21 23  1  0  0  0  0
 23 24  1  0  0  0  0
 23 25  1  0  0  0  0
 23 26  1  0  0  0  0
M  END
$$$$

  -OEChem-11182114133D

 26 26  0     1  0  0  0  0  0999 V2000
   -1.8239   -4.1978   -0.4580 H   0  0  0  0  0  0  0  0  0  0  0  0
   -1.9578   -3.1257   -0.2861 C   0  0  0  0  0  0  0  0  0  0  0  0
   -2.4397   -2.9913    0.6853 H   0  0  0  0  0  0  0  0  0  0  0  0
   -2.6064   -2.7309   -1.0720 H   0  0  0  0  0  0  0  0  0  0  0  0
   -0.6070   -2.4146   -0.3065 C   0  0  0  0  0  0  0  0  0  0  0  0
    0.3636   -3.1384   -0.4581 O   0  0  0  0  0  0  0  0  0  0  0  0
   -0.4579   -1.0254   -0.4033 N   0  0  0  0  0  0  0  0  0  0  0  0
   -1.6613   -0.2097   -0.1915 C   0  0  0  0  0  0  0  0  0  0  0  0
   -2.4950   -0.7422    0.2730 H   0  0  0  0  0  0  0  0  0  0  0  0
   -2.0033    0.1797   -1.1564 H   0  0  0  0  0  0  0  0  0  0  0  0
   -1.2591    0.9396    0.7244 C   0  0  0  0  0  0  0  0  0  0  0  0
   -1.3542    0.6380    1.7730 H   0  0  0  0  0  0  0  0  0  0  0  0
   -1.8654    1.8354    0.5582 H   0  0  0  0  0  0  0  0  0  0  0  0
    0.1936    1.1571    0.3807 C   0  0  0  0  0  0  0  0  0  0  0  0
    0.7230    1.6619    1.1945 H   0  0  0  0  0  0  0  0  0  0  0  0
    0.2734    1.7886   -0.5103 H   0  0  0  0  0  0  0  0  0  0  0  0
    0.7284   -0.2501    0.0620 C   0  0  1  0  0  0  0  0  0  0  0  0
    1.3226   -0.1240   -0.8481 H   0  0  0  0  0  0  0  0  0  0  0  0
    1.8246   -0.8047    1.0307 C   0  0  0  0  0  0  0  0  0  0  0  0
    2.2344   -0.0982    1.9446 O   0  0  0  0  0  0  0  0  0  0  0  0
    2.4053   -2.0528    0.9170 N   0  0  0  0  0  0  0  0  0  0  0  0
    1.9712   -2.6871    0.2427 H   0  0  0  0  0  0  0  0  0  0  0  0
    3.3698   -2.5994    1.8636 C   0  0  0  0  0  0  0  0  0  0  0  0
    2.9123   -2.7173    2.8512 H   0  0  0  0  0  0  0  0  0  0  0  0
    3.7167   -3.5792    1.5218 H   0  0  0  0  0  0  0  0  0  0  0  0
    4.2388   -1.9392    1.9526 H   0  0  0  0  0  0  0  0  0  0  0  0
  1  2  1  0  0  0  0
  2  3  1  0  0  0  0
  2  4  1  0  0  0  0
  2  5  1  0  0  0  0
  5  6  2  0  0  0  0
  5  7  1  0  0  0  0
  7  8  1  0  0  0  0
  7 17  1  0  0  0  0
  8  9  1  0  0  0  0
  8 10  1  0  0  0  0
  8 11  1  0  0  0  0
 11 12  1  0  0  0  0
 11 13  1  0  0  0  0
 11 14  1  0  0  0  0
 14 15  1  0  0  0  0
 14 16  1  0  0  0  0
 14 17  1  0  0  0  0
 17 18  1  0  0  0  0
 17 19  1  0  0  0  0
 19 20  2  0  0  0  0
 19 21  1  0  0  0  0
 21 22  1  0  0  0  0
 21 23  1  0  0  0  0
 23 24  1  0  0  0  0
 23 25  1  0  0  0  0
 23 26  1  0  0  0  0
M  END
$$$$

  -OEChem-11182114133D

 26 26  0     1  0  0  0  0  0999 V2000
   -1.7586   -4.2143   -0.3002 H   0  0  0  0  0  0  0  0  0  0  0  0
   -1.9057   -3.1387   -0.1651 C   0  0  0  0  0  0  0  0  0  0  0  0
   -2.3523   -2.9739    0.8185 H   0  0  0  0  0  0  0  0  0  0  0  0
   -2.5907   -2.7858   -0.9399 H   0  0  0  0  0  0  0  0  0  0  0  0
   -0.5705   -2.4063   -0.2654 C   0  0  0  0  0  0  0  0  0  0  0  0
    0.4108   -3.1143   -0.4283 O   0  0  0  0  0  0  0  0  0  0  0  0
   -0.4503   -1.0189   -0.4120 N   0  0  0  0  0  0  0  0  0  0  0  0
   -1.6499   -0.2098   -0.1598 C   0  0  0  0  0  0  0  0  0  0  0  0
   -2.4634   -0.7449    0.3365 H   0  0  0  0  0  0  0  0  0  0  0  0
   -2.0296    0.1725   -1.1135 H   0  0  0  0  0  0  0  0  0  0  0  0
   -1.2181    0.9471    0.7354 C   0  0  0  0  0  0  0  0  0  0  0  0
   -1.2695    0.6495    1.7881 H   0  0  0  0  0  0  0  0  0  0  0  0
   -1.8362    1.8385    0.5898 H   0  0  0  0  0  0  0  0  0  0  0  0
    0.2193    1.1720    0.3336 C   0  0  0  0  0  0  0  0  0  0  0  0
    0.7833    1.6788    1.1229 H   0  0  0  0  0  0  0  0  0  0  0  0
    0.2605    1.8001   -0.5624 H   0  0  0  0  0  0  0  0  0  0  0  0
    0.7446   -0.2332    0.0018 C   0  0  1  0  0  0  0  0  0  0  0  0
    1.3167   -0.1098   -0.9228 H   0  0  0  0  0  0  0  0  0  0  0  0
    1.8415   -0.8004    0.9555 C   0  0  0  0  0  0  0  0  0  0  0  0
    2.1060   -0.2138    1.9991 O   0  0  0  0  0  0  0  0  0  0  0  0
    2.5842   -1.9257    0.6534 N   0  0  0  0  0  0  0  0  0  0  0  0
    2.1656   -2.5301   -0.0580 H   0  0  0  0  0  0  0  0  0  0  0  0
    3.5395   -2.5258    1.5760 C   0  0  0  0  0  0  0  0  0  0  0  0
    3.0326   -2.8660    2.4849 H   0  0  0  0  0  0  0  0  0  0  0  0
    4.0246   -3.3863    1.1054 H   0  0  0  0  0  0  0  0  0  0  0  0
    4.3147   -1.8033    1.8522 H   0  0  0  0  0  0  0  0  0  0  0  0
  1  2  1  0  0  0  0
  2  3  1  0  0  0  0
  2  4  1  0  0  0  0
  2  5  1  0  0  0  0
  5  6  2  0  0  0  0
  5  7  1  0  0  0  0
  7  8  1  0  0  0  0
  7 17  1  0  0  0  0
  8  9  1  0  0  0  0
  8 10  1  0  0  0  0
  8 11  1  0  0  0  0
 11 12  1  0  0  0  0
 11 13  1  0  0  0  0
 11 14  1  0  0  0  0
 14 15  1  0  0  0  0
 14 16  1  0  0  0  0
 14 17  1  0  0  0  0
 17 18  1  0  0  0  0
 17 19  1  0  0  0  0
 19 20  2  0  0  0  0
 19 21  1  0  0  0  0
 21 22  1  0  0  0  0
 21 23  1  0  0  0  0
 23 24  1  0  0  0  0
 23 25  1  0  0  0  0
 23 26  1  0  0  0  0
M  END
$$$$

  -OEChem-11182114133D

 26 26  0     1  0  0  0  0  0999 V2000
   -1.6439   -4.2274   -0.2762 H   0  0  0  0  0  0  0  0  0  0  0  0
   -1.8215   -3.1565   -0.1419 C   0  0  0  0  0  0  0  0  0  0  0  0
   -2.2570   -3.0010    0.8481 H   0  0  0  0  0  0  0  0  0  0  0  0
   -2.5291   -2.8265   -0.9064 H   0  0  0  0  0  0  0  0  0  0  0  0
   -0.5103   -2.3858   -0.2654 C   0  0  0  0  0  0  0  0  0  0  0  0
    0.4967   -3.0606   -0.4216 O   0  0  0  0  0  0  0  0  0  0  0  0
   -0.4328   -0.9990   -0.4412 N   0  0  0  0  0  0  0  0  0  0  0  0
   -1.6397   -0.2127   -0.1564 C   0  0  0  0  0  0  0  0  0  0  0  0
   -2.4389   -0.7691    0.3399 H   0  0  0  0  0  0  0  0  0  0  0  0
   -2.0379    0.1827   -1.0968 H   0  0  0  0  0  0  0  0  0  0  0  0
   -1.2073    0.9338    0.7540 C   0  0  0  0  0  0  0  0  0  0  0  0
   -1.2349    0.6143    1.8014 H   0  0  0  0  0  0  0  0  0  0  0  0
   -1.8403    1.8190    0.6375 H   0  0  0  0  0  0  0  0  0  0  0  0
    0.2206    1.1863    0.3308 C   0  0  0  0  0  0  0  0  0  0  0  0
    0.7978    1.6783    1.1203 H   0  0  0  0  0  0  0  0  0  0  0  0
    0.2375    1.8326   -0.5527 H   0  0  0  0  0  0  0  0  0  0  0  0
    0.7543   -0.2043   -0.0353 C   0  0  1  0  0  0  0  0  0  0  0  0
    1.3281   -0.0605   -0.9560 H   0  0  0  0  0  0  0  0  0  0  0  0
    1.8243   -0.7975    0.9261 C   0  0  0  0  0  0  0  0  0  0  0  0
    1.9273   -0.3671    2.0696 O   0  0  0  0  0  0  0  0  0  0  0  0
    2.7389   -1.7388    0.4910 N   0  0  0  0  0  0  0  0  0  0  0  0
    2.4024   -2.2991   -0.2943 H   0  0  0  0  0  0  0  0  0  0  0  0
    3.7057   -2.3612    1.3870 C   0  0  0  0  0  0  0  0  0  0  0  0
    3.1921   -2.9197    2.1764 H   0  0  0  0  0  0  0  0  0  0  0  0
    4.3434   -3.0535    0.8291 H   0  0  0  0  0  0  0  0  0  0  0  0
    4.3454   -1.6025    1.8501 H   0  0  0  0  0  0  0  0  0  0  0  0
  1  2  1  0  0  0  0
  2  3  1  0  0  0  0
  2  4  1  0  0  0  0
  2  5  1  0  0  0  0
  5  6  2  0  0  0  0
  5  7  1  0  0  0  0
  7  8  1  0  0  0  0
  7 17  1  0  0  0  0
  8  9  1  0  0  0  0
  8 10  1  0  0  0  0
  8 11  1  0  0  0  0
 11 12  1  0  0  0  0
 11 13  1  0  0  0  0
 11 14  1  0  0  0  0
 14 15  1  0  0  0  0
 14 16  1  0  0  0  0
 14 17  1  0  0  0  0
 17 18  1  0  0  0  0
 17 19  1  0  0  0  0
 19 20  2  0  0  0  0
 19 21  1  0  0  0  0
 21 22  1  0  0  0  0
 21 23  1  0  0  0  0
 23 24  1  0  0  0  0
 23 25  1  0  0  0  0
 23 26  1  0  0  0  0
M  END
$$$$

  -OEChem-11182114133D

 26 26  0     1  0  0  0  0  0999 V2000
   -1.5446   -4.2357   -0.2434 H   0  0  0  0  0  0  0  0  0  0  0  0
   -1.7492   -3.1683   -0.1205 C   0  0  0  0  0  0  0  0  0  0  0  0
   -2.1755   -3.0113    0.8732 H   0  0  0  0  0  0  0  0  0  0  0  0
   -2.4747   -2.8665   -0.8798 H   0  0  0  0  0  0  0  0  0  0  0  0
   -0.4610   -2.3650   -0.2711 C   0  0  0  0  0  0  0  0  0  0  0  0
    0.5656   -3.0112   -0.4295 O   0  0  0  0  0  0  0  0  0  0  0  0
   -0.4226   -0.9796   -0.4716 N   0  0  0  0  0  0  0  0  0  0  0  0
   -1.6344   -0.2148   -0.1532 C   0  0  0  0  0  0  0  0  0  0  0  0
   -2.4194   -0.7903    0.3440 H   0  0  0  0  0  0  0  0  0  0  0  0
   -2.0523    0.1932   -1.0796 H   0  0  0  0  0  0  0  0  0  0  0  0
   -1.1994    0.9209    0.7713 C   0  0  0  0  0  0  0  0  0  0  0  0
   -1.2031    0.5808    1.8126 H   0  0  0  0  0  0  0  0  0  0  0  0
   -1.8459    1.7995    0.6841 H   0  0  0  0  0  0  0  0  0  0  0  0
    0.2177    1.1996    0.3259 C   0  0  0  0  0  0  0  0  0  0  0  0
    0.8076    1.6756    1.1164 H   0  0  0  0  0  0  0  0  0  0  0  0
    0.2118    1.8646   -0.5438 H   0  0  0  0  0  0  0  0  0  0  0  0
    0.7583   -0.1765   -0.0746 C   0  0  1  0  0  0  0  0  0  0  0  0
    1.3288   -0.0142   -0.9942 H   0  0  0  0  0  0  0  0  0  0  0  0
    1.8090   -0.7890    0.8903 C   0  0  0  0  0  0  0  0  0  0  0  0
    1.7473   -0.5497    2.0914 O   0  0  0  0  0  0  0  0  0  0  0  0
    2.8902   -1.4968    0.3972 N   0  0  0  0  0  0  0  0  0  0  0  0
    2.7189   -1.9339   -0.5067 H   0  0  0  0  0  0  0  0  0  0  0  0
    3.8560   -2.1432    1.2769 C   0  0  0  0  0  0  0  0  0  0  0  0
    3.3635   -2.9028    1.8931 H   0  0  0  0  0  0  0  0  0  0  0  0
    4.6383   -2.6284    0.6857 H   0  0  0  0  0  0  0  0  0  0  0  0
    4.3301   -1.4074    1.9350 H   0  0  0  0  0  0  0  0  0  0  0  0
  1  2  1  0  0  0  0
  2  3  1  0  0  0  0
  2  4  1  0  0  0  0
  2  5  1  0  0  0  0
  5  6  2  0  0  0  0
  5  7  1  0  0  0  0
  7  8  1  0  0  0  0
  7 17  1  0  0  0  0
  8  9  1  0  0  0  0
  8 10  1  0  0  0  0
  8 11  1  0  0  0  0
 11 12  1  0  0  0  0
 11 13  1  0  0  0  0
 11 14  1  0  0  0  0
 14 15  1  0  0  0  0
 14 16  1  0  0  0  0
 14 17  1  0  0  0  0
 17 18  1  0  0  0  0
 17 19  1  0  0  0  0
 19 20  2  0  0  0  0
 19 21  1  0  0  0  0
 21 22  1  0  0  0  0
 21 23  1  0  0  0  0
 23 24  1  0  0  0  0
 23 25  1  0  0  0  0
 23 26  1  0  0  0  0
M  END
$$$$

  -OEChem-11182114133D

 26 26  0     1  0  0  0  0  0999 V2000
   -1.4813   -4.2405   -0.2151 H   0  0  0  0  0  0  0  0  0  0  0  0
   -1.7023   -3.1756   -0.0988 C   0  0  0  0  0  0  0  0  0  0  0  0
   -2.1071   -3.0147    0.9033 H   0  0  0  0  0  0  0  0  0  0  0  0
   -2.4512   -2.8952   -0.8435 H   0  0  0  0  0  0  0  0  0  0  0  0
   -0.4330   -2.3514   -0.2888 C   0  0  0  0  0  0  0  0  0  0  0  0
    0.6022   -2.9792   -0.4691 O   0  0  0  0  0  0  0  0  0  0  0  0
   -0.4216   -0.9669   -0.5002 N   0  0  0  0  0  0  0  0  0  0  0  0
   -1.6354   -0.2161   -0.1570 C   0  0  0  0  0  0  0  0  0  0  0  0
   -2.4117   -0.8047    0.3385 H   0  0  0  0  0  0  0  0  0  0  0  0
   -2.0661    0.2028   -1.0727 H   0  0  0  0  0  0  0  0  0  0  0  0
   -1.1967    0.9091    0.7798 C   0  0  0  0  0  0  0  0  0  0  0  0
   -1.1855    0.5529    1.8157 H   0  0  0  0  0  0  0  0  0  0  0  0
   -1.8500    1.7846    0.7141 H   0  0  0  0  0  0  0  0  0  0  0  0
    0.2131    1.2050    0.3208 C   0  0  0  0  0  0  0  0  0  0  0  0
    0.8114    1.6656    1.1142 H   0  0  0  0  0  0  0  0  0  0  0  0
    0.1940    1.8852   -0.5369 H   0  0  0  0  0  0  0  0  0  0  0  0
    0.7556   -0.1599   -0.1066 C   0  0  1  0  0  0  0  0  0  0  0  0
    1.3199    0.0144   -1.0274 H   0  0  0  0  0  0  0  0  0  0  0  0
    1.7995   -0.7809    0.8568 C   0  0  0  0  0  0  0  0  0  0  0  0
    1.5928   -0.7626    2.0656 O   0  0  0  0  0  0  0  0  0  0  0  0
    3.0231   -1.2181    0.3816 N   0  0  0  0  0  0  0  0  0  0  0  0
    3.0463   -1.4398   -0.6102 H   0  0  0  0  0  0  0  0  0  0  0  0
    3.9978   -1.8747    1.2434 C   0  0  0  0  0  0  0  0  0  0  0  0
    3.5798   -2.7976    1.6588 H   0  0  0  0  0  0  0  0  0  0  0  0
    4.8968   -2.1258    0.6727 H   0  0  0  0  0  0  0  0  0  0  0  0
    4.2876   -1.2154    2.0683 H   0  0  0  0  0  0  0  0  0  0  0  0
  1  2  1  0  0  0  0
  2  3  1  0  0  0  0
  2  4  1  0  0  0  0
  2  5  1  0  0  0  0
  5  6  2  0  0  0  0
  5  7  1  0  0  0  0
  7  8  1  0  0  0  0
  7 17  1  0  0  0  0
  8  9  1  0  0  0  0
  8 10  1  0  0  0  0
  8 11  1  0  0  0  0
 11 12  1  0  0  0  0
 11 13  1  0  0  0  0
 11 14  1  0  0  0  0
 14 15  1  0  0  0  0
 14 16  1  0  0  0  0
 14 17  1  0  0  0  0
 17 18  1  0  0  0  0
 17 19  1  0  0  0  0
 19 20  2  0  0  0  0
 19 21  1  0  0  0  0
 21 22  1  0  0  0  0
 21 23  1  0  0  0  0
 23 24  1  0  0  0  0
 23 25  1  0  0  0  0
 23 26  1  0  0  0  0
M  END
$$$$

  -OEChem-11182114133D

 26 26  0     1  0  0  0  0  0999 V2000
   -1.4439   -4.2425   -0.1809 H   0  0  0  0  0  0  0  0  0  0  0  0
   -1.6753   -3.1784   -0.0794 C   0  0  0  0  0  0  0  0  0  0  0  0
   -2.0522   -3.0031    0.9311 H   0  0  0  0  0  0  0  0  0  0  0  0
   -2.4487   -2.9217   -0.8071 H   0  0  0  0  0  0  0  0  0  0  0  0
   -0.4227   -2.3428   -0.3227 C   0  0  0  0  0  0  0  0  0  0  0  0
    0.6099   -2.9600   -0.5504 O   0  0  0  0  0  0  0  0  0  0  0  0
   -0.4266   -0.9574   -0.5316 N   0  0  0  0  0  0  0  0  0  0  0  0
   -1.6383   -0.2156   -0.1633 C   0  0  0  0  0  0  0  0  0  0  0  0
   -2.4101   -0.8138    0.3273 H   0  0  0  0  0  0  0  0  0  0  0  0
   -2.0773    0.2187   -1.0677 H   0  0  0  0  0  0  0  0  0  0  0  0
   -1.1928    0.8945    0.7886 C   0  0  0  0  0  0  0  0  0  0  0  0
   -1.1693    0.5193    1.8176 H   0  0  0  0  0  0  0  0  0  0  0  0
   -1.8495    1.7687    0.7457 H   0  0  0  0  0  0  0  0  0  0  0  0
    0.2111    1.2027    0.3193 C   0  0  0  0  0  0  0  0  0  0  0  0
    0.8176    1.6483    1.1150 H   0  0  0  0  0  0  0  0  0  0  0  0
    0.1810    1.8984   -0.5256 H   0  0  0  0  0  0  0  0  0  0  0  0
    0.7513   -0.1526   -0.1370 C   0  0  1  0  0  0  0  0  0  0  0  0
    1.3091    0.0323   -1.0595 H   0  0  0  0  0  0  0  0  0  0  0  0
    1.7951   -0.7825    0.8193 C   0  0  0  0  0  0  0  0  0  0  0  0
    1.4920   -0.9790    1.9915 O   0  0  0  0  0  0  0  0  0  0  0  0
    3.1125   -0.9363    0.4247 N   0  0  0  0  0  0  0  0  0  0  0  0
    3.2818   -0.9263   -0.5767 H   0  0  0  0  0  0  0  0  0  0  0  0
    4.1128   -1.5595    1.2821 C   0  0  0  0  0  0  0  0  0  0  0  0
    3.8250   -2.5895    1.5179 H   0  0  0  0  0  0  0  0  0  0  0  0
    5.0843   -1.5762    0.7791 H   0  0  0  0  0  0  0  0  0  0  0  0
    4.2197   -1.0001    2.2174 H   0  0  0  0  0  0  0  0  0  0  0  0
  1  2  1  0  0  0  0
  2  3  1  0  0  0  0
  2  4  1  0  0  0  0
  2  5  1  0  0  0  0
  5  6  2  0  0  0  0
  5  7  1  0  0  0  0
  7  8  1  0  0  0  0
  7 17  1  0  0  0  0
  8  9  1  0  0  0  0
  8 10  1  0  0  0  0
  8 11  1  0  0  0  0
 11 12  1  0  0  0  0
 11 13  1  0  0  0  0
 11 14  1  0  0  0  0
 14 15  1  0  0  0  0
 14 16  1  0  0  0  0
 14 17  1  0  0  0  0
 17 18  1  0  0  0  0
 17 19  1  0  0  0  0
 19 20  2  0  0  0  0
 19 21  1  0  0  0  0
 21 22  1  0  0  0  0
 21 23  1  0  0  0  0
 23 24  1  0  0  0  0
 23 25  1  0  0  0  0
 23 26  1  0  0  0  0
M  END
$$$$

  -OEChem-11182114133D

 26 26  0     1  0  0  0  0  0999 V2000
   -1.4241   -4.2428   -0.1618 H   0  0  0  0  0  0  0  0  0  0  0  0
   -1.6605   -3.1792   -0.0662 C   0  0  0  0  0  0  0  0  0  0  0  0
   -2.0038   -2.9929    0.9542 H   0  0  0  0  0  0  0  0  0  0  0  0
   -2.4600   -2.9378   -0.7704 H   0  0  0  0  0  0  0  0  0  0  0  0
   -0.4231   -2.3384   -0.3624 C   0  0  0  0  0  0  0  0  0  0  0  0
    0.5997   -2.9489   -0.6468 O   0  0  0  0  0  0  0  0  0  0  0  0
   -0.4334   -0.9514   -0.5588 N   0  0  0  0  0  0  0  0  0  0  0  0
   -1.6414   -0.2137   -0.1714 C   0  0  0  0  0  0  0  0  0  0  0  0
   -2.4123   -0.8181    0.3128 H   0  0  0  0  0  0  0  0  0  0  0  0
   -2.0843    0.2361   -1.0662 H   0  0  0  0  0  0  0  0  0  0  0  0
   -1.1881    0.8806    0.7945 C   0  0  0  0  0  0  0  0  0  0  0  0
   -1.1594    0.4893    1.8175 H   0  0  0  0  0  0  0  0  0  0  0  0
   -1.8438    1.7563    0.7687 H   0  0  0  0  0  0  0  0  0  0  0  0
    0.2138    1.1933    0.3211 C   0  0  0  0  0  0  0  0  0  0  0  0
    0.8257    1.6251    1.1202 H   0  0  0  0  0  0  0  0  0  0  0  0
    0.1803    1.9022   -0.5127 H   0  0  0  0  0  0  0  0  0  0  0  0
    0.7486   -0.1552   -0.1594 C   0  0  1  0  0  0  0  0  0  0  0  0
    1.3014    0.0370   -1.0835 H   0  0  0  0  0  0  0  0  0  0  0  0
    1.7980   -0.7936    0.7857 C   0  0  0  0  0  0  0  0  0  0  0  0
    1.4487   -1.1881    1.8936 O   0  0  0  0  0  0  0  0  0  0  0  0
    3.1497   -0.6657    0.5171 N   0  0  0  0  0  0  0  0  0  0  0  0
    3.4032   -0.4294   -0.4373 H   0  0  0  0  0  0  0  0  0  0  0  0
    4.1782   -1.2189    1.3894 C   0  0  0  0  0  0  0  0  0  0  0  0
    4.0538   -2.3025    1.4881 H   0  0  0  0  0  0  0  0  0  0  0  0
    5.1713   -1.0195    0.9757 H   0  0  0  0  0  0  0  0  0  0  0  0
    4.1223   -0.7650    2.3844 H   0  0  0  0  0  0  0  0  0  0  0  0
  1  2  1  0  0  0  0
  2  3  1  0  0  0  0
  2  4  1  0  0  0  0
  2  5  1  0  0  0  0
  5  6  2  0  0  0  0
  5  7  1  0  0  0  0
  7  8  1  0  0  0  0
  7 17  1  0  0  0  0
  8  9  1  0  0  0  0
  8 10  1  0  0  0  0
  8 11  1  0  0  0  0
 11 12  1  0  0  0  0
 11 13  1  0  0  0  0
 11 14  1  0  0  0  0
 14 15  1  0  0  0  0
 14 16  1  0  0  0  0
 14 17  1  0  0  0  0
 17 18  1  0  0  0  0
 17 19  1  0  0  0  0
 19 20  2  0  0  0  0
 19 21  1  0  0  0  0
 21 22  1  0  0  0  0
 21 23  1  0  0  0  0
 23 24  1  0  0  0  0
 23 25  1  0  0  0  0
 23 26  1  0  0  0  0
M  END
$$$$

  -OEChem-11182114133D

 26 26  0     1  0  0  0  0  0999 V2000
   -1.4093   -4.2420   -0.1356 H   0  0  0  0  0  0  0  0  0  0  0  0
   -1.6491   -3.1783   -0.0510 C   0  0  0  0  0  0  0  0  0  0  0  0
   -1.9548   -2.9754    0.9782 H   0  0  0  0  0  0  0  0  0  0  0  0
   -2.4756   -2.9545   -0.7295 H   0  0  0  0  0  0  0  0  0  0  0  0
   -0.4288   -2.3362   -0.4078 C   0  0  0  0  0  0  0  0  0  0  0  0
    0.5762   -2.9419   -0.7587 O   0  0  0  0  0  0  0  0  0  0  0  0
   -0.4400   -0.9470   -0.5865 N   0  0  0  0  0  0  0  0  0  0  0  0
   -1.6421   -0.2119   -0.1766 C   0  0  0  0  0  0  0  0  0  0  0  0
   -2.4119   -0.8204    0.3039 H   0  0  0  0  0  0  0  0  0  0  0  0
   -2.0907    0.2531   -1.0607 H   0  0  0  0  0  0  0  0  0  0  0  0
   -1.1766    0.8654    0.8017 C   0  0  0  0  0  0  0  0  0  0  0  0
   -1.1411    0.4582    1.8180 H   0  0  0  0  0  0  0  0  0  0  0  0
   -1.8291    1.7437    0.7952 H   0  0  0  0  0  0  0  0  0  0  0  0
    0.2222    1.1807    0.3219 C   0  0  0  0  0  0  0  0  0  0  0  0
    0.8413    1.5984    1.1229 H   0  0  0  0  0  0  0  0  0  0  0  0
    0.1843    1.9023   -0.5005 H   0  0  0  0  0  0  0  0  0  0  0  0
    0.7491   -0.1617   -0.1840 C   0  0  1  0  0  0  0  0  0  0  0  0
    1.2952    0.0386   -1.1105 H   0  0  0  0  0  0  0  0  0  0  0  0
    1.8105   -0.8058    0.7450 C   0  0  0  0  0  0  0  0  0  0  0  0
    1.4545   -1.3816    1.7684 O   0  0  0  0  0  0  0  0  0  0  0  0
    3.1357   -0.4175    0.6437 N   0  0  0  0  0  0  0  0  0  0  0  0
    3.4189    0.0390   -0.2177 H   0  0  0  0  0  0  0  0  0  0  0  0
    4.1705   -0.8836    1.5589 C   0  0  0  0  0  0  0  0  0  0  0  0
    4.2253   -1.9773    1.5498 H   0  0  0  0  0  0  0  0  0  0  0  0
    5.1455   -0.4850    1.2625 H   0  0  0  0  0  0  0  0  0  0  0  0
    3.9579   -0.5500    2.5800 H   0  0  0  0  0  0  0  0  0  0  0  0
  1  2  1  0  0  0  0
  2  3  1  0  0  0  0
  2  4  1  0  0  0  0
  2  5  1  0  0  0  0
  5  6  2  0  0  0  0
  5  7  1  0  0  0  0
  7  8  1  0  0  0  0
  7 17  1  0  0  0  0
  8  9  1  0  0  0  0
  8 10  1  0  0  0  0
  8 11  1  0  0  0  0
 11 12  1  0  0  0  0
 11 13  1  0  0  0  0
 11 14  1  0  0  0  0
 14 15  1  0  0  0  0
 14 16  1  0  0  0  0
 14 17  1  0  0  0  0
 17 18  1  0  0  0  0
 17 19  1  0  0  0  0
 19 20  2  0  0  0  0
 19 21  1  0  0  0  0
 21 22  1  0  0  0  0
 21 23  1  0  0  0  0
 23 24  1  0  0  0  0
 23 25  1  0  0  0  0
 23 26  1  0  0  0  0
M  END
$$$$

  -OEChem-11182114133D

 26 26  0     1  0  0  0  0  0999 V2000
   -1.3870   -4.2403   -0.1094 H   0  0  0  0  0  0  0  0  0  0  0  0
   -1.6315   -3.1773   -0.0290 C   0  0  0  0  0  0  0  0  0  0  0  0
   -1.8945   -2.9625    1.0096 H   0  0  0  0  0  0  0  0  0  0  0  0
   -2.4874   -2.9679   -0.6747 H   0  0  0  0  0  0  0  0  0  0  0  0
   -0.4329   -2.3330   -0.4484 C   0  0  0  0  0  0  0  0  0  0  0  0
    0.5474   -2.9332   -0.8711 O   0  0  0  0  0  0  0  0  0  0  0  0
   -0.4429   -0.9418   -0.6075 N   0  0  0  0  0  0  0  0  0  0  0  0
   -1.6406   -0.2097   -0.1809 C   0  0  0  0  0  0  0  0  0  0  0  0
   -2.4086   -0.8225    0.2969 H   0  0  0  0  0  0  0  0  0  0  0  0
   -2.0943    0.2658   -1.0569 H   0  0  0  0  0  0  0  0  0  0  0  0
   -1.1668    0.8563    0.8047 C   0  0  0  0  0  0  0  0  0  0  0  0
   -1.1263    0.4388    1.8166 H   0  0  0  0  0  0  0  0  0  0  0  0
   -1.8175    1.7363    0.8104 H   0  0  0  0  0  0  0  0  0  0  0  0
    0.2296    1.1728    0.3190 C   0  0  0  0  0  0  0  0  0  0  0  0
    0.8518    1.5848    1.1205 H   0  0  0  0  0  0  0  0  0  0  0  0
    0.1867    1.9017   -0.4970 H   0  0  0  0  0  0  0  0  0  0  0  0
    0.7535   -0.1656   -0.2048 C   0  0  1  0  0  0  0  0  0  0  0  0
    1.2912    0.0420   -1.1346 H   0  0  0  0  0  0  0  0  0  0  0  0
    1.8345   -0.8081    0.7065 C   0  0  0  0  0  0  0  0  0  0  0  0
    1.5104   -1.5566    1.6230 O   0  0  0  0  0  0  0  0  0  0  0  0
    3.0730   -0.1953    0.8054 N   0  0  0  0  0  0  0  0  0  0  0  0
    3.3314    0.4528    0.0682 H   0  0  0  0  0  0  0  0  0  0  0  0
    4.0863   -0.5904    1.7769 C   0  0  0  0  0  0  0  0  0  0  0  0
    4.3303   -1.6523    1.6661 H   0  0  0  0  0  0  0  0  0  0  0  0
    5.0003   -0.0080    1.6276 H   0  0  0  0  0  0  0  0  0  0  0  0
    3.7282   -0.4154    2.7968 H   0  0  0  0  0  0  0  0  0  0  0  0
  1  2  1  0  0  0  0
  2  3  1  0  0  0  0
  2  4  1  0  0  0  0
  2  5  1  0  0  0  0
  5  6  2  0  0  0  0
  5  7  1  0  0  0  0
  7  8  1  0  0  0  0
  7 17  1  0  0  0  0
  8  9  1  0  0  0  0
  8 10  1  0  0  0  0
  8 11  1  0  0  0  0
 11 12  1  0  0  0  0
 11 13  1  0  0  0  0
 11 14  1  0  0  0  0
 14 15  1  0  0  0  0
 14 16  1  0  0  0  0
 14 17  1  0  0  0  0
 17 18  1  0  0  0  0
 17 19  1  0  0  0  0
 19 20  2  0  0  0  0
 19 21  1  0  0  0  0
 21 22  1  0  0  0  0
 21 23  1  0  0  0  0
 23 24  1  0  0  0  0
 23 25  1  0  0  0  0
 23 26  1  0  0  0  0
M  END
$$$$

  -OEChem-11182114133D

 26 26  0     1  0  0  0  0  0999 V2000
   -0.9768   -3.9981    0.5439 H   0  0  0  0  0  0  0  0  0  0  0  0
   -1.3778   -3.0013    0.3404 C   0  0  0  0  0  0  0  0  0  0  0  0
   -1.4387   -2.4582    1.2864 H   0  0  0  0  0  0  0  0  0  0  0  0
   -2.3772   -3.1057   -0.0880 H   0  0  0  0  0  0  0  0  0  0  0  0
   -0.4591   -2.2662   -0.6305 C   0  0  0  0  0  0  0  0  0  0  0  0
    0.3105   -2.9288   -1.3117 O   0  0  0  0  0  0  0  0  0  0  0  0
   -0.4119   -0.8838   -0.8260 N   0  0  0  0  0  0  0  0  0  0  0  0
   -1.6339   -0.1659   -0.4476 C   0  0  0  0  0  0  0  0  0  0  0  0
   -2.4759   -0.8036   -0.1659 H   0  0  0  0  0  0  0  0  0  0  0  0
   -1.9621    0.4224   -1.3112 H   0  0  0  0  0  0  0  0  0  0  0  0
   -1.2766    0.7800    0.7000 C   0  0  0  0  0  0  0  0  0  0  0  0
   -1.3321    0.2522    1.6579 H   0  0  0  0  0  0  0  0  0  0  0  0
   -1.9302    1.6569    0.7379 H   0  0  0  0  0  0  0  0  0  0  0  0
    0.1546    1.1362    0.3772 C   0  0  0  0  0  0  0  0  0  0  0  0
    0.6916    1.4596    1.2744 H   0  0  0  0  0  0  0  0  0  0  0  0
    0.1833    1.9495   -0.3558 H   0  0  0  0  0  0  0  0  0  0  0  0
    0.7315   -0.1445   -0.2390 C   0  0  1  0  0  0  0  0  0  0  0  0
    1.2930    0.1845   -1.1188 H   0  0  0  0  0  0  0  0  0  0  0  0
    1.8601   -0.8257    0.5927 C   0  0  0  0  0  0  0  0  0  0  0  0
    1.7156   -1.9102    1.1420 O   0  0  0  0  0  0  0  0  0  0  0  0
    2.8835   -0.0307    1.0856 N   0  0  0  0  0  0  0  0  0  0  0  0
    2.9905    0.8947    0.6822 H   0  0  0  0  0  0  0  0  0  0  0  0
    3.8952   -0.5042    2.0246 C   0  0  0  0  0  0  0  0  0  0  0  0
    4.4171   -1.3772    1.6184 H   0  0  0  0  0  0  0  0  0  0  0  0
    4.6327    0.2817    2.2133 H   0  0  0  0  0  0  0  0  0  0  0  0
    3.4334   -0.7812    2.9782 H   0  0  0  0  0  0  0  0  0  0  0  0
  1  2  1  0  0  0  0
  2  3  1  0  0  0  0
  2  4  1  0  0  0  0
  2  5  1  0  0  0  0
  5  6  2  0  0  0  0
  5  7  1  0  0  0  0
  7  8  1  0  0  0  0
  7 17  1  0  0  0  0
  8  9  1  0  0  0  0
  8 10  1  0  0  0  0
  8 11  1  0  0  0  0
 11 12  1  0  0  0  0
 11 13  1  0  0  0  0
 11 14  1  0  0  0  0
 14 15  1  0  0  0  0
 14 16  1  0  0  0  0
 14 17  1  0  0  0  0
 17 18  1  0  0  0  0
 17 19  1  0  0  0  0
 19 20  2  0  0  0  0
 19 21  1  0  0  0  0
 21 22  1  0  0  0  0
 21 23  1  0  0  0  0
 23 24  1  0  0  0  0
 23 25  1  0  0  0  0
 23 26  1  0  0  0  0
M  END
$$$$

  -OEChem-11182114133D

 26 26  0     1  0  0  0  0  0999 V2000
   -0.0014   -3.6804    0.7360 H   0  0  0  0  0  0  0  0  0  0  0  0
   -0.7642   -2.9059    0.6237 C   0  0  0  0  0  0  0  0  0  0  0  0
   -0.6608   -2.1829    1.4352 H   0  0  0  0  0  0  0  0  0  0  0  0
   -1.7502   -3.3714    0.7007 H   0  0  0  0  0  0  0  0  0  0  0  0
   -0.6146   -2.2272   -0.7350 C   0  0  0  0  0  0  0  0  0  0  0  0
   -1.1979   -2.7696   -1.6638 O   0  0  0  0  0  0  0  0  0  0  0  0
   -0.3965   -0.8550   -0.8723 N   0  0  0  0  0  0  0  0  0  0  0  0
   -1.6443   -0.1146   -0.6689 C   0  0  0  0  0  0  0  0  0  0  0  0
   -2.4996   -0.7519   -0.4131 H   0  0  0  0  0  0  0  0  0  0  0  0
   -1.8943    0.4175   -1.5929 H   0  0  0  0  0  0  0  0  0  0  0  0
   -1.3843    0.8851    0.4593 C   0  0  0  0  0  0  0  0  0  0  0  0
   -1.5621    0.4134    1.4312 H   0  0  0  0  0  0  0  0  0  0  0  0
   -2.0147    1.7761    0.3769 H   0  0  0  0  0  0  0  0  0  0  0  0
    0.0848    1.1962    0.2831 C   0  0  0  0  0  0  0  0  0  0  0  0
    0.5200    1.5659    1.2157 H   0  0  0  0  0  0  0  0  0  0  0  0
    0.2127    1.9674   -0.4844 H   0  0  0  0  0  0  0  0  0  0  0  0
    0.7022   -0.1246   -0.2004 C   0  0  1  0  0  0  0  0  0  0  0  0
    1.3565    0.1638   -1.0293 H   0  0  0  0  0  0  0  0  0  0  0  0
    1.7344   -0.8061    0.7405 C   0  0  0  0  0  0  0  0  0  0  0  0
    2.0042   -1.9948    0.6529 O   0  0  0  0  0  0  0  0  0  0  0  0
    2.5321   -0.0370    1.5719 N   0  0  0  0  0  0  0  0  0  0  0  0
    2.3909    0.9683    1.5607 H   0  0  0  0  0  0  0  0  0  0  0  0
    3.6294   -0.5792    2.3662 C   0  0  0  0  0  0  0  0  0  0  0  0
    4.3917   -1.0219    1.7165 H   0  0  0  0  0  0  0  0  0  0  0  0
    4.0971    0.2149    2.9561 H   0  0  0  0  0  0  0  0  0  0  0  0
    3.2619   -1.3482    3.0537 H   0  0  0  0  0  0  0  0  0  0  0  0
  1  2  1  0  0  0  0
  2  3  1  0  0  0  0
  2  4  1  0  0  0  0
  2  5  1  0  0  0  0
  5  6  2  0  0  0  0
  5  7  1  0  0  0  0
  7  8  1  0  0  0  0
  7 17  1  0  0  0  0
  8  9  1  0  0  0  0
  8 10  1  0  0  0  0
  8 11  1  0  0  0  0
 11 12  1  0  0  0  0
 11 13  1  0  0  0  0
 11 14  1  0  0  0  0
 14 15  1  0  0  0  0
 14 16  1  0  0  0  0
 14 17  1  0  0  0  0
 17 18  1  0  0  0  0
 17 19  1  0  0  0  0
 19 20  2  0  0  0  0
 19 21  1  0  0  0  0
 21 22  1  0  0  0  0
 21 23  1  0  0  0  0
 23 24  1  0  0  0  0
 23 25  1  0  0  0  0
 23 26  1  0  0  0  0
M  END
$$$$

  -OEChem-11182114133D

 26 26  0     1  0  0  0  0  0999 V2000
    0.2729   -3.5954    0.6983 H   0  0  0  0  0  0  0  0  0  0  0  0
   -0.5910   -2.9282    0.6500 C   0  0  0  0  0  0  0  0  0  0  0  0
   -0.5406   -2.2104    1.4709 H   0  0  0  0  0  0  0  0  0  0  0  0
   -1.4969   -3.5272    0.7763 H   0  0  0  0  0  0  0  0  0  0  0  0
   -0.6245   -2.2150   -0.6989 C   0  0  0  0  0  0  0  0  0  0  0  0
   -1.3074   -2.7525   -1.5610 O   0  0  0  0  0  0  0  0  0  0  0  0
   -0.4049   -0.8426   -0.8523 N   0  0  0  0  0  0  0  0  0  0  0  0
   -1.6570   -0.0963   -0.6990 C   0  0  0  0  0  0  0  0  0  0  0  0
   -2.5157   -0.7245   -0.4318 H   0  0  0  0  0  0  0  0  0  0  0  0
   -1.8918    0.4009   -1.6461 H   0  0  0  0  0  0  0  0  0  0  0  0
   -1.4180    0.9439    0.3977 C   0  0  0  0  0  0  0  0  0  0  0  0
   -1.6123    0.5060    1.3822 H   0  0  0  0  0  0  0  0  0  0  0  0
   -2.0481    1.8302    0.2726 H   0  0  0  0  0  0  0  0  0  0  0  0
    0.0535    1.2513    0.2370 C   0  0  0  0  0  0  0  0  0  0  0  0
    0.4727    1.6624    1.1586 H   0  0  0  0  0  0  0  0  0  0  0  0
    0.1926    1.9917   -0.5585 H   0  0  0  0  0  0  0  0  0  0  0  0
    0.6799   -0.0861   -0.1878 C   0  0  1  0  0  0  0  0  0  0  0  0
    1.3456    0.1812   -1.0149 H   0  0  0  0  0  0  0  0  0  0  0  0
    1.7000   -0.7560    0.7717 C   0  0  0  0  0  0  0  0  0  0  0  0
    2.1587   -1.8608    0.5196 O   0  0  0  0  0  0  0  0  0  0  0  0
    2.2750   -0.0520    1.8169 N   0  0  0  0  0  0  0  0  0  0  0  0
    1.9660    0.9026    1.9697 H   0  0  0  0  0  0  0  0  0  0  0  0
    3.3535   -0.5784    2.6467 C   0  0  0  0  0  0  0  0  0  0  0  0
    4.2369   -0.7934    2.0362 H   0  0  0  0  0  0  0  0  0  0  0  0
    3.6326    0.1522    3.4120 H   0  0  0  0  0  0  0  0  0  0  0  0
    3.0382   -1.4998    3.1475 H   0  0  0  0  0  0  0  0  0  0  0  0
  1  2  1  0  0  0  0
  2  3  1  0  0  0  0
  2  4  1  0  0  0  0
  2  5  1  0  0  0  0
  5  6  2  0  0  0  0
  5  7  1  0  0  0  0
  7  8  1  0  0  0  0
  7 17  1  0  0  0  0
  8  9  1  0  0  0  0
  8 10  1  0  0  0  0
  8 11  1  0  0  0  0
 11 12  1  0  0  0  0
 11 13  1  0  0  0  0
 11 14  1  0  0  0  0
 14 15  1  0  0  0  0
 14 16  1  0  0  0  0
 14 17  1  0  0  0  0
 17 18  1  0  0  0  0
 17 19  1  0  0  0  0
 19 20  2  0  0  0  0
 19 21  1  0  0  0  0
 21 22  1  0  0  0  0
 21 23  1  0  0  0  0
 23 24  1  0  0  0  0
 23 25  1  0  0  0  0
 23 26  1  0  0  0  0
M  END
$$$$

  -OEChem-11182114133D

 26 26  0     1  0  0  0  0  0999 V2000
    0.0341   -3.9634    0.4199 H   0  0  0  0  0  0  0  0  0  0  0  0
   -0.5745   -3.3584   -0.2570 C   0  0  0  0  0  0  0  0  0  0  0  0
   -1.4454   -3.9378   -0.5720 H   0  0  0  0  0  0  0  0  0  0  0  0
    0.0223   -3.1119   -1.1386 H   0  0  0  0  0  0  0  0  0  0  0  0
   -1.0263   -2.0902    0.4500 C   0  0  0  0  0  0  0  0  0  0  0  0
   -1.6638   -2.2213    1.4881 O   0  0  0  0  0  0  0  0  0  0  0  0
   -0.9043   -0.8550   -0.1978 N   0  0  0  0  0  0  0  0  0  0  0  0
   -1.9475    0.1275    0.1365 C   0  0  0  0  0  0  0  0  0  0  0  0
   -2.7607   -0.2542    0.7628 H   0  0  0  0  0  0  0  0  0  0  0  0
   -2.4058    0.4681   -0.7979 H   0  0  0  0  0  0  0  0  0  0  0  0
   -1.2635    1.3088    0.8241 C   0  0  0  0  0  0  0  0  0  0  0  0
   -1.1617    1.1106    1.8964 H   0  0  0  0  0  0  0  0  0  0  0  0
   -1.8116    2.2460    0.6858 H   0  0  0  0  0  0  0  0  0  0  0  0
    0.0907    1.3220    0.1557 C   0  0  0  0  0  0  0  0  0  0  0  0
    0.8368    1.8366    0.7661 H   0  0  0  0  0  0  0  0  0  0  0  0
    0.0227    1.8485   -0.8025 H   0  0  0  0  0  0  0  0  0  0  0  0
    0.4012   -0.1616   -0.0957 C   0  0  1  0  0  0  0  0  0  0  0  0
    0.8096   -0.1901   -1.1111 H   0  0  0  0  0  0  0  0  0  0  0  0
    1.5634   -0.8050    0.7155 C   0  0  0  0  0  0  0  0  0  0  0  0
    1.9508   -1.9344    0.4487 O   0  0  0  0  0  0  0  0  0  0  0  0
    2.3300   -0.0628    1.5985 N   0  0  0  0  0  0  0  0  0  0  0  0
    1.9870    0.8576    1.8540 H   0  0  0  0  0  0  0  0  0  0  0  0
    3.4655   -0.6107    2.3324 C   0  0  0  0  0  0  0  0  0  0  0  0
    4.2359   -0.9647    1.6392 H   0  0  0  0  0  0  0  0  0  0  0  0
    3.9073    0.1579    2.9737 H   0  0  0  0  0  0  0  0  0  0  0  0
    3.1469   -1.4473    2.9631 H   0  0  0  0  0  0  0  0  0  0  0  0
  1  2  1  0  0  0  0
  2  3  1  0  0  0  0
  2  4  1  0  0  0  0
  2  5  1  0  0  0  0
  5  6  2  0  0  0  0
  5  7  1  0  0  0  0
  7  8  1  0  0  0  0
  7 17  1  0  0  0  0
  8  9  1  0  0  0  0
  8 10  1  0  0  0  0
  8 11  1  0  0  0  0
 11 12  1  0  0  0  0
 11 13  1  0  0  0  0
 11 14  1  0  0  0  0
 14 15  1  0  0  0  0
 14 16  1  0  0  0  0
 14 17  1  0  0  0  0
 17 18  1  0  0  0  0
 17 19  1  0  0  0  0
 19 20  2  0  0  0  0
 19 21  1  0  0  0  0
 21 22  1  0  0  0  0
 21 23  1  0  0  0  0
 23 24  1  0  0  0  0
 23 25  1  0  0  0  0
 23 26  1  0  0  0  0
M  END
$$$$

  -OEChem-11182114133D

 26 26  0     1  0  0  0  0  0999 V2000
    0.1336   -3.8640    0.4659 H   0  0  0  0  0  0  0  0  0  0  0  0
   -0.5366   -3.3313   -0.2138 C   0  0  0  0  0  0  0  0  0  0  0  0
   -1.3802   -3.9782   -0.4658 H   0  0  0  0  0  0  0  0  0  0  0  0
    0.0095   -3.0939   -1.1301 H   0  0  0  0  0  0  0  0  0  0  0  0
   -1.0411   -2.0592    0.4487 C   0  0  0  0  0  0  0  0  0  0  0  0
   -1.6797   -2.1805    1.4870 O   0  0  0  0  0  0  0  0  0  0  0  0
   -0.9221   -0.8323   -0.2154 N   0  0  0  0  0  0  0  0  0  0  0  0
   -1.9492    0.1645    0.1264 C   0  0  0  0  0  0  0  0  0  0  0  0
   -2.7633   -0.2067    0.7579 H   0  0  0  0  0  0  0  0  0  0  0  0
   -2.4091    0.5116   -0.8047 H   0  0  0  0  0  0  0  0  0  0  0  0
   -1.2438    1.3380    0.8092 C   0  0  0  0  0  0  0  0  0  0  0  0
   -1.1344    1.1383    1.8803 H   0  0  0  0  0  0  0  0  0  0  0  0
   -1.7815    2.2819    0.6761 H   0  0  0  0  0  0  0  0  0  0  0  0
    0.1038    1.3349    0.1265 C   0  0  0  0  0  0  0  0  0  0  0  0
    0.8692    1.8337    0.7273 H   0  0  0  0  0  0  0  0  0  0  0  0
    0.0326    1.8630   -0.8307 H   0  0  0  0  0  0  0  0  0  0  0  0
    0.3888   -0.1516   -0.1268 C   0  0  1  0  0  0  0  0  0  0  0  0
    0.7928   -0.1868   -1.1439 H   0  0  0  0  0  0  0  0  0  0  0  0
    1.5333   -0.8135    0.6884 C   0  0  0  0  0  0  0  0  0  0  0  0
    2.0404   -1.8550    0.2945 O   0  0  0  0  0  0  0  0  0  0  0  0
    2.1073   -0.1784    1.7761 N   0  0  0  0  0  0  0  0  0  0  0  0
    1.6249    0.6367    2.1421 H   0  0  0  0  0  0  0  0  0  0  0  0
    3.1753   -0.7709    2.5731 C   0  0  0  0  0  0  0  0  0  0  0  0
    4.0463   -0.9904    1.9465 H   0  0  0  0  0  0  0  0  0  0  0  0
    3.4856   -0.0794    3.3623 H   0  0  0  0  0  0  0  0  0  0  0  0
    2.8338   -1.7006    3.0405 H   0  0  0  0  0  0  0  0  0  0  0  0
  1  2  1  0  0  0  0
  2  3  1  0  0  0  0
  2  4  1  0  0  0  0
  2  5  1  0  0  0  0
  5  6  2  0  0  0  0
  5  7  1  0  0  0  0
  7  8  1  0  0  0  0
  7 17  1  0  0  0  0
  8  9  1  0  0  0  0
  8 10  1  0  0  0  0
  8 11  1  0  0  0  0
 11 12  1  0  0  0  0
 11 13  1  0  0  0  0
 11 14  1  0  0  0  0
 14 15  1  0  0  0  0
 14 16  1  0  0  0  0
 14 17  1  0  0  0  0
 17 18  1  0  0  0  0
 17 19  1  0  0  0  0
 19 20  2  0  0  0  0
 19 21  1  0  0  0  0
 21 22  1  0  0  0  0
 21 23  1  0  0  0  0
 23 24  1  0  0  0  0
 23 25  1  0  0  0  0
 23 26  1  0  0  0  0
M  END
$$$$

  -OEChem-11182114133D

 26 26  0     1  0  0  0  0  0999 V2000
   -1.3783   -4.2544   -0.3573 H   0  0  0  0  0  0  0  0  0  0  0  0
   -1.7128   -3.2137   -0.3251 C   0  0  0  0  0  0  0  0  0  0  0  0
   -2.5688   -3.1392    0.3495 H   0  0  0  0  0  0  0  0  0  0  0  0
   -2.0214   -2.9185   -1.3310 H   0  0  0  0  0  0  0  0  0  0  0  0
   -0.5789   -2.3206    0.1630 C   0  0  0  0  0  0  0  0  0  0  0  0
    0.1906   -2.8078    0.9741 O   0  0  0  0  0  0  0  0  0  0  0  0
   -0.4433   -1.0176   -0.3285 N   0  0  0  0  0  0  0  0  0  0  0  0
   -1.6665   -0.2314   -0.1423 C   0  0  0  0  0  0  0  0  0  0  0  0
   -2.4593   -0.7632    0.3952 H   0  0  0  0  0  0  0  0  0  0  0  0
   -2.0599    0.0558   -1.1234 H   0  0  0  0  0  0  0  0  0  0  0  0
   -1.2727    1.0192    0.6532 C   0  0  0  0  0  0  0  0  0  0  0  0
   -1.2948    0.8061    1.7269 H   0  0  0  0  0  0  0  0  0  0  0  0
   -1.9322    1.8679    0.4467 H   0  0  0  0  0  0  0  0  0  0  0  0
    0.1461    1.2652    0.1937 C   0  0  0  0  0  0  0  0  0  0  0  0
    0.7178    1.8468    0.9236 H   0  0  0  0  0  0  0  0  0  0  0  0
    0.1422    1.8174   -0.7525 H   0  0  0  0  0  0  0  0  0  0  0  0
    0.7117   -0.1403   -0.0271 C   0  0  1  0  0  0  0  0  0  0  0  0
    1.2242   -0.0660   -0.9922 H   0  0  0  0  0  0  0  0  0  0  0  0
    1.8857   -0.5935    0.8802 C   0  0  0  0  0  0  0  0  0  0  0  0
    2.8475   -1.1675    0.3826 O   0  0  0  0  0  0  0  0  0  0  0  0
    1.9994   -0.1165    2.1756 N   0  0  0  0  0  0  0  0  0  0  0  0
    1.1528    0.2551    2.5930 H   0  0  0  0  0  0  0  0  0  0  0  0
    3.0945   -0.5009    3.0578 C   0  0  0  0  0  0  0  0  0  0  0  0
    4.0559   -0.1942    2.6325 H   0  0  0  0  0  0  0  0  0  0  0  0
    2.9810   -0.0191    4.0335 H   0  0  0  0  0  0  0  0  0  0  0  0
    3.1042   -1.5862    3.2043 H   0  0  0  0  0  0  0  0  0  0  0  0
  1  2  1  0  0  0  0
  2  3  1  0  0  0  0
  2  4  1  0  0  0  0
  2  5  1  0  0  0  0
  5  6  2  0  0  0  0
  5  7  1  0  0  0  0
  7  8  1  0  0  0  0
  7 17  1  0  0  0  0
  8  9  1  0  0  0  0
  8 10  1  0  0  0  0
  8 11  1  0  0  0  0
 11 12  1  0  0  0  0
 11 13  1  0  0  0  0
 11 14  1  0  0  0  0
 14 15  1  0  0  0  0
 14 16  1  0  0  0  0
 14 17  1  0  0  0  0
 17 18  1  0  0  0  0
 17 19  1  0  0  0  0
 19 20  2  0  0  0  0
 19 21  1  0  0  0  0
 21 22  1  0  0  0  0
 21 23  1  0  0  0  0
 23 24  1  0  0  0  0
 23 25  1  0  0  0  0
 23 26  1  0  0  0  0
M  END
$$$$

  -OEChem-11182114133D

 26 26  0     1  0  0  0  0  0999 V2000
   -1.4301   -4.2378   -0.3430 H   0  0  0  0  0  0  0  0  0  0  0  0
   -1.7422   -3.1915   -0.2812 C   0  0  0  0  0  0  0  0  0  0  0  0
   -2.5532   -3.1090    0.4461 H   0  0  0  0  0  0  0  0  0  0  0  0
   -2.1069   -2.8823   -1.2639 H   0  0  0  0  0  0  0  0  0  0  0  0
   -0.5640   -2.3212    0.1420 C   0  0  0  0  0  0  0  0  0  0  0  0
    0.2762   -2.8521    0.8485 O   0  0  0  0  0  0  0  0  0  0  0  0
   -0.4283   -1.0150   -0.3435 N   0  0  0  0  0  0  0  0  0  0  0  0
   -1.6536   -0.2264   -0.1752 C   0  0  0  0  0  0  0  0  0  0  0  0
   -2.4588   -0.7566    0.3444 H   0  0  0  0  0  0  0  0  0  0  0  0
   -2.0271    0.0668   -1.1623 H   0  0  0  0  0  0  0  0  0  0  0  0
   -1.2745    1.0202    0.6354 C   0  0  0  0  0  0  0  0  0  0  0  0
   -1.3125    0.8007    1.7073 H   0  0  0  0  0  0  0  0  0  0  0  0
   -1.9316    1.8696    0.4241 H   0  0  0  0  0  0  0  0  0  0  0  0
    0.1506    1.2702    0.1996 C   0  0  0  0  0  0  0  0  0  0  0  0
    0.7133    1.8385    0.9473 H   0  0  0  0  0  0  0  0  0  0  0  0
    0.1649    1.8322   -0.7405 H   0  0  0  0  0  0  0  0  0  0  0  0
    0.7166   -0.1329   -0.0197 C   0  0  1  0  0  0  0  0  0  0  0  0
    1.2394   -0.0566   -0.9793 H   0  0  0  0  0  0  0  0  0  0  0  0
    1.8800   -0.5728    0.9047 C   0  0  0  0  0  0  0  0  0  0  0  0
    2.9582   -0.8956    0.4196 O   0  0  0  0  0  0  0  0  0  0  0  0
    1.7998   -0.3475    2.2684 N   0  0  0  0  0  0  0  0  0  0  0  0
    0.8637   -0.2272    2.6402 H   0  0  0  0  0  0  0  0  0  0  0  0
    2.8552   -0.7548    3.1871 C   0  0  0  0  0  0  0  0  0  0  0  0
    3.7957   -0.2507    2.9410 H   0  0  0  0  0  0  0  0  0  0  0  0
    2.5836   -0.4925    4.2138 H   0  0  0  0  0  0  0  0  0  0  0  0
    3.0105   -1.8376    3.1337 H   0  0  0  0  0  0  0  0  0  0  0  0
  1  2  1  0  0  0  0
  2  3  1  0  0  0  0
  2  4  1  0  0  0  0
  2  5  1  0  0  0  0
  5  6  2  0  0  0  0
  5  7  1  0  0  0  0
  7  8  1  0  0  0  0
  7 17  1  0  0  0  0
  8  9  1  0  0  0  0
  8 10  1  0  0  0  0
  8 11  1  0  0  0  0
 11 12  1  0  0  0  0
 11 13  1  0  0  0  0
 11 14  1  0  0  0  0
 14 15  1  0  0  0  0
 14 16  1  0  0  0  0
 14 17  1  0  0  0  0
 17 18  1  0  0  0  0
 17 19  1  0  0  0  0
 19 20  2  0  0  0  0
 19 21  1  0  0  0  0
 21 22  1  0  0  0  0
 21 23  1  0  0  0  0
 23 24  1  0  0  0  0
 23 25  1  0  0  0  0
 23 26  1  0  0  0  0
M  END
$$$$

  -OEChem-11182114133D

 26 26  0     1  0  0  0  0  0999 V2000
   -1.4929   -4.2260   -0.3282 H   0  0  0  0  0  0  0  0  0  0  0  0
   -1.7824   -3.1730   -0.2686 C   0  0  0  0  0  0  0  0  0  0  0  0
   -2.5775   -3.0697    0.4732 H   0  0  0  0  0  0  0  0  0  0  0  0
   -2.1597   -2.8641   -1.2465 H   0  0  0  0  0  0  0  0  0  0  0  0
   -0.5788   -2.3237    0.1264 C   0  0  0  0  0  0  0  0  0  0  0  0
    0.2879   -2.8850    0.7752 O   0  0  0  0  0  0  0  0  0  0  0  0
   -0.4286   -1.0149   -0.3478 N   0  0  0  0  0  0  0  0  0  0  0  0
   -1.6504   -0.2152   -0.2012 C   0  0  0  0  0  0  0  0  0  0  0  0
   -2.4721   -0.7388    0.2982 H   0  0  0  0  0  0  0  0  0  0  0  0
   -1.9998    0.0864   -1.1945 H   0  0  0  0  0  0  0  0  0  0  0  0
   -1.2785    1.0246    0.6237 C   0  0  0  0  0  0  0  0  0  0  0  0
   -1.3384    0.8005    1.6937 H   0  0  0  0  0  0  0  0  0  0  0  0
   -1.9247    1.8801    0.4040 H   0  0  0  0  0  0  0  0  0  0  0  0
    0.1562    1.2666    0.2179 C   0  0  0  0  0  0  0  0  0  0  0  0
    0.7088    1.8213    0.9837 H   0  0  0  0  0  0  0  0  0  0  0  0
    0.1964    1.8356   -0.7172 H   0  0  0  0  0  0  0  0  0  0  0  0
    0.7135   -0.1388    0.0033 C   0  0  1  0  0  0  0  0  0  0  0  0
    1.2513   -0.0660   -0.9483 H   0  0  0  0  0  0  0  0  0  0  0  0
    1.8638   -0.5725    0.9455 C   0  0  0  0  0  0  0  0  0  0  0  0
    3.0153   -0.6027    0.5265 O   0  0  0  0  0  0  0  0  0  0  0  0
    1.6446   -0.6380    2.3106 N   0  0  0  0  0  0  0  0  0  0  0  0
    0.6809   -0.8086    2.5800 H   0  0  0  0  0  0  0  0  0  0  0  0
    2.6895   -1.0437    3.2421 C   0  0  0  0  0  0  0  0  0  0  0  0
    3.5427   -0.3597    3.1853 H   0  0  0  0  0  0  0  0  0  0  0  0
    2.3067   -1.0306    4.2670 H   0  0  0  0  0  0  0  0  0  0  0  0
    3.0337   -2.0575    3.0118 H   0  0  0  0  0  0  0  0  0  0  0  0
  1  2  1  0  0  0  0
  2  3  1  0  0  0  0
  2  4  1  0  0  0  0
  2  5  1  0  0  0  0
  5  6  2  0  0  0  0
  5  7  1  0  0  0  0
  7  8  1  0  0  0  0
  7 17  1  0  0  0  0
  8  9  1  0  0  0  0
  8 10  1  0  0  0  0
  8 11  1  0  0  0  0
 11 12  1  0  0  0  0
 11 13  1  0  0  0  0
 11 14  1  0  0  0  0
 14 15  1  0  0  0  0
 14 16  1  0  0  0  0
 14 17  1  0  0  0  0
 17 18  1  0  0  0  0
 17 19  1  0  0  0  0
 19 20  2  0  0  0  0
 19 21  1  0  0  0  0
 21 22  1  0  0  0  0
 21 23  1  0  0  0  0
 23 24  1  0  0  0  0
 23 25  1  0  0  0  0
 23 26  1  0  0  0  0
M  END
$$$$

  -OEChem-11182114133D

 26 26  0     1  0  0  0  0  0999 V2000
   -1.5994   -4.2122   -0.3503 H   0  0  0  0  0  0  0  0  0  0  0  0
   -1.8562   -3.1511   -0.2837 C   0  0  0  0  0  0  0  0  0  0  0  0
   -2.6417   -3.0279    0.4656 H   0  0  0  0  0  0  0  0  0  0  0  0
   -2.2322   -2.8271   -1.2574 H   0  0  0  0  0  0  0  0  0  0  0  0
   -0.6243   -2.3394    0.1045 C   0  0  0  0  0  0  0  0  0  0  0  0
    0.2463   -2.9408    0.7108 O   0  0  0  0  0  0  0  0  0  0  0  0
   -0.4401   -1.0270   -0.3458 N   0  0  0  0  0  0  0  0  0  0  0  0
   -1.6516   -0.2057   -0.2298 C   0  0  0  0  0  0  0  0  0  0  0  0
   -2.4961   -0.7142    0.2462 H   0  0  0  0  0  0  0  0  0  0  0  0
   -1.9680    0.1041   -1.2316 H   0  0  0  0  0  0  0  0  0  0  0  0
   -1.2825    1.0257    0.6082 C   0  0  0  0  0  0  0  0  0  0  0  0
   -1.3738    0.7997    1.6757 H   0  0  0  0  0  0  0  0  0  0  0  0
   -1.9086    1.8924    0.3743 H   0  0  0  0  0  0  0  0  0  0  0  0
    0.1659    1.2455    0.2428 C   0  0  0  0  0  0  0  0  0  0  0  0
    0.7057    1.7872    1.0270 H   0  0  0  0  0  0  0  0  0  0  0  0
    0.2425    1.8177   -0.6881 H   0  0  0  0  0  0  0  0  0  0  0  0
    0.7055   -0.1680    0.0397 C   0  0  1  0  0  0  0  0  0  0  0  0
    1.2623   -0.1044   -0.9016 H   0  0  0  0  0  0  0  0  0  0  0  0
    1.8448   -0.5966    0.9989 C   0  0  0  0  0  0  0  0  0  0  0  0
    3.0033   -0.3261    0.7034 O   0  0  0  0  0  0  0  0  0  0  0  0
    1.5609   -0.9661    2.3019 N   0  0  0  0  0  0  0  0  0  0  0  0
    0.6648   -1.4362    2.4046 H   0  0  0  0  0  0  0  0  0  0  0  0
    2.6110   -1.3263    3.2462 C   0  0  0  0  0  0  0  0  0  0  0  0
    3.3019   -0.4894    3.3922 H   0  0  0  0  0  0  0  0  0  0  0  0
    2.1733   -1.5824    4.2157 H   0  0  0  0  0  0  0  0  0  0  0  0
    3.1753   -2.1901    2.8792 H   0  0  0  0  0  0  0  0  0  0  0  0
  1  2  1  0  0  0  0
  2  3  1  0  0  0  0
  2  4  1  0  0  0  0
  2  5  1  0  0  0  0
  5  6  2  0  0  0  0
  5  7  1  0  0  0  0
  7  8  1  0  0  0  0
  7 17  1  0  0  0  0
  8  9  1  0  0  0  0
  8 10  1  0  0  0  0
  8 11  1  0  0  0  0
 11 12  1  0  0  0  0
 11 13  1  0  0  0  0
 11 14  1  0  0  0  0
 14 15  1  0  0  0  0
 14 16  1  0  0  0  0
 14 17  1  0  0  0  0
 17 18  1  0  0  0  0
 17 19  1  0  0  0  0
 19 20  2  0  0  0  0
 19 21  1  0  0  0  0
 21 22  1  0  0  0  0
 21 23  1  0  0  0  0
 23 24  1  0  0  0  0
 23 25  1  0  0  0  0
 23 26  1  0  0  0  0
M  END
$$$$

  -OEChem-11182114133D

 26 26  0     1  0  0  0  0  0999 V2000
   -1.7271   -4.1933   -0.3826 H   0  0  0  0  0  0  0  0  0  0  0  0
   -1.9430   -3.1239   -0.3025 C   0  0  0  0  0  0  0  0  0  0  0  0
   -2.7080   -2.9797    0.4641 H   0  0  0  0  0  0  0  0  0  0  0  0
   -2.3272   -2.7790   -1.2659 H   0  0  0  0  0  0  0  0  0  0  0  0
   -0.6744   -2.3603    0.0670 C   0  0  0  0  0  0  0  0  0  0  0  0
    0.2086   -3.0196    0.5894 O   0  0  0  0  0  0  0  0  0  0  0  0
   -0.4553   -1.0401   -0.3433 N   0  0  0  0  0  0  0  0  0  0  0  0
   -1.6562   -0.1971   -0.2645 C   0  0  0  0  0  0  0  0  0  0  0  0
   -2.5249   -0.6896    0.1829 H   0  0  0  0  0  0  0  0  0  0  0  0
   -1.9345    0.1210   -1.2751 H   0  0  0  0  0  0  0  0  0  0  0  0
   -1.2968    1.0249    0.5894 C   0  0  0  0  0  0  0  0  0  0  0  0
   -1.4296    0.7973    1.6523 H   0  0  0  0  0  0  0  0  0  0  0  0
   -1.8999    1.9025    0.3362 H   0  0  0  0  0  0  0  0  0  0  0  0
    0.1661    1.2217    0.2765 C   0  0  0  0  0  0  0  0  0  0  0  0
    0.6848    1.7524    1.0822 H   0  0  0  0  0  0  0  0  0  0  0  0
    0.2854    1.7962   -0.6484 H   0  0  0  0  0  0  0  0  0  0  0  0
    0.6914   -0.1997    0.0871 C   0  0  1  0  0  0  0  0  0  0  0  0
    1.2714   -0.1432   -0.8403 H   0  0  0  0  0  0  0  0  0  0  0  0
    1.8238   -0.6211    1.0613 C   0  0  0  0  0  0  0  0  0  0  0  0
    2.9299   -0.1134    0.9142 O   0  0  0  0  0  0  0  0  0  0  0  0
    1.5630   -1.2871    2.2451 N   0  0  0  0  0  0  0  0  0  0  0  0
    0.7765   -1.9325    2.1754 H   0  0  0  0  0  0  0  0  0  0  0  0
    2.6197   -1.6334    3.1876 C   0  0  0  0  0  0  0  0  0  0  0  0
    3.1222   -0.7307    3.5505 H   0  0  0  0  0  0  0  0  0  0  0  0
    2.1981   -2.1610    4.0484 H   0  0  0  0  0  0  0  0  0  0  0  0
    3.3611   -2.2828    2.7102 H   0  0  0  0  0  0  0  0  0  0  0  0
  1  2  1  0  0  0  0
  2  3  1  0  0  0  0
  2  4  1  0  0  0  0
  2  5  1  0  0  0  0
  5  6  2  0  0  0  0
  5  7  1  0  0  0  0
  7  8  1  0  0  0  0
  7 17  1  0  0  0  0
  8  9  1  0  0  0  0
  8 10  1  0  0  0  0
  8 11  1  0  0  0  0
 11 12  1  0  0  0  0
 11 13  1  0  0  0  0
 11 14  1  0  0  0  0
 14 15  1  0  0  0  0
 14 16  1  0  0  0  0
 14 17  1  0  0  0  0
 17 18  1  0  0  0  0
 17 19  1  0  0  0  0
 19 20  2  0  0  0  0
 19 21  1  0  0  0  0
 21 22  1  0  0  0  0
 21 23  1  0  0  0  0
 23 24  1  0  0  0  0
 23 25  1  0  0  0  0
 23 26  1  0  0  0  0
M  END
$$$$

  -OEChem-11182114133D

 26 26  0     1  0  0  0  0  0999 V2000
   -1.8534   -4.1767   -0.3857 H   0  0  0  0  0  0  0  0  0  0  0  0
   -2.0227   -3.0987   -0.3100 C   0  0  0  0  0  0  0  0  0  0  0  0
   -2.7607   -2.9184    0.4751 H   0  0  0  0  0  0  0  0  0  0  0  0
   -2.4177   -2.7471   -1.2664 H   0  0  0  0  0  0  0  0  0  0  0  0
   -0.7149   -2.3822    0.0188 C   0  0  0  0  0  0  0  0  0  0  0  0
    0.1850   -3.0976    0.4257 O   0  0  0  0  0  0  0  0  0  0  0  0
   -0.4688   -1.0525   -0.3452 N   0  0  0  0  0  0  0  0  0  0  0  0
   -1.6602   -0.1917   -0.3008 C   0  0  0  0  0  0  0  0  0  0  0  0
   -2.5522   -0.6706    0.1125 H   0  0  0  0  0  0  0  0  0  0  0  0
   -1.8975    0.1376   -1.3182 H   0  0  0  0  0  0  0  0  0  0  0  0
   -1.3177    1.0185    0.5738 C   0  0  0  0  0  0  0  0  0  0  0  0
   -1.4929    0.7864    1.6297 H   0  0  0  0  0  0  0  0  0  0  0  0
   -1.8994    1.9056    0.3044 H   0  0  0  0  0  0  0  0  0  0  0  0
    0.1569    1.1977    0.3160 C   0  0  0  0  0  0  0  0  0  0  0  0
    0.6493    1.7186    1.1443 H   0  0  0  0  0  0  0  0  0  0  0  0
    0.3173    1.7777   -0.5991 H   0  0  0  0  0  0  0  0  0  0  0  0
    0.6744   -0.2296    0.1345 C   0  0  1  0  0  0  0  0  0  0  0  0
    1.2780   -0.1733   -0.7774 H   0  0  0  0  0  0  0  0  0  0  0  0
    1.7994   -0.6479    1.1238 C   0  0  0  0  0  0  0  0  0  0  0  0
    2.8254    0.0233    1.1306 O   0  0  0  0  0  0  0  0  0  0  0  0
    1.6312   -1.5711    2.1391 N   0  0  0  0  0  0  0  0  0  0  0  0
    0.9244   -2.2800    1.9394 H   0  0  0  0  0  0  0  0  0  0  0  0
    2.7067   -1.9391    3.0516 C   0  0  0  0  0  0  0  0  0  0  0  0
    3.0362   -1.0683    3.6279 H   0  0  0  0  0  0  0  0  0  0  0  0
    2.3598   -2.7044    3.7524 H   0  0  0  0  0  0  0  0  0  0  0  0
    3.5613   -2.3387    2.4958 H   0  0  0  0  0  0  0  0  0  0  0  0
  1  2  1  0  0  0  0
  2  3  1  0  0  0  0
  2  4  1  0  0  0  0
  2  5  1  0  0  0  0
  5  6  2  0  0  0  0
  5  7  1  0  0  0  0
  7  8  1  0  0  0  0
  7 17  1  0  0  0  0
  8  9  1  0  0  0  0
  8 10  1  0  0  0  0
  8 11  1  0  0  0  0
 11 12  1  0  0  0  0
 11 13  1  0  0  0  0
 11 14  1  0  0  0  0
 14 15  1  0  0  0  0
 14 16  1  0  0  0  0
 14 17  1  0  0  0  0
 17 18  1  0  0  0  0
 17 19  1  0  0  0  0
 19 20  2  0  0  0  0
 19 21  1  0  0  0  0
 21 22  1  0  0  0  0
 21 23  1  0  0  0  0
 23 24  1  0  0  0  0
 23 25  1  0  0  0  0
 23 26  1  0  0  0  0
M  END
$$$$

  -OEChem-11182114133D

 26 26  0     1  0  0  0  0  0999 V2000
   -1.9533   -4.1606   -0.3869 H   0  0  0  0  0  0  0  0  0  0  0  0
   -2.0854   -3.0778   -0.3032 C   0  0  0  0  0  0  0  0  0  0  0  0
   -2.7747   -2.8771    0.5205 H   0  0  0  0  0  0  0  0  0  0  0  0
   -2.5198   -2.7143   -1.2378 H   0  0  0  0  0  0  0  0  0  0  0  0
   -0.7410   -2.4007   -0.0431 C   0  0  0  0  0  0  0  0  0  0  0  0
    0.1721   -3.1592    0.2360 O   0  0  0  0  0  0  0  0  0  0  0  0
   -0.4774   -1.0615   -0.3594 N   0  0  0  0  0  0  0  0  0  0  0  0
   -1.6606   -0.1870   -0.3306 C   0  0  0  0  0  0  0  0  0  0  0  0
   -2.5705   -0.6579    0.0502 H   0  0  0  0  0  0  0  0  0  0  0  0
   -1.8665    0.1615   -1.3484 H   0  0  0  0  0  0  0  0  0  0  0  0
   -1.3317    1.0040    0.5716 C   0  0  0  0  0  0  0  0  0  0  0  0
   -1.5379    0.7565    1.6181 H   0  0  0  0  0  0  0  0  0  0  0  0
   -1.8973    1.9010    0.3007 H   0  0  0  0  0  0  0  0  0  0  0  0
    0.1499    1.1718    0.3578 C   0  0  0  0  0  0  0  0  0  0  0  0
    0.6187    1.6789    1.2079 H   0  0  0  0  0  0  0  0  0  0  0  0
    0.3414    1.7646   -0.5431 H   0  0  0  0  0  0  0  0  0  0  0  0
    0.6629   -0.2587    0.1669 C   0  0  1  0  0  0  0  0  0  0  0  0
    1.2860   -0.1917   -0.7312 H   0  0  0  0  0  0  0  0  0  0  0  0
    1.7795   -0.6914    1.1653 C   0  0  0  0  0  0  0  0  0  0  0  0
    2.7098    0.0881    1.3397 O   0  0  0  0  0  0  0  0  0  0  0  0
    1.7459   -1.8158    1.9680 N   0  0  0  0  0  0  0  0  0  0  0  0
    1.1103   -2.5499    1.6527 H   0  0  0  0  0  0  0  0  0  0  0  0
    2.8377   -2.1996    2.8544 C   0  0  0  0  0  0  0  0  0  0  0  0
    3.0233   -1.4165    3.5968 H   0  0  0  0  0  0  0  0  0  0  0  0
    2.5842   -3.1224    3.3847 H   0  0  0  0  0  0  0  0  0  0  0  0
    3.7554   -2.3688    2.2815 H   0  0  0  0  0  0  0  0  0  0  0  0
  1  2  1  0  0  0  0
  2  3  1  0  0  0  0
  2  4  1  0  0  0  0
  2  5  1  0  0  0  0
  5  6  2  0  0  0  0
  5  7  1  0  0  0  0
  7  8  1  0  0  0  0
  7 17  1  0  0  0  0
  8  9  1  0  0  0  0
  8 10  1  0  0  0  0
  8 11  1  0  0  0  0
 11 12  1  0  0  0  0
 11 13  1  0  0  0  0
 11 14  1  0  0  0  0
 14 15  1  0  0  0  0
 14 16  1  0  0  0  0
 14 17  1  0  0  0  0
 17 18  1  0  0  0  0
 17 19  1  0  0  0  0
 19 20  2  0  0  0  0
 19 21  1  0  0  0  0
 21 22  1  0  0  0  0
 21 23  1  0  0  0  0
 23 24  1  0  0  0  0
 23 25  1  0  0  0  0
 23 26  1  0  0  0  0
M  END
$$$$

  -OEChem-11182114133D

 26 26  0     1  0  0  0  0  0999 V2000
   -2.0349   -4.1487   -0.3698 H   0  0  0  0  0  0  0  0  0  0  0  0
   -2.1353   -3.0618   -0.2952 C   0  0  0  0  0  0  0  0  0  0  0  0
   -2.7896   -2.8349    0.5500 H   0  0  0  0  0  0  0  0  0  0  0  0
   -2.5931   -2.6977   -1.2184 H   0  0  0  0  0  0  0  0  0  0  0  0
   -0.7653   -2.4163   -0.0910 C   0  0  0  0  0  0  0  0  0  0  0  0
    0.1479   -3.2034    0.0913 O   0  0  0  0  0  0  0  0  0  0  0  0
   -0.4863   -1.0707   -0.3678 N   0  0  0  0  0  0  0  0  0  0  0  0
   -1.6593   -0.1819   -0.3422 C   0  0  0  0  0  0  0  0  0  0  0  0
   -2.5823   -0.6440    0.0157 H   0  0  0  0  0  0  0  0  0  0  0  0
   -1.8433    0.1846   -1.3578 H   0  0  0  0  0  0  0  0  0  0  0  0
   -1.3322    0.9916    0.5815 C   0  0  0  0  0  0  0  0  0  0  0  0
   -1.5565    0.7310    1.6212 H   0  0  0  0  0  0  0  0  0  0  0  0
   -1.8839    1.8989    0.3160 H   0  0  0  0  0  0  0  0  0  0  0  0
    0.1532    1.1451    0.3922 C   0  0  0  0  0  0  0  0  0  0  0  0
    0.6083    1.6404    1.2562 H   0  0  0  0  0  0  0  0  0  0  0  0
    0.3644    1.7480   -0.4974 H   0  0  0  0  0  0  0  0  0  0  0  0
    0.6578   -0.2897    0.1877 C   0  0  1  0  0  0  0  0  0  0  0  0
    1.2900   -0.2134   -0.7029 H   0  0  0  0  0  0  0  0  0  0  0  0
    1.7714   -0.7480    1.1832 C   0  0  0  0  0  0  0  0  0  0  0  0
    2.5979    0.0888    1.5302 O   0  0  0  0  0  0  0  0  0  0  0  0
    1.8990   -2.0026    1.7471 N   0  0  0  0  0  0  0  0  0  0  0  0
    1.3229   -2.7368    1.3336 H   0  0  0  0  0  0  0  0  0  0  0  0
    3.0077   -2.4004    2.6059 C   0  0  0  0  0  0  0  0  0  0  0  0
    3.0503   -1.7656    3.4969 H   0  0  0  0  0  0  0  0  0  0  0  0
    2.8789   -3.4380    2.9286 H   0  0  0  0  0  0  0  0  0  0  0  0
    3.9577   -2.3194    2.0677 H   0  0  0  0  0  0  0  0  0  0  0  0
  1  2  1  0  0  0  0
  2  3  1  0  0  0  0
  2  4  1  0  0  0  0
  2  5  1  0  0  0  0
  5  6  2  0  0  0  0
  5  7  1  0  0  0  0
  7  8  1  0  0  0  0
  7 17  1  0  0  0  0
  8  9  1  0  0  0  0
  8 10  1  0  0  0  0
  8 11  1  0  0  0  0
 11 12  1  0  0  0  0
 11 13  1  0  0  0  0
 11 14  1  0  0  0  0
 14 15  1  0  0  0  0
 14 16  1  0  0  0  0
 14 17  1  0  0  0  0
 17 18  1  0  0  0  0
 17 19  1  0  0  0  0
 19 20  2  0  0  0  0
 19 21  1  0  0  0  0
 21 22  1  0  0  0  0
 21 23  1  0  0  0  0
 23 24  1  0  0  0  0
 23 25  1  0  0  0  0
 23 26  1  0  0  0  0
M  END
$$$$

  -OEChem-11182114133D

 26 26  0     1  0  0  0  0  0999 V2000
   -2.0822   -4.1421   -0.3907 H   0  0  0  0  0  0  0  0  0  0  0  0
   -2.1675   -3.0555   -0.2963 C   0  0  0  0  0  0  0  0  0  0  0  0
   -2.8032   -2.8352    0.5647 H   0  0  0  0  0  0  0  0  0  0  0  0
   -2.6378   -2.6709   -1.2048 H   0  0  0  0  0  0  0  0  0  0  0  0
   -0.7859   -2.4302   -0.1064 C   0  0  0  0  0  0  0  0  0  0  0  0
    0.1180   -3.2343    0.0405 O   0  0  0  0  0  0  0  0  0  0  0  0
   -0.4975   -1.0813   -0.3598 N   0  0  0  0  0  0  0  0  0  0  0  0
   -1.6633   -0.1834   -0.3137 C   0  0  0  0  0  0  0  0  0  0  0  0
   -2.5833   -0.6398    0.0593 H   0  0  0  0  0  0  0  0  0  0  0  0
   -1.8619    0.1876   -1.3250 H   0  0  0  0  0  0  0  0  0  0  0  0
   -1.3134    0.9827    0.6086 C   0  0  0  0  0  0  0  0  0  0  0  0
   -1.5282    0.7210    1.6501 H   0  0  0  0  0  0  0  0  0  0  0  0
   -1.8596    1.8960    0.3522 H   0  0  0  0  0  0  0  0  0  0  0  0
    0.1709    1.1236    0.4030 C   0  0  0  0  0  0  0  0  0  0  0  0
    0.6353    1.6185    1.2619 H   0  0  0  0  0  0  0  0  0  0  0  0
    0.3760    1.7266   -0.4879 H   0  0  0  0  0  0  0  0  0  0  0  0
    0.6633   -0.3163    0.1869 C   0  0  1  0  0  0  0  0  0  0  0  0
    1.2814   -0.2369   -0.7128 H   0  0  0  0  0  0  0  0  0  0  0  0
    1.7956   -0.8016    1.1522 C   0  0  0  0  0  0  0  0  0  0  0  0
    2.5043    0.0481    1.6805 O   0  0  0  0  0  0  0  0  0  0  0  0
    2.1011   -2.1126    1.4598 N   0  0  0  0  0  0  0  0  0  0  0  0
    1.5575   -2.8319    0.9804 H   0  0  0  0  0  0  0  0  0  0  0  0
    3.1948   -2.5267    2.3300 C   0  0  0  0  0  0  0  0  0  0  0  0
    3.0552   -2.1252    3.3390 H   0  0  0  0  0  0  0  0  0  0  0  0
    3.2298   -3.6184    2.3945 H   0  0  0  0  0  0  0  0  0  0  0  0
    4.1535   -2.1727    1.9368 H   0  0  0  0  0  0  0  0  0  0  0  0
  1  2  1  0  0  0  0
  2  3  1  0  0  0  0
  2  4  1  0  0  0  0
  2  5  1  0  0  0  0
  5  6  2  0  0  0  0
  5  7  1  0  0  0  0
  7  8  1  0  0  0  0
  7 17  1  0  0  0  0
  8  9  1  0  0  0  0
  8 10  1  0  0  0  0
  8 11  1  0  0  0  0
 11 12  1  0  0  0  0
 11 13  1  0  0  0  0
 11 14  1  0  0  0  0
 14 15  1  0  0  0  0
 14 16  1  0  0  0  0
 14 17  1  0  0  0  0
 17 18  1  0  0  0  0
 17 19  1  0  0  0  0
 19 20  2  0  0  0  0
 19 21  1  0  0  0  0
 21 22  1  0  0  0  0
 21 23  1  0  0  0  0
 23 24  1  0  0  0  0
 23 25  1  0  0  0  0
 23 26  1  0  0  0  0
M  END
$$$$

  -OEChem-11182114133D

 26 26  0     1  0  0  0  0  0999 V2000
   -2.0648   -4.1488   -0.4900 H   0  0  0  0  0  0  0  0  0  0  0  0
   -2.1672   -3.0694   -0.3436 C   0  0  0  0  0  0  0  0  0  0  0  0
   -2.8503   -2.8981    0.4918 H   0  0  0  0  0  0  0  0  0  0  0  0
   -2.5928   -2.6408   -1.2544 H   0  0  0  0  0  0  0  0  0  0  0  0
   -0.8043   -2.4446   -0.0478 C   0  0  0  0  0  0  0  0  0  0  0  0
    0.0742   -3.2453    0.2171 O   0  0  0  0  0  0  0  0  0  0  0  0
   -0.5097   -1.1002   -0.3178 N   0  0  0  0  0  0  0  0  0  0  0  0
   -1.6723   -0.2027   -0.2310 C   0  0  0  0  0  0  0  0  0  0  0  0
   -2.5701   -0.6590    0.1948 H   0  0  0  0  0  0  0  0  0  0  0  0
   -1.9210    0.1536   -1.2364 H   0  0  0  0  0  0  0  0  0  0  0  0
   -1.2788    0.9752    0.6583 C   0  0  0  0  0  0  0  0  0  0  0  0
   -1.4463    0.7279    1.7120 H   0  0  0  0  0  0  0  0  0  0  0  0
   -1.8351    1.8858    0.4147 H   0  0  0  0  0  0  0  0  0  0  0  0
    0.1953    1.1110    0.3849 C   0  0  0  0  0  0  0  0  0  0  0  0
    0.6967    1.6216    1.2127 H   0  0  0  0  0  0  0  0  0  0  0  0
    0.3591    1.7001   -0.5236 H   0  0  0  0  0  0  0  0  0  0  0  0
    0.6768   -0.3334    0.1665 C   0  0  1  0  0  0  0  0  0  0  0  0
    1.2549   -0.2628   -0.7600 H   0  0  0  0  0  0  0  0  0  0  0  0
    1.8468   -0.8256    1.0816 C   0  0  0  0  0  0  0  0  0  0  0  0
    2.4498   -0.0012    1.7598 O   0  0  0  0  0  0  0  0  0  0  0  0
    2.3236   -2.1204    1.1396 N   0  0  0  0  0  0  0  0  0  0  0  0
    1.7502   -2.8286    0.6774 H   0  0  0  0  0  0  0  0  0  0  0  0
    3.3909   -2.5634    2.0280 C   0  0  0  0  0  0  0  0  0  0  0  0
    3.1187   -2.3864    3.0736 H   0  0  0  0  0  0  0  0  0  0  0  0
    3.5710   -3.6341    1.8935 H   0  0  0  0  0  0  0  0  0  0  0  0
    4.3200   -2.0273    1.8083 H   0  0  0  0  0  0  0  0  0  0  0  0
  1  2  1  0  0  0  0
  2  3  1  0  0  0  0
  2  4  1  0  0  0  0
  2  5  1  0  0  0  0
  5  6  2  0  0  0  0
  5  7  1  0  0  0  0
  7  8  1  0  0  0  0
  7 17  1  0  0  0  0
  8  9  1  0  0  0  0
  8 10  1  0  0  0  0
  8 11  1  0  0  0  0
 11 12  1  0  0  0  0
 11 13  1  0  0  0  0
 11 14  1  0  0  0  0
 14 15  1  0  0  0  0
 14 16  1  0  0  0  0
 14 17  1  0  0  0  0
 17 18  1  0  0  0  0
 17 19  1  0  0  0  0
 19 20  2  0  0  0  0
 19 21  1  0  0  0  0
 21 22  1  0  0  0  0
 21 23  1  0  0  0  0
 23 24  1  0  0  0  0
 23 25  1  0  0  0  0
 23 26  1  0  0  0  0
M  END
$$$$

  -OEChem-11182114133D

 26 26  0     1  0  0  0  0  0999 V2000
   -1.9805   -4.1740   -0.4197 H   0  0  0  0  0  0  0  0  0  0  0  0
   -2.0996   -3.0944   -0.2890 C   0  0  0  0  0  0  0  0  0  0  0  0
   -2.7609   -2.9215    0.5633 H   0  0  0  0  0  0  0  0  0  0  0  0
   -2.5598   -2.6902   -1.1941 H   0  0  0  0  0  0  0  0  0  0  0  0
   -0.7416   -2.4384   -0.0449 C   0  0  0  0  0  0  0  0  0  0  0  0
    0.1664   -3.2149    0.1951 O   0  0  0  0  0  0  0  0  0  0  0  0
   -0.4836   -1.0906   -0.3337 N   0  0  0  0  0  0  0  0  0  0  0  0
   -1.6565   -0.2110   -0.2130 C   0  0  0  0  0  0  0  0  0  0  0  0
   -2.5403   -0.6850    0.2225 H   0  0  0  0  0  0  0  0  0  0  0  0
   -1.9288    0.1549   -1.2088 H   0  0  0  0  0  0  0  0  0  0  0  0
   -1.2599    0.9614    0.6843 C   0  0  0  0  0  0  0  0  0  0  0  0
   -1.4005    0.6975    1.7378 H   0  0  0  0  0  0  0  0  0  0  0  0
   -1.8338    1.8673    0.4660 H   0  0  0  0  0  0  0  0  0  0  0  0
    0.2067    1.1222    0.3819 C   0  0  0  0  0  0  0  0  0  0  0  0
    0.7234    1.6301    1.2020 H   0  0  0  0  0  0  0  0  0  0  0  0
    0.3409    1.7231   -0.5237 H   0  0  0  0  0  0  0  0  0  0  0  0
    0.6990   -0.3127    0.1351 C   0  0  1  0  0  0  0  0  0  0  0  0
    1.2691   -0.2201   -0.7946 H   0  0  0  0  0  0  0  0  0  0  0  0
    1.8628   -0.8316    1.0382 C   0  0  0  0  0  0  0  0  0  0  0  0
    2.3199   -0.0998    1.9091 O   0  0  0  0  0  0  0  0  0  0  0  0
    2.4940   -2.0459    0.8473 N   0  0  0  0  0  0  0  0  0  0  0  0
    1.9495   -2.7268    0.3134 H   0  0  0  0  0  0  0  0  0  0  0  0
    3.5355   -2.5549    1.7312 C   0  0  0  0  0  0  0  0  0  0  0  0
    3.1464   -2.6857    2.7462 H   0  0  0  0  0  0  0  0  0  0  0  0
    3.8948   -3.5228    1.3689 H   0  0  0  0  0  0  0  0  0  0  0  0
    4.3842   -1.8637    1.7641 H   0  0  0  0  0  0  0  0  0  0  0  0
  1  2  1  0  0  0  0
  2  3  1  0  0  0  0
  2  4  1  0  0  0  0
  2  5  1  0  0  0  0
  5  6  2  0  0  0  0
  5  7  1  0  0  0  0
  7  8  1  0  0  0  0
  7 17  1  0  0  0  0
  8  9  1  0  0  0  0
  8 10  1  0  0  0  0
  8 11  1  0  0  0  0
 11 12  1  0  0  0  0
 11 13  1  0  0  0  0
 11 14  1  0  0  0  0
 14 15  1  0  0  0  0
 14 16  1  0  0  0  0
 14 17  1  0  0  0  0
 17 18  1  0  0  0  0
 17 19  1  0  0  0  0
 19 20  2  0  0  0  0
 19 21  1  0  0  0  0
 21 22  1  0  0  0  0
 21 23  1  0  0  0  0
 23 24  1  0  0  0  0
 23 25  1  0  0  0  0
 23 26  1  0  0  0  0
M  END
$$$$

  -OEChem-11182114133D

 26 26  0     1  0  0  0  0  0999 V2000
   -1.8666   -4.1967   -0.2352 H   0  0  0  0  0  0  0  0  0  0  0  0
   -2.0000   -3.1135   -0.1602 C   0  0  0  0  0  0  0  0  0  0  0  0
   -2.5737   -2.9005    0.7450 H   0  0  0  0  0  0  0  0  0  0  0  0
   -2.5612   -2.7770   -1.0353 H   0  0  0  0  0  0  0  0  0  0  0  0
   -0.6422   -2.4164   -0.0992 C   0  0  0  0  0  0  0  0  0  0  0  0
    0.3184   -3.1635   -0.0091 O   0  0  0  0  0  0  0  0  0  0  0  0
   -0.4437   -1.0613   -0.4027 N   0  0  0  0  0  0  0  0  0  0  0  0
   -1.6314   -0.2071   -0.2455 C   0  0  0  0  0  0  0  0  0  0  0  0
   -2.5111   -0.7080    0.1655 H   0  0  0  0  0  0  0  0  0  0  0  0
   -1.9072    0.1934   -1.2270 H   0  0  0  0  0  0  0  0  0  0  0  0
   -1.2520    0.9382    0.6960 C   0  0  0  0  0  0  0  0  0  0  0  0
   -1.3795    0.6298    1.7391 H   0  0  0  0  0  0  0  0  0  0  0  0
   -1.8457    1.8399    0.5173 H   0  0  0  0  0  0  0  0  0  0  0  0
    0.2097    1.1396    0.3909 C   0  0  0  0  0  0  0  0  0  0  0  0
    0.7291    1.6210    1.2256 H   0  0  0  0  0  0  0  0  0  0  0  0
    0.3257    1.7772   -0.4918 H   0  0  0  0  0  0  0  0  0  0  0  0
    0.7209   -0.2752    0.0869 C   0  0  1  0  0  0  0  0  0  0  0  0
    1.3033   -0.1378   -0.8294 H   0  0  0  0  0  0  0  0  0  0  0  0
    1.8490   -0.8412    1.0000 C   0  0  0  0  0  0  0  0  0  0  0  0
    2.1239   -0.2711    2.0498 O   0  0  0  0  0  0  0  0  0  0  0  0
    2.6456   -1.9016    0.6094 N   0  0  0  0  0  0  0  0  0  0  0  0
    2.1894   -2.5284   -0.0566 H   0  0  0  0  0  0  0  0  0  0  0  0
    3.6618   -2.4807    1.4795 C   0  0  0  0  0  0  0  0  0  0  0  0
    3.2016   -2.8939    2.3830 H   0  0  0  0  0  0  0  0  0  0  0  0
    4.1886   -3.2855    0.9578 H   0  0  0  0  0  0  0  0  0  0  0  0
    4.3963   -1.7229    1.7718 H   0  0  0  0  0  0  0  0  0  0  0  0
  1  2  1  0  0  0  0
  2  3  1  0  0  0  0
  2  4  1  0  0  0  0
  2  5  1  0  0  0  0
  5  6  2  0  0  0  0
  5  7  1  0  0  0  0
  7  8  1  0  0  0  0
  7 17  1  0  0  0  0
  8  9  1  0  0  0  0
  8 10  1  0  0  0  0
  8 11  1  0  0  0  0
 11 12  1  0  0  0  0
 11 13  1  0  0  0  0
 11 14  1  0  0  0  0
 14 15  1  0  0  0  0
 14 16  1  0  0  0  0
 14 17  1  0  0  0  0
 17 18  1  0  0  0  0
 17 19  1  0  0  0  0
 19 20  2  0  0  0  0
 19 21  1  0  0  0  0
 21 22  1  0  0  0  0
 21 23  1  0  0  0  0
 23 24  1  0  0  0  0
 23 25  1  0  0  0  0
 23 26  1  0  0  0  0
M  END
$$$$

  -OEChem-11182114133D

 26 26  0     1  0  0  0  0  0999 V2000
   -1.7419   -4.2069   -0.1188 H   0  0  0  0  0  0  0  0  0  0  0  0
   -1.9025   -3.1252   -0.0887 C   0  0  0  0  0  0  0  0  0  0  0  0
   -2.4280   -2.8821    0.8380 H   0  0  0  0  0  0  0  0  0  0  0  0
   -2.5229   -2.8465   -0.9441 H   0  0  0  0  0  0  0  0  0  0  0  0
   -0.5644   -2.3917   -0.1430 C   0  0  0  0  0  0  0  0  0  0  0  0
    0.4262   -3.1072   -0.1369 O   0  0  0  0  0  0  0  0  0  0  0  0
   -0.4152   -1.0343   -0.4635 N   0  0  0  0  0  0  0  0  0  0  0  0
   -1.6151   -0.2046   -0.2714 C   0  0  0  0  0  0  0  0  0  0  0  0
   -2.4901   -0.7314    0.1158 H   0  0  0  0  0  0  0  0  0  0  0  0
   -1.8961    0.2297   -1.2368 H   0  0  0  0  0  0  0  0  0  0  0  0
   -1.2489    0.9122    0.7113 C   0  0  0  0  0  0  0  0  0  0  0  0
   -1.3637    0.5628    1.7431 H   0  0  0  0  0  0  0  0  0  0  0  0
   -1.8591    1.8096    0.5703 H   0  0  0  0  0  0  0  0  0  0  0  0
    0.2074    1.1490    0.4024 C   0  0  0  0  0  0  0  0  0  0  0  0
    0.7320    1.6010    1.2506 H   0  0  0  0  0  0  0  0  0  0  0  0
    0.3060    1.8208   -0.4568 H   0  0  0  0  0  0  0  0  0  0  0  0
    0.7344   -0.2442    0.0440 C   0  0  1  0  0  0  0  0  0  0  0  0
    1.3263   -0.0671   -0.8593 H   0  0  0  0  0  0  0  0  0  0  0  0
    1.8264   -0.8539    0.9659 C   0  0  0  0  0  0  0  0  0  0  0  0
    1.9227   -0.4758    2.1282 O   0  0  0  0  0  0  0  0  0  0  0  0
    2.7925   -1.7022    0.4555 N   0  0  0  0  0  0  0  0  0  0  0  0
    2.4756   -2.2360   -0.3536 H   0  0  0  0  0  0  0  0  0  0  0  0
    3.8048   -2.3207    1.3022 C   0  0  0  0  0  0  0  0  0  0  0  0
    3.3339   -2.9519    2.0631 H   0  0  0  0  0  0  0  0  0  0  0  0
    4.4714   -2.9431    0.6977 H   0  0  0  0  0  0  0  0  0  0  0  0
    4.4088   -1.5561    1.8019 H   0  0  0  0  0  0  0  0  0  0  0  0
  1  2  1  0  0  0  0
  2  3  1  0  0  0  0
  2  4  1  0  0  0  0
  2  5  1  0  0  0  0
  5  6  2  0  0  0  0
  5  7  1  0  0  0  0
  7  8  1  0  0  0  0
  7 17  1  0  0  0  0
  8  9  1  0  0  0  0
  8 10  1  0  0  0  0
  8 11  1  0  0  0  0
 11 12  1  0  0  0  0
 11 13  1  0  0  0  0
 11 14  1  0  0  0  0
 14 15  1  0  0  0  0
 14 16  1  0  0  0  0
 14 17  1  0  0  0  0
 17 18  1  0  0  0  0
 17 19  1  0  0  0  0
 19 20  2  0  0  0  0
 19 21  1  0  0  0  0
 21 22  1  0  0  0  0
 21 23  1  0  0  0  0
 23 24  1  0  0  0  0
 23 25  1  0  0  0  0
 23 26  1  0  0  0  0
M  END
$$$$

  -OEChem-11182114133D

 26 26  0     1  0  0  0  0  0999 V2000
   -1.6546   -4.2136   -0.0638 H   0  0  0  0  0  0  0  0  0  0  0  0
   -1.8376   -3.1351   -0.0536 C   0  0  0  0  0  0  0  0  0  0  0  0
   -2.3388   -2.8814    0.8837 H   0  0  0  0  0  0  0  0  0  0  0  0
   -2.4899   -2.8894   -0.8953 H   0  0  0  0  0  0  0  0  0  0  0  0
   -0.5177   -2.3759   -0.1675 C   0  0  0  0  0  0  0  0  0  0  0  0
    0.4885   -3.0701   -0.2013 O   0  0  0  0  0  0  0  0  0  0  0  0
   -0.4034   -1.0184   -0.5040 N   0  0  0  0  0  0  0  0  0  0  0  0
   -1.6092   -0.2073   -0.2758 C   0  0  0  0  0  0  0  0  0  0  0  0
   -2.4751   -0.7523    0.1061 H   0  0  0  0  0  0  0  0  0  0  0  0
   -1.9058    0.2469   -1.2271 H   0  0  0  0  0  0  0  0  0  0  0  0
   -1.2410    0.8914    0.7284 C   0  0  0  0  0  0  0  0  0  0  0  0
   -1.3332    0.5158    1.7534 H   0  0  0  0  0  0  0  0  0  0  0  0
   -1.8646    1.7842    0.6194 H   0  0  0  0  0  0  0  0  0  0  0  0
    0.2070    1.1540    0.3997 C   0  0  0  0  0  0  0  0  0  0  0  0
    0.7442    1.5851    1.2513 H   0  0  0  0  0  0  0  0  0  0  0  0
    0.2836    1.8485   -0.4435 H   0  0  0  0  0  0  0  0  0  0  0  0
    0.7407   -0.2228    0.0005 C   0  0  1  0  0  0  0  0  0  0  0  0
    1.3255   -0.0219   -0.9020 H   0  0  0  0  0  0  0  0  0  0  0  0
    1.8209   -0.8522    0.9180 C   0  0  0  0  0  0  0  0  0  0  0  0
    1.7525   -0.6874    2.1310 O   0  0  0  0  0  0  0  0  0  0  0  0
    2.9468   -1.4460    0.3756 N   0  0  0  0  0  0  0  0  0  0  0  0
    2.8243   -1.7952   -0.5718 H   0  0  0  0  0  0  0  0  0  0  0  0
    3.9511   -2.0986    1.2059 C   0  0  0  0  0  0  0  0  0  0  0  0
    3.5077   -2.9376    1.7524 H   0  0  0  0  0  0  0  0  0  0  0  0
    4.7652   -2.4802    0.5825 H   0  0  0  0  0  0  0  0  0  0  0  0
    4.3738   -1.3911    1.9269 H   0  0  0  0  0  0  0  0  0  0  0  0
  1  2  1  0  0  0  0
  2  3  1  0  0  0  0
  2  4  1  0  0  0  0
  2  5  1  0  0  0  0
  5  6  2  0  0  0  0
  5  7  1  0  0  0  0
  7  8  1  0  0  0  0
  7 17  1  0  0  0  0
  8  9  1  0  0  0  0
  8 10  1  0  0  0  0
  8 11  1  0  0  0  0
 11 12  1  0  0  0  0
 11 13  1  0  0  0  0
 11 14  1  0  0  0  0
 14 15  1  0  0  0  0
 14 16  1  0  0  0  0
 14 17  1  0  0  0  0
 17 18  1  0  0  0  0
 17 19  1  0  0  0  0
 19 20  2  0  0  0  0
 19 21  1  0  0  0  0
 21 22  1  0  0  0  0
 21 23  1  0  0  0  0
 23 24  1  0  0  0  0
 23 25  1  0  0  0  0
 23 26  1  0  0  0  0
M  END
$$$$

  -OEChem-11182114133D

 26 26  0     1  0  0  0  0  0999 V2000
   -1.5809   -4.2083    0.0079 H   0  0  0  0  0  0  0  0  0  0  0  0
   -1.7793   -3.1326   -0.0032 C   0  0  0  0  0  0  0  0  0  0  0  0
   -2.2212   -2.8557    0.9571 H   0  0  0  0  0  0  0  0  0  0  0  0
   -2.4885   -2.9222   -0.8075 H   0  0  0  0  0  0  0  0  0  0  0  0
   -0.4814   -2.3603   -0.2259 C   0  0  0  0  0  0  0  0  0  0  0  0
    0.5283   -3.0413   -0.3450 O   0  0  0  0  0  0  0  0  0  0  0  0
   -0.3969   -0.9996   -0.5589 N   0  0  0  0  0  0  0  0  0  0  0  0
   -1.6072   -0.2058   -0.2974 C   0  0  0  0  0  0  0  0  0  0  0  0
   -2.4689   -0.7676    0.0686 H   0  0  0  0  0  0  0  0  0  0  0  0
   -1.9114    0.2758   -1.2328 H   0  0  0  0  0  0  0  0  0  0  0  0
   -1.2409    0.8659    0.7368 C   0  0  0  0  0  0  0  0  0  0  0  0
   -1.3198    0.4578    1.7502 H   0  0  0  0  0  0  0  0  0  0  0  0
   -1.8745    1.7549    0.6605 H   0  0  0  0  0  0  0  0  0  0  0  0
    0.2015    1.1524    0.4014 C   0  0  0  0  0  0  0  0  0  0  0  0
    0.7456    1.5578    1.2612 H   0  0  0  0  0  0  0  0  0  0  0  0
    0.2635    1.8732   -0.4205 H   0  0  0  0  0  0  0  0  0  0  0  0
    0.7419   -0.2059   -0.0432 C   0  0  1  0  0  0  0  0  0  0  0  0
    1.3224    0.0208   -0.9423 H   0  0  0  0  0  0  0  0  0  0  0  0
    1.8152   -0.8557    0.8657 C   0  0  0  0  0  0  0  0  0  0  0  0
    1.6077   -0.9304    2.0719 O   0  0  0  0  0  0  0  0  0  0  0  0
    3.0695   -1.1664    0.3705 N   0  0  0  0  0  0  0  0  0  0  0  0
    3.1262   -1.2778   -0.6378 H   0  0  0  0  0  0  0  0  0  0  0  0
    4.0817   -1.8277    1.1844 C   0  0  0  0  0  0  0  0  0  0  0  0
    3.7295   -2.8143    1.5040 H   0  0  0  0  0  0  0  0  0  0  0  0
    5.0032   -1.9564    0.6087 H   0  0  0  0  0  0  0  0  0  0  0  0
    4.3126   -1.2304    2.0728 H   0  0  0  0  0  0  0  0  0  0  0  0
  1  2  1  0  0  0  0
  2  3  1  0  0  0  0
  2  4  1  0  0  0  0
  2  5  1  0  0  0  0
  5  6  2  0  0  0  0
  5  7  1  0  0  0  0
  7  8  1  0  0  0  0
  7 17  1  0  0  0  0
  8  9  1  0  0  0  0
  8 10  1  0  0  0  0
  8 11  1  0  0  0  0
 11 12  1  0  0  0  0
 11 13  1  0  0  0  0
 11 14  1  0  0  0  0
 14 15  1  0  0  0  0
 14 16  1  0  0  0  0
 14 17  1  0  0  0  0
 17 18  1  0  0  0  0
 17 19  1  0  0  0  0
 19 20  2  0  0  0  0
 19 21  1  0  0  0  0
 21 22  1  0  0  0  0
 21 23  1  0  0  0  0
 23 24  1  0  0  0  0
 23 25  1  0  0  0  0
 23 26  1  0  0  0  0
M  END
$$$$

  -OEChem-11182114133D

 26 26  0     1  0  0  0  0  0999 V2000
   -1.5024   -4.1927    0.1034 H   0  0  0  0  0  0  0  0  0  0  0  0
   -1.7234   -3.1229    0.0484 C   0  0  0  0  0  0  0  0  0  0  0  0
   -2.1018   -2.8013    1.0215 H   0  0  0  0  0  0  0  0  0  0  0  0
   -2.4910   -2.9681   -0.7135 H   0  0  0  0  0  0  0  0  0  0  0  0
   -0.4594   -2.3444   -0.3065 C   0  0  0  0  0  0  0  0  0  0  0  0
    0.5394   -3.0150   -0.5330 O   0  0  0  0  0  0  0  0  0  0  0  0
   -0.3982   -0.9777   -0.6186 N   0  0  0  0  0  0  0  0  0  0  0  0
   -1.6098   -0.1984   -0.3238 C   0  0  0  0  0  0  0  0  0  0  0  0
   -2.4706   -0.7760    0.0187 H   0  0  0  0  0  0  0  0  0  0  0  0
   -1.9166    0.3161   -1.2407 H   0  0  0  0  0  0  0  0  0  0  0  0
   -1.2429    0.8388    0.7453 C   0  0  0  0  0  0  0  0  0  0  0  0
   -1.3134    0.3951    1.7443 H   0  0  0  0  0  0  0  0  0  0  0  0
   -1.8814    1.7267    0.7036 H   0  0  0  0  0  0  0  0  0  0  0  0
    0.1963    1.1438    0.4096 C   0  0  0  0  0  0  0  0  0  0  0  0
    0.7447    1.5194    1.2803 H   0  0  0  0  0  0  0  0  0  0  0  0
    0.2504    1.8935   -0.3868 H   0  0  0  0  0  0  0  0  0  0  0  0
    0.7390   -0.1955   -0.0845 C   0  0  1  0  0  0  0  0  0  0  0  0
    1.3154    0.0574   -0.9792 H   0  0  0  0  0  0  0  0  0  0  0  0
    1.8118   -0.8688    0.8072 C   0  0  0  0  0  0  0  0  0  0  0  0
    1.5172   -1.1767    1.9571 O   0  0  0  0  0  0  0  0  0  0  0  0
    3.1413   -0.8908    0.4224 N   0  0  0  0  0  0  0  0  0  0  0  0
    3.3246   -0.7564   -0.5674 H   0  0  0  0  0  0  0  0  0  0  0  0
    4.1772   -1.5178    1.2337 C   0  0  0  0  0  0  0  0  0  0  0  0
    3.9698   -2.5858    1.3583 H   0  0  0  0  0  0  0  0  0  0  0  0
    5.1532   -1.4068    0.7520 H   0  0  0  0  0  0  0  0  0  0  0  0
    4.2271   -1.0502    2.2226 H   0  0  0  0  0  0  0  0  0  0  0  0
  1  2  1  0  0  0  0
  2  3  1  0  0  0  0
  2  4  1  0  0  0  0
  2  5  1  0  0  0  0
  5  6  2  0  0  0  0
  5  7  1  0  0  0  0
  7  8  1  0  0  0  0
  7 17  1  0  0  0  0
  8  9  1  0  0  0  0
  8 10  1  0  0  0  0
  8 11  1  0  0  0  0
 11 12  1  0  0  0  0
 11 13  1  0  0  0  0
 11 14  1  0  0  0  0
 14 15  1  0  0  0  0
 14 16  1  0  0  0  0
 14 17  1  0  0  0  0
 17 18  1  0  0  0  0
 17 19  1  0  0  0  0
 19 20  2  0  0  0  0
 19 21  1  0  0  0  0
 21 22  1  0  0  0  0
 21 23  1  0  0  0  0
 23 24  1  0  0  0  0
 23 25  1  0  0  0  0
 23 26  1  0  0  0  0
M  END
$$$$

  -OEChem-11182114133D

 26 26  0     1  0  0  0  0  0999 V2000
   -1.4282   -4.1690    0.1883 H   0  0  0  0  0  0  0  0  0  0  0  0
   -1.6726   -3.1073    0.0930 C   0  0  0  0  0  0  0  0  0  0  0  0
   -1.9874   -2.7397    1.0726 H   0  0  0  0  0  0  0  0  0  0  0  0
   -2.4942   -3.0040   -0.6196 H   0  0  0  0  0  0  0  0  0  0  0  0
   -0.4513   -2.3305   -0.3903 C   0  0  0  0  0  0  0  0  0  0  0  0
    0.5238   -2.9940   -0.7191 O   0  0  0  0  0  0  0  0  0  0  0  0
   -0.4036   -0.9583   -0.6749 N   0  0  0  0  0  0  0  0  0  0  0  0
   -1.6134   -0.1915   -0.3461 C   0  0  0  0  0  0  0  0  0  0  0  0
   -2.4734   -0.7814   -0.0234 H   0  0  0  0  0  0  0  0  0  0  0  0
   -1.9241    0.3536   -1.2438 H   0  0  0  0  0  0  0  0  0  0  0  0
   -1.2402    0.8109    0.7536 C   0  0  0  0  0  0  0  0  0  0  0  0
   -1.3011    0.3333    1.7376 H   0  0  0  0  0  0  0  0  0  0  0  0
   -1.8810    1.6980    0.7478 H   0  0  0  0  0  0  0  0  0  0  0  0
    0.1957    1.1294    0.4155 C   0  0  0  0  0  0  0  0  0  0  0  0
    0.7508    1.4779    1.2929 H   0  0  0  0  0  0  0  0  0  0  0  0
    0.2412    1.9040   -0.3573 H   0  0  0  0  0  0  0  0  0  0  0  0
    0.7369   -0.1919   -0.1263 C   0  0  1  0  0  0  0  0  0  0  0  0
    1.3074    0.0834   -1.0183 H   0  0  0  0  0  0  0  0  0  0  0  0
    1.8168   -0.8835    0.7437 C   0  0  0  0  0  0  0  0  0  0  0  0
    1.4865   -1.3981    1.8070 O   0  0  0  0  0  0  0  0  0  0  0  0
    3.1596   -0.6320    0.5190 N   0  0  0  0  0  0  0  0  0  0  0  0
    3.4097   -0.2582   -0.3913 H   0  0  0  0  0  0  0  0  0  0  0  0
    4.2167   -1.1899    1.3536 C   0  0  0  0  0  0  0  0  0  0  0  0
    4.1839   -2.2843    1.3322 H   0  0  0  0  0  0  0  0  0  0  0  0
    5.1959   -0.8646    0.9896 H   0  0  0  0  0  0  0  0  0  0  0  0
    4.1059   -0.8537    2.3899 H   0  0  0  0  0  0  0  0  0  0  0  0
  1  2  1  0  0  0  0
  2  3  1  0  0  0  0
  2  4  1  0  0  0  0
  2  5  1  0  0  0  0
  5  6  2  0  0  0  0
  5  7  1  0  0  0  0
  7  8  1  0  0  0  0
  7 17  1  0  0  0  0
  8  9  1  0  0  0  0
  8 10  1  0  0  0  0
  8 11  1  0  0  0  0
 11 12  1  0  0  0  0
 11 13  1  0  0  0  0
 11 14  1  0  0  0  0
 14 15  1  0  0  0  0
 14 16  1  0  0  0  0
 14 17  1  0  0  0  0
 17 18  1  0  0  0  0
 17 19  1  0  0  0  0
 19 20  2  0  0  0  0
 19 21  1  0  0  0  0
 21 22  1  0  0  0  0
 21 23  1  0  0  0  0
 23 24  1  0  0  0  0
 23 25  1  0  0  0  0
 23 26  1  0  0  0  0
M  END
$$$$

  -OEChem-11182114133D

 26 26  0     1  0  0  0  0  0999 V2000
   -1.3316   -4.1418    0.2647 H   0  0  0  0  0  0  0  0  0  0  0  0
   -1.6083   -3.0905    0.1447 C   0  0  0  0  0  0  0  0  0  0  0  0
   -1.8472   -2.6852    1.1308 H   0  0  0  0  0  0  0  0  0  0  0  0
   -2.4890   -3.0347   -0.4994 H   0  0  0  0  0  0  0  0  0  0  0  0
   -0.4491   -2.3145   -0.4731 C   0  0  0  0  0  0  0  0  0  0  0  0
    0.4896   -2.9695   -0.9075 O   0  0  0  0  0  0  0  0  0  0  0  0
   -0.4102   -0.9370   -0.7264 N   0  0  0  0  0  0  0  0  0  0  0  0
   -1.6184   -0.1835   -0.3653 C   0  0  0  0  0  0  0  0  0  0  0  0
   -2.4743   -0.7864   -0.0550 H   0  0  0  0  0  0  0  0  0  0  0  0
   -1.9383    0.3848   -1.2452 H   0  0  0  0  0  0  0  0  0  0  0  0
   -1.2379    0.7903    0.7562 C   0  0  0  0  0  0  0  0  0  0  0  0
   -1.2906    0.2885    1.7283 H   0  0  0  0  0  0  0  0  0  0  0  0
   -1.8797    1.6765    0.7771 H   0  0  0  0  0  0  0  0  0  0  0  0
    0.1947    1.1200    0.4133 C   0  0  0  0  0  0  0  0  0  0  0  0
    0.7558    1.4479    1.2948 H   0  0  0  0  0  0  0  0  0  0  0  0
    0.2315    1.9145   -0.3395 H   0  0  0  0  0  0  0  0  0  0  0  0
    0.7362   -0.1850   -0.1682 C   0  0  1  0  0  0  0  0  0  0  0  0
    1.2987    0.1106   -1.0588 H   0  0  0  0  0  0  0  0  0  0  0  0
    1.8320   -0.8859    0.6769 C   0  0  0  0  0  0  0  0  0  0  0  0
    1.5085   -1.5902    1.6276 O   0  0  0  0  0  0  0  0  0  0  0  0
    3.1265   -0.3937    0.6551 N   0  0  0  0  0  0  0  0  0  0  0  0
    3.3857    0.1948   -0.1304 H   0  0  0  0  0  0  0  0  0  0  0  0
    4.1802   -0.8851    1.5355 C   0  0  0  0  0  0  0  0  0  0  0  0
    4.3208   -1.9628    1.4003 H   0  0  0  0  0  0  0  0  0  0  0  0
    5.1254   -0.3818    1.3109 H   0  0  0  0  0  0  0  0  0  0  0  0
    3.9270   -0.6910    2.5830 H   0  0  0  0  0  0  0  0  0  0  0  0
  1  2  1  0  0  0  0
  2  3  1  0  0  0  0
  2  4  1  0  0  0  0
  2  5  1  0  0  0  0
  5  6  2  0  0  0  0
  5  7  1  0  0  0  0
  7  8  1  0  0  0  0
  7 17  1  0  0  0  0
  8  9  1  0  0  0  0
  8 10  1  0  0  0  0
  8 11  1  0  0  0  0
 11 12  1  0  0  0  0
 11 13  1  0  0  0  0
 11 14  1  0  0  0  0
 14 15  1  0  0  0  0
 14 16  1  0  0  0  0
 14 17  1  0  0  0  0
 17 18  1  0  0  0  0
 17 19  1  0  0  0  0
 19 20  2  0  0  0  0
 19 21  1  0  0  0  0
 21 22  1  0  0  0  0
 21 23  1  0  0  0  0
 23 24  1  0  0  0  0
 23 25  1  0  0  0  0
 23 26  1  0  0  0  0
M  END
$$$$

  -OEChem-11182114133D

 26 26  0     1  0  0  0  0  0999 V2000
   -1.2039   -4.0973    0.3623 H   0  0  0  0  0  0  0  0  0  0  0  0
   -1.5239   -3.0622    0.2136 C   0  0  0  0  0  0  0  0  0  0  0  0
   -1.6803   -2.6087    1.1954 H   0  0  0  0  0  0  0  0  0  0  0  0
   -2.4631   -3.0645   -0.3441 H   0  0  0  0  0  0  0  0  0  0  0  0
   -0.4518   -2.2948   -0.5537 C   0  0  0  0  0  0  0  0  0  0  0  0
    0.4303   -2.9461   -1.0972 O   0  0  0  0  0  0  0  0  0  0  0  0
   -0.4143   -0.9137   -0.7758 N   0  0  0  0  0  0  0  0  0  0  0  0
   -1.6226   -0.1750   -0.3892 C   0  0  0  0  0  0  0  0  0  0  0  0
   -2.4736   -0.7915   -0.0913 H   0  0  0  0  0  0  0  0  0  0  0  0
   -1.9503    0.4126   -1.2534 H   0  0  0  0  0  0  0  0  0  0  0  0
   -1.2396    0.7753    0.7496 C   0  0  0  0  0  0  0  0  0  0  0  0
   -1.2843    0.2521    1.7108 H   0  0  0  0  0  0  0  0  0  0  0  0
   -1.8850    1.6580    0.7937 H   0  0  0  0  0  0  0  0  0  0  0  0
    0.1897    1.1170    0.4041 C   0  0  0  0  0  0  0  0  0  0  0  0
    0.7516    1.4321    1.2896 H   0  0  0  0  0  0  0  0  0  0  0  0
    0.2178    1.9270   -0.3325 H   0  0  0  0  0  0  0  0  0  0  0  0
    0.7367   -0.1732   -0.2097 C   0  0  1  0  0  0  0  0  0  0  0  0
    1.2919    0.1414   -1.0986 H   0  0  0  0  0  0  0  0  0  0  0  0
    1.8528   -0.8713    0.6155 C   0  0  0  0  0  0  0  0  0  0  0  0
    1.5805   -1.7578    1.4176 O   0  0  0  0  0  0  0  0  0  0  0  0
    3.0388   -0.1877    0.8308 N   0  0  0  0  0  0  0  0  0  0  0  0
    3.2523    0.5831    0.2056 H   0  0  0  0  0  0  0  0  0  0  0  0
    4.0661   -0.6346    1.7649 C   0  0  0  0  0  0  0  0  0  0  0  0
    4.3948   -1.6494    1.5166 H   0  0  0  0  0  0  0  0  0  0  0  0
    4.9335    0.0306    1.7196 H   0  0  0  0  0  0  0  0  0  0  0  0
    3.6805   -0.6296    2.7898 H   0  0  0  0  0  0  0  0  0  0  0  0
  1  2  1  0  0  0  0
  2  3  1  0  0  0  0
  2  4  1  0  0  0  0
  2  5  1  0  0  0  0
  5  6  2  0  0  0  0
  5  7  1  0  0  0  0
  7  8  1  0  0  0  0
  7 17  1  0  0  0  0
  8  9  1  0  0  0  0
  8 10  1  0  0  0  0
  8 11  1  0  0  0  0
 11 12  1  0  0  0  0
 11 13  1  0  0  0  0
 11 14  1  0  0  0  0
 14 15  1  0  0  0  0
 14 16  1  0  0  0  0
 14 17  1  0  0  0  0
 17 18  1  0  0  0  0
 17 19  1  0  0  0  0
 19 20  2  0  0  0  0
 19 21  1  0  0  0  0
 21 22  1  0  0  0  0
 21 23  1  0  0  0  0
 23 24  1  0  0  0  0
 23 25  1  0  0  0  0
 23 26  1  0  0  0  0
M  END
$$$$

  -OEChem-11182114133D

 26 26  0     1  0  0  0  0  0999 V2000
   -0.1412   -3.6768    0.8165 H   0  0  0  0  0  0  0  0  0  0  0  0
   -0.8458   -2.8561    0.6596 C   0  0  0  0  0  0  0  0  0  0  0  0
   -0.7014   -2.1114    1.4445 H   0  0  0  0  0  0  0  0  0  0  0  0
   -1.8636   -3.2468    0.7368 H   0  0  0  0  0  0  0  0  0  0  0  0
   -0.6273   -2.2491   -0.7244 C   0  0  0  0  0  0  0  0  0  0  0  0
   -1.1598   -2.8371   -1.6559 O   0  0  0  0  0  0  0  0  0  0  0  0
   -0.3505   -0.8952   -0.9316 N   0  0  0  0  0  0  0  0  0  0  0  0
   -1.5978   -0.1409   -0.7543 C   0  0  0  0  0  0  0  0  0  0  0  0
   -2.4863   -0.7688   -0.6105 H   0  0  0  0  0  0  0  0  0  0  0  0
   -1.7708    0.4592   -1.6540 H   0  0  0  0  0  0  0  0  0  0  0  0
   -1.4124    0.7841    0.4577 C   0  0  0  0  0  0  0  0  0  0  0  0
   -1.6358    0.2479    1.3857 H   0  0  0  0  0  0  0  0  0  0  0  0
   -2.0454    1.6751    0.4014 H   0  0  0  0  0  0  0  0  0  0  0  0
    0.0589    1.1111    0.3713 C   0  0  0  0  0  0  0  0  0  0  0  0
    0.4549    1.4036    1.3486 H   0  0  0  0  0  0  0  0  0  0  0  0
    0.2225    1.9354   -0.3317 H   0  0  0  0  0  0  0  0  0  0  0  0
    0.6898   -0.1779   -0.1656 C   0  0  1  0  0  0  0  0  0  0  0  0
    1.3308    0.1837   -0.9761 H   0  0  0  0  0  0  0  0  0  0  0  0
    1.7895   -0.8634    0.6901 C   0  0  0  0  0  0  0  0  0  0  0  0
    1.9666   -2.0724    0.6931 O   0  0  0  0  0  0  0  0  0  0  0  0
    2.7112   -0.0805    1.3655 N   0  0  0  0  0  0  0  0  0  0  0  0
    2.6225    0.9277    1.2834 H   0  0  0  0  0  0  0  0  0  0  0  0
    3.8574   -0.6250    2.0855 C   0  0  0  0  0  0  0  0  0  0  0  0
    4.5169   -1.1698    1.4017 H   0  0  0  0  0  0  0  0  0  0  0  0
    4.4314    0.1834    2.5483 H   0  0  0  0  0  0  0  0  0  0  0  0
    3.5261   -1.3079    2.8749 H   0  0  0  0  0  0  0  0  0  0  0  0
  1  2  1  0  0  0  0
  2  3  1  0  0  0  0
  2  4  1  0  0  0  0
  2  5  1  0  0  0  0
  5  6  2  0  0  0  0
  5  7  1  0  0  0  0
  7  8  1  0  0  0  0
  7 17  1  0  0  0  0
  8  9  1  0  0  0  0
  8 10  1  0  0  0  0
  8 11  1  0  0  0  0
 11 12  1  0  0  0  0
 11 13  1  0  0  0  0
 11 14  1  0  0  0  0
 14 15  1  0  0  0  0
 14 16  1  0  0  0  0
 14 17  1  0  0  0  0
 17 18  1  0  0  0  0
 17 19  1  0  0  0  0
 19 20  2  0  0  0  0
 19 21  1  0  0  0  0
 21 22  1  0  0  0  0
 21 23  1  0  0  0  0
 23 24  1  0  0  0  0
 23 25  1  0  0  0  0
 23 26  1  0  0  0  0
M  END
$$$$

  -OEChem-11182114133D

 26 26  0     1  0  0  0  0  0999 V2000
    0.1166   -3.5681    0.8365 H   0  0  0  0  0  0  0  0  0  0  0  0
   -0.6911   -2.8444    0.7022 C   0  0  0  0  0  0  0  0  0  0  0  0
   -0.6165   -2.0772    1.4748 H   0  0  0  0  0  0  0  0  0  0  0  0
   -1.6462   -3.3619    0.8240 H   0  0  0  0  0  0  0  0  0  0  0  0
   -0.6095   -2.2307   -0.6934 C   0  0  0  0  0  0  0  0  0  0  0  0
   -1.2093   -2.8294   -1.5765 O   0  0  0  0  0  0  0  0  0  0  0  0
   -0.3496   -0.8764   -0.9260 N   0  0  0  0  0  0  0  0  0  0  0  0
   -1.6094   -0.1345   -0.7870 C   0  0  0  0  0  0  0  0  0  0  0  0
   -2.4912   -0.7689   -0.6313 H   0  0  0  0  0  0  0  0  0  0  0  0
   -1.7803    0.4351   -1.7067 H   0  0  0  0  0  0  0  0  0  0  0  0
   -1.4504    0.8278    0.3991 C   0  0  0  0  0  0  0  0  0  0  0  0
   -1.6790    0.3152    1.3392 H   0  0  0  0  0  0  0  0  0  0  0  0
   -2.0938    1.7087    0.3083 H   0  0  0  0  0  0  0  0  0  0  0  0
    0.0177    1.1710    0.3218 C   0  0  0  0  0  0  0  0  0  0  0  0
    0.3928    1.5038    1.2937 H   0  0  0  0  0  0  0  0  0  0  0  0
    0.1794    1.9746   -0.4052 H   0  0  0  0  0  0  0  0  0  0  0  0
    0.6737   -0.1257   -0.1690 C   0  0  1  0  0  0  0  0  0  0  0  0
    1.3221    0.2266   -0.9778 H   0  0  0  0  0  0  0  0  0  0  0  0
    1.7688   -0.7962    0.7034 C   0  0  0  0  0  0  0  0  0  0  0  0
    2.1256   -1.9488    0.5082 O   0  0  0  0  0  0  0  0  0  0  0  0
    2.4898   -0.0485    1.6195 N   0  0  0  0  0  0  0  0  0  0  0  0
    2.2666    0.9384    1.7021 H   0  0  0  0  0  0  0  0  0  0  0  0
    3.6280   -0.5722    2.3671 C   0  0  0  0  0  0  0  0  0  0  0  0
    4.4352   -0.8594    1.6851 H   0  0  0  0  0  0  0  0  0  0  0  0
    4.0102    0.1879    3.0552 H   0  0  0  0  0  0  0  0  0  0  0  0
    3.3325   -1.4491    2.9529 H   0  0  0  0  0  0  0  0  0  0  0  0
  1  2  1  0  0  0  0
  2  3  1  0  0  0  0
  2  4  1  0  0  0  0
  2  5  1  0  0  0  0
  5  6  2  0  0  0  0
  5  7  1  0  0  0  0
  7  8  1  0  0  0  0
  7 17  1  0  0  0  0
  8  9  1  0  0  0  0
  8 10  1  0  0  0  0
  8 11  1  0  0  0  0
 11 12  1  0  0  0  0
 11 13  1  0  0  0  0
 11 14  1  0  0  0  0
 14 15  1  0  0  0  0
 14 16  1  0  0  0  0
 14 17  1  0  0  0  0
 17 18  1  0  0  0  0
 17 19  1  0  0  0  0
 19 20  2  0  0  0  0
 19 21  1  0  0  0  0
 21 22  1  0  0  0  0
 21 23  1  0  0  0  0
 23 24  1  0  0  0  0
 23 25  1  0  0  0  0
 23 26  1  0  0  0  0
M  END
$$$$

  -OEChem-11182114133D

 26 26  0     1  0  0  0  0  0999 V2000
   -0.6428   -4.1840    0.5293 H   0  0  0  0  0  0  0  0  0  0  0  0
   -0.7788   -3.4023   -0.2228 C   0  0  0  0  0  0  0  0  0  0  0  0
   -1.6753   -3.6193   -0.8074 H   0  0  0  0  0  0  0  0  0  0  0  0
    0.0884   -3.4032   -0.8875 H   0  0  0  0  0  0  0  0  0  0  0  0
   -0.9157   -2.0472    0.4496 C   0  0  0  0  0  0  0  0  0  0  0  0
   -1.1852   -1.9955    1.6460 O   0  0  0  0  0  0  0  0  0  0  0  0
   -0.7828   -0.8841   -0.3126 N   0  0  0  0  0  0  0  0  0  0  0  0
   -1.8794    0.0481   -0.0126 C   0  0  0  0  0  0  0  0  0  0  0  0
   -2.7268   -0.4111    0.5110 H   0  0  0  0  0  0  0  0  0  0  0  0
   -2.2679    0.4341   -0.9609 H   0  0  0  0  0  0  0  0  0  0  0  0
   -1.3099    1.2109    0.8093 C   0  0  0  0  0  0  0  0  0  0  0  0
   -1.2725    0.9405    1.8702 H   0  0  0  0  0  0  0  0  0  0  0  0
   -1.8922    2.1304    0.6948 H   0  0  0  0  0  0  0  0  0  0  0  0
    0.0819    1.3253    0.2394 C   0  0  0  0  0  0  0  0  0  0  0  0
    0.7585    1.8139    0.9449 H   0  0  0  0  0  0  0  0  0  0  0  0
    0.0623    1.9185   -0.6814 H   0  0  0  0  0  0  0  0  0  0  0  0
    0.4671   -0.1262   -0.0808 C   0  0  1  0  0  0  0  0  0  0  0  0
    0.9027   -0.0551   -1.0826 H   0  0  0  0  0  0  0  0  0  0  0  0
    1.6645   -0.7741    0.6734 C   0  0  0  0  0  0  0  0  0  0  0  0
    1.9907   -1.9314    0.4387 O   0  0  0  0  0  0  0  0  0  0  0  0
    2.5365   -0.0063    1.4274 N   0  0  0  0  0  0  0  0  0  0  0  0
    2.2567    0.9457    1.6390 H   0  0  0  0  0  0  0  0  0  0  0  0
    3.7154   -0.5511    2.0914 C   0  0  0  0  0  0  0  0  0  0  0  0
    4.3911   -1.0086    1.3610 H   0  0  0  0  0  0  0  0  0  0  0  0
    4.2585    0.2448    2.6099 H   0  0  0  0  0  0  0  0  0  0  0  0
    3.4250   -1.3090    2.8267 H   0  0  0  0  0  0  0  0  0  0  0  0
  1  2  1  0  0  0  0
  2  3  1  0  0  0  0
  2  4  1  0  0  0  0
  2  5  1  0  0  0  0
  5  6  2  0  0  0  0
  5  7  1  0  0  0  0
  7  8  1  0  0  0  0
  7 17  1  0  0  0  0
  8  9  1  0  0  0  0
  8 10  1  0  0  0  0
  8 11  1  0  0  0  0
 11 12  1  0  0  0  0
 11 13  1  0  0  0  0
 11 14  1  0  0  0  0
 14 15  1  0  0  0  0
 14 16  1  0  0  0  0
 14 17  1  0  0  0  0
 17 18  1  0  0  0  0
 17 19  1  0  0  0  0
 19 20  2  0  0  0  0
 19 21  1  0  0  0  0
 21 22  1  0  0  0  0
 21 23  1  0  0  0  0
 23 24  1  0  0  0  0
 23 25  1  0  0  0  0
 23 26  1  0  0  0  0
M  END
$$$$

  -OEChem-11182114133D

 26 26  0     1  0  0  0  0  0999 V2000
   -0.6212   -4.1428    0.6587 H   0  0  0  0  0  0  0  0  0  0  0  0
   -0.7672   -3.3927   -0.1231 C   0  0  0  0  0  0  0  0  0  0  0  0
   -1.6704   -3.6347   -0.6875 H   0  0  0  0  0  0  0  0  0  0  0  0
    0.0918   -3.4197   -0.7982 H   0  0  0  0  0  0  0  0  0  0  0  0
   -0.8984   -2.0114    0.4943 C   0  0  0  0  0  0  0  0  0  0  0  0
   -1.1081   -1.9079    1.6994 O   0  0  0  0  0  0  0  0  0  0  0  0
   -0.7849   -0.8804   -0.3172 N   0  0  0  0  0  0  0  0  0  0  0  0
   -1.8812    0.0569   -0.0319 C   0  0  0  0  0  0  0  0  0  0  0  0
   -2.7171   -0.3905    0.5197 H   0  0  0  0  0  0  0  0  0  0  0  0
   -2.2861    0.4108   -0.9859 H   0  0  0  0  0  0  0  0  0  0  0  0
   -1.3053    1.2479    0.7456 C   0  0  0  0  0  0  0  0  0  0  0  0
   -1.2527    1.0121    1.8140 H   0  0  0  0  0  0  0  0  0  0  0  0
   -1.8929    2.1609    0.6094 H   0  0  0  0  0  0  0  0  0  0  0  0
    0.0786    1.3505    0.1539 C   0  0  0  0  0  0  0  0  0  0  0  0
    0.7688    1.8642    0.8281 H   0  0  0  0  0  0  0  0  0  0  0  0
    0.0419    1.9119   -0.7861 H   0  0  0  0  0  0  0  0  0  0  0  0
    0.4620   -0.1088   -0.1247 C   0  0  1  0  0  0  0  0  0  0  0  0
    0.8939   -0.0678   -1.1298 H   0  0  0  0  0  0  0  0  0  0  0  0
    1.6486   -0.7478    0.6494 C   0  0  0  0  0  0  0  0  0  0  0  0
    2.0797   -1.8413    0.3032 O   0  0  0  0  0  0  0  0  0  0  0  0
    2.3470   -0.0441    1.6154 N   0  0  0  0  0  0  0  0  0  0  0  0
    1.9187    0.8084    1.9617 H   0  0  0  0  0  0  0  0  0  0  0  0
    3.4555   -0.6189    2.3687 C   0  0  0  0  0  0  0  0  0  0  0  0
    4.2703   -0.9043    1.6950 H   0  0  0  0  0  0  0  0  0  0  0  0
    3.8425    0.1103    3.0868 H   0  0  0  0  0  0  0  0  0  0  0  0
    3.1253   -1.5063    2.9191 H   0  0  0  0  0  0  0  0  0  0  0  0
  1  2  1  0  0  0  0
  2  3  1  0  0  0  0
  2  4  1  0  0  0  0
  2  5  1  0  0  0  0
  5  6  2  0  0  0  0
  5  7  1  0  0  0  0
  7  8  1  0  0  0  0
  7 17  1  0  0  0  0
  8  9  1  0  0  0  0
  8 10  1  0  0  0  0
  8 11  1  0  0  0  0
 11 12  1  0  0  0  0
 11 13  1  0  0  0  0
 11 14  1  0  0  0  0
 14 15  1  0  0  0  0
 14 16  1  0  0  0  0
 14 17  1  0  0  0  0
 17 18  1  0  0  0  0
 17 19  1  0  0  0  0
 19 20  2  0  0  0  0
 19 21  1  0  0  0  0
 21 22  1  0  0  0  0
 21 23  1  0  0  0  0
 23 24  1  0  0  0  0
 23 25  1  0  0  0  0
 23 26  1  0  0  0  0
M  END
$$$$

  -OEChem-11182114133D

 26 26  0     1  0  0  0  0  0999 V2000
    0.2602   -3.7511    0.2878 H   0  0  0  0  0  0  0  0  0  0  0  0
   -0.6890   -3.3576   -0.0847 C   0  0  0  0  0  0  0  0  0  0  0  0
   -1.4978   -4.0279    0.2161 H   0  0  0  0  0  0  0  0  0  0  0  0
   -0.6490   -3.3193   -1.1760 H   0  0  0  0  0  0  0  0  0  0  0  0
   -0.9283   -1.9687    0.4806 C   0  0  0  0  0  0  0  0  0  0  0  0
   -1.1871   -1.8513    1.6744 O   0  0  0  0  0  0  0  0  0  0  0  0
   -0.7919   -0.8503   -0.3455 N   0  0  0  0  0  0  0  0  0  0  0  0
   -1.8741    0.1110   -0.0839 C   0  0  0  0  0  0  0  0  0  0  0  0
   -2.7286   -0.3161    0.4551 H   0  0  0  0  0  0  0  0  0  0  0  0
   -2.2556    0.4666   -1.0471 H   0  0  0  0  0  0  0  0  0  0  0  0
   -1.2877    1.2968    0.6961 C   0  0  0  0  0  0  0  0  0  0  0  0
   -1.2545    1.0665    1.7664 H   0  0  0  0  0  0  0  0  0  0  0  0
   -1.8567    2.2194    0.5462 H   0  0  0  0  0  0  0  0  0  0  0  0
    0.1056    1.3707    0.1223 C   0  0  0  0  0  0  0  0  0  0  0  0
    0.8015    1.8704    0.8022 H   0  0  0  0  0  0  0  0  0  0  0  0
    0.0926    1.9277   -0.8209 H   0  0  0  0  0  0  0  0  0  0  0  0
    0.4620   -0.0963   -0.1412 C   0  0  1  0  0  0  0  0  0  0  0  0
    0.9104   -0.0700   -1.1399 H   0  0  0  0  0  0  0  0  0  0  0  0
    1.6166   -0.7525    0.6607 C   0  0  0  0  0  0  0  0  0  0  0  0
    2.1590   -1.7604    0.2247 O   0  0  0  0  0  0  0  0  0  0  0  0
    2.1019   -0.1795    1.8227 N   0  0  0  0  0  0  0  0  0  0  0  0
    1.5301    0.5481    2.2409 H   0  0  0  0  0  0  0  0  0  0  0  0
    3.1233   -0.8139    2.6472 C   0  0  0  0  0  0  0  0  0  0  0  0
    4.0268   -1.0077    2.0594 H   0  0  0  0  0  0  0  0  0  0  0  0
    3.3922   -0.1617    3.4836 H   0  0  0  0  0  0  0  0  0  0  0  0
    2.7544   -1.7630    3.0501 H   0  0  0  0  0  0  0  0  0  0  0  0
  1  2  1  0  0  0  0
  2  3  1  0  0  0  0
  2  4  1  0  0  0  0
  2  5  1  0  0  0  0
  5  6  2  0  0  0  0
  5  7  1  0  0  0  0
  7  8  1  0  0  0  0
  7 17  1  0  0  0  0
  8  9  1  0  0  0  0
  8 10  1  0  0  0  0
  8 11  1  0  0  0  0
 11 12  1  0  0  0  0
 11 13  1  0  0  0  0
 11 14  1  0  0  0  0
 14 15  1  0  0  0  0
 14 16  1  0  0  0  0
 14 17  1  0  0  0  0
 17 18  1  0  0  0  0
 17 19  1  0  0  0  0
 19 20  2  0  0  0  0
 19 21  1  0  0  0  0
 21 22  1  0  0  0  0
 21 23  1  0  0  0  0
 23 24  1  0  0  0  0
 23 25  1  0  0  0  0
 23 26  1  0  0  0  0
M  END
$$$$

  -OEChem-11182114133D

 26 26  0     1  0  0  0  0  0999 V2000
    0.2160   -3.7376    0.5963 H   0  0  0  0  0  0  0  0  0  0  0  0
   -0.5935   -3.3220   -0.0094 C   0  0  0  0  0  0  0  0  0  0  0  0
   -1.4609   -3.9838    0.0453 H   0  0  0  0  0  0  0  0  0  0  0  0
   -0.2570   -3.2638   -1.0478 H   0  0  0  0  0  0  0  0  0  0  0  0
   -0.9632   -1.9408    0.5021 C   0  0  0  0  0  0  0  0  0  0  0  0
   -1.2624   -1.8139    1.6855 O   0  0  0  0  0  0  0  0  0  0  0  0
   -0.8306   -0.8336   -0.3403 N   0  0  0  0  0  0  0  0  0  0  0  0
   -1.8946    0.1478   -0.0768 C   0  0  0  0  0  0  0  0  0  0  0  0
   -2.7547   -0.2618    0.4666 H   0  0  0  0  0  0  0  0  0  0  0  0
   -2.2741    0.5061   -1.0396 H   0  0  0  0  0  0  0  0  0  0  0  0
   -1.2831    1.3284    0.6947 C   0  0  0  0  0  0  0  0  0  0  0  0
   -1.2445    1.1029    1.7658 H   0  0  0  0  0  0  0  0  0  0  0  0
   -1.8385    2.2593    0.5455 H   0  0  0  0  0  0  0  0  0  0  0  0
    0.1058    1.3774    0.1066 C   0  0  0  0  0  0  0  0  0  0  0  0
    0.8194    1.8603    0.7814 H   0  0  0  0  0  0  0  0  0  0  0  0
    0.0958    1.9337   -0.8371 H   0  0  0  0  0  0  0  0  0  0  0  0
    0.4337   -0.0950   -0.1531 C   0  0  1  0  0  0  0  0  0  0  0  0
    0.8714   -0.0801   -1.1570 H   0  0  0  0  0  0  0  0  0  0  0  0
    1.5829   -0.7596    0.6453 C   0  0  0  0  0  0  0  0  0  0  0  0
    2.2447   -1.6522    0.1307 O   0  0  0  0  0  0  0  0  0  0  0  0
    1.8704   -0.3582    1.9369 N   0  0  0  0  0  0  0  0  0  0  0  0
    1.1660    0.2154    2.3928 H   0  0  0  0  0  0  0  0  0  0  0  0
    2.8389   -1.0519    2.7766 C   0  0  0  0  0  0  0  0  0  0  0  0
    3.8251   -1.0600    2.3004 H   0  0  0  0  0  0  0  0  0  0  0  0
    2.9292   -0.5483    3.7438 H   0  0  0  0  0  0  0  0  0  0  0  0
    2.5225   -2.0857    2.9505 H   0  0  0  0  0  0  0  0  0  0  0  0
  1  2  1  0  0  0  0
  2  3  1  0  0  0  0
  2  4  1  0  0  0  0
  2  5  1  0  0  0  0
  5  6  2  0  0  0  0
  5  7  1  0  0  0  0
  7  8  1  0  0  0  0
  7 17  1  0  0  0  0
  8  9  1  0  0  0  0
  8 10  1  0  0  0  0
  8 11  1  0  0  0  0
 11 12  1  0  0  0  0
 11 13  1  0  0  0  0
 11 14  1  0  0  0  0
 14 15  1  0  0  0  0
 14 16  1  0  0  0  0
 14 17  1  0  0  0  0
 17 18  1  0  0  0  0
 17 19  1  0  0  0  0
 19 20  2  0  0  0  0
 19 21  1  0  0  0  0
 21 22  1  0  0  0  0
 21 23  1  0  0  0  0
 23 24  1  0  0  0  0
 23 25  1  0  0  0  0
 23 26  1  0  0  0  0
M  END
$$$$

  -OEChem-11182114133D

 26 26  0     1  0  0  0  0  0999 V2000
   -0.8383   -4.0833    0.8003 H   0  0  0  0  0  0  0  0  0  0  0  0
   -0.6704   -3.3371    0.0191 C   0  0  0  0  0  0  0  0  0  0  0  0
   -1.3264   -3.5566   -0.8264 H   0  0  0  0  0  0  0  0  0  0  0  0
    0.3688   -3.4014   -0.3134 H   0  0  0  0  0  0  0  0  0  0  0  0
   -0.9612   -1.9437    0.5488 C   0  0  0  0  0  0  0  0  0  0  0  0
   -1.1758   -1.7923    1.7483 O   0  0  0  0  0  0  0  0  0  0  0  0
   -0.8407   -0.8498   -0.3104 N   0  0  0  0  0  0  0  0  0  0  0  0
   -1.9016    0.1310   -0.0313 C   0  0  0  0  0  0  0  0  0  0  0  0
   -2.7489   -0.2786    0.5322 H   0  0  0  0  0  0  0  0  0  0  0  0
   -2.3015    0.4831   -0.9883 H   0  0  0  0  0  0  0  0  0  0  0  0
   -1.2795    1.3179    0.7225 C   0  0  0  0  0  0  0  0  0  0  0  0
   -1.2175    1.0987    1.7936 H   0  0  0  0  0  0  0  0  0  0  0  0
   -1.8411    2.2463    0.5801 H   0  0  0  0  0  0  0  0  0  0  0  0
    0.0964    1.3689    0.1058 C   0  0  0  0  0  0  0  0  0  0  0  0
    0.8235    1.8504    0.7677 H   0  0  0  0  0  0  0  0  0  0  0  0
    0.0681    1.9228   -0.8389 H   0  0  0  0  0  0  0  0  0  0  0  0
    0.4223   -0.1021   -0.1526 C   0  0  1  0  0  0  0  0  0  0  0  0
    0.8395   -0.0939   -1.1655 H   0  0  0  0  0  0  0  0  0  0  0  0
    1.5875   -0.7436    0.6395 C   0  0  0  0  0  0  0  0  0  0  0  0
    2.4140   -1.4376    0.0617 O   0  0  0  0  0  0  0  0  0  0  0  0
    1.6928   -0.5428    2.0031 N   0  0  0  0  0  0  0  0  0  0  0  0
    0.8444   -0.2127    2.4590 H   0  0  0  0  0  0  0  0  0  0  0  0
    2.6752   -1.2410    2.8223 C   0  0  0  0  0  0  0  0  0  0  0  0
    3.6889   -1.0478    2.4560 H   0  0  0  0  0  0  0  0  0  0  0  0
    2.6142   -0.8966    3.8591 H   0  0  0  0  0  0  0  0  0  0  0  0
    2.4922   -2.3203    2.8021 H   0  0  0  0  0  0  0  0  0  0  0  0
  1  2  1  0  0  0  0
  2  3  1  0  0  0  0
  2  4  1  0  0  0  0
  2  5  1  0  0  0  0
  5  6  2  0  0  0  0
  5  7  1  0  0  0  0
  7  8  1  0  0  0  0
  7 17  1  0  0  0  0
  8  9  1  0  0  0  0
  8 10  1  0  0  0  0
  8 11  1  0  0  0  0
 11 12  1  0  0  0  0
 11 13  1  0  0  0  0
 11 14  1  0  0  0  0
 14 15  1  0  0  0  0
 14 16  1  0  0  0  0
 14 17  1  0  0  0  0
 17 18  1  0  0  0  0
 17 19  1  0  0  0  0
 19 20  2  0  0  0  0
 19 21  1  0  0  0  0
 21 22  1  0  0  0  0
 21 23  1  0  0  0  0
 23 24  1  0  0  0  0
 23 25  1  0  0  0  0
 23 26  1  0  0  0  0
M  END
$$$$

  -OEChem-11182114133D

 26 26  0     1  0  0  0  0  0999 V2000
   -0.7222   -4.0622    0.8092 H   0  0  0  0  0  0  0  0  0  0  0  0
   -0.6424   -3.3194    0.0109 C   0  0  0  0  0  0  0  0  0  0  0  0
   -1.3166   -3.5993   -0.8019 H   0  0  0  0  0  0  0  0  0  0  0  0
    0.3838   -3.3157   -0.3658 H   0  0  0  0  0  0  0  0  0  0  0  0
   -1.0108   -1.9413    0.5326 C   0  0  0  0  0  0  0  0  0  0  0  0
   -1.2828   -1.8095    1.7231 O   0  0  0  0  0  0  0  0  0  0  0  0
   -0.8589   -0.8366   -0.3076 N   0  0  0  0  0  0  0  0  0  0  0  0
   -1.9098    0.1575   -0.0361 C   0  0  0  0  0  0  0  0  0  0  0  0
   -2.7739   -0.2437    0.5074 H   0  0  0  0  0  0  0  0  0  0  0  0
   -2.2873    0.5253   -0.9962 H   0  0  0  0  0  0  0  0  0  0  0  0
   -1.2834    1.3284    0.7397 C   0  0  0  0  0  0  0  0  0  0  0  0
   -1.2405    1.0978    1.8095 H   0  0  0  0  0  0  0  0  0  0  0  0
   -1.8303    2.2656    0.5982 H   0  0  0  0  0  0  0  0  0  0  0  0
    0.1022    1.3666    0.1442 C   0  0  0  0  0  0  0  0  0  0  0  0
    0.8260    1.8273    0.8244 H   0  0  0  0  0  0  0  0  0  0  0  0
    0.0981    1.9320   -0.7940 H   0  0  0  0  0  0  0  0  0  0  0  0
    0.4111   -0.1051   -0.1238 C   0  0  1  0  0  0  0  0  0  0  0  0
    0.8353   -0.0928   -1.1338 H   0  0  0  0  0  0  0  0  0  0  0  0
    1.5685   -0.7548    0.6739 C   0  0  0  0  0  0  0  0  0  0  0  0
    2.5463   -1.2009    0.0883 O   0  0  0  0  0  0  0  0  0  0  0  0
    1.5030   -0.8323    2.0526 N   0  0  0  0  0  0  0  0  0  0  0  0
    0.5697   -0.7120    2.4485 H   0  0  0  0  0  0  0  0  0  0  0  0
    2.4882   -1.5562    2.8454 C   0  0  0  0  0  0  0  0  0  0  0  0
    3.4955   -1.1732    2.6513 H   0  0  0  0  0  0  0  0  0  0  0  0
    2.2750   -1.4352    3.9117 H   0  0  0  0  0  0  0  0  0  0  0  0
    2.4639   -2.6239    2.6040 H   0  0  0  0  0  0  0  0  0  0  0  0
  1  2  1  0  0  0  0
  2  3  1  0  0  0  0
  2  4  1  0  0  0  0
  2  5  1  0  0  0  0
  5  6  2  0  0  0  0
  5  7  1  0  0  0  0
  7  8  1  0  0  0  0
  7 17  1  0  0  0  0
  8  9  1  0  0  0  0
  8 10  1  0  0  0  0
  8 11  1  0  0  0  0
 11 12  1  0  0  0  0
 11 13  1  0  0  0  0
 11 14  1  0  0  0  0
 14 15  1  0  0  0  0
 14 16  1  0  0  0  0
 14 17  1  0  0  0  0
 17 18  1  0  0  0  0
 17 19  1  0  0  0  0
 19 20  2  0  0  0  0
 19 21  1  0  0  0  0
 21 22  1  0  0  0  0
 21 23  1  0  0  0  0
 23 24  1  0  0  0  0
 23 25  1  0  0  0  0
 23 26  1  0  0  0  0
M  END
$$$$

  -OEChem-11182114133D

 26 26  0     1  0  0  0  0  0999 V2000
   -1.5859   -4.2068   -0.2955 H   0  0  0  0  0  0  0  0  0  0  0  0
   -1.8802   -3.1537   -0.3136 C   0  0  0  0  0  0  0  0  0  0  0  0
   -2.7877   -3.0311    0.2824 H   0  0  0  0  0  0  0  0  0  0  0  0
   -2.0906   -2.8727   -1.3487 H   0  0  0  0  0  0  0  0  0  0  0  0
   -0.7582   -2.2900    0.2525 C   0  0  0  0  0  0  0  0  0  0  0  0
   -0.0768   -2.7934    1.1298 O   0  0  0  0  0  0  0  0  0  0  0  0
   -0.4572   -1.0493   -0.3185 N   0  0  0  0  0  0  0  0  0  0  0  0
   -1.6551   -0.1966   -0.3029 C   0  0  0  0  0  0  0  0  0  0  0  0
   -2.5528   -0.6798    0.0978 H   0  0  0  0  0  0  0  0  0  0  0  0
   -1.8788    0.1119   -1.3299 H   0  0  0  0  0  0  0  0  0  0  0  0
   -1.3389    1.0411    0.5537 C   0  0  0  0  0  0  0  0  0  0  0  0
   -1.5003    0.8217    1.6143 H   0  0  0  0  0  0  0  0  0  0  0  0
   -1.9433    1.9095    0.2735 H   0  0  0  0  0  0  0  0  0  0  0  0
    0.1289    1.2449    0.2763 C   0  0  0  0  0  0  0  0  0  0  0  0
    0.6236    1.7838    1.0914 H   0  0  0  0  0  0  0  0  0  0  0  0
    0.2715    1.8107   -0.6508 H   0  0  0  0  0  0  0  0  0  0  0  0
    0.6586   -0.1778    0.1219 C   0  0  1  0  0  0  0  0  0  0  0  0
    1.2097   -0.1159   -0.8230 H   0  0  0  0  0  0  0  0  0  0  0  0
    1.8510   -0.5752    1.0332 C   0  0  0  0  0  0  0  0  0  0  0  0
    2.9808   -0.2269    0.7078 O   0  0  0  0  0  0  0  0  0  0  0  0
    1.6550   -1.0355    2.3220 N   0  0  0  0  0  0  0  0  0  0  0  0
    0.7967   -1.5781    2.4294 H   0  0  0  0  0  0  0  0  0  0  0  0
    2.7639   -1.3610    3.2102 C   0  0  0  0  0  0  0  0  0  0  0  0
    3.3892   -0.4790    3.3834 H   0  0  0  0  0  0  0  0  0  0  0  0
    2.3830   -1.7064    4.1759 H   0  0  0  0  0  0  0  0  0  0  0  0
    3.3830   -2.1530    2.7761 H   0  0  0  0  0  0  0  0  0  0  0  0
  1  2  1  0  0  0  0
  2  3  1  0  0  0  0
  2  4  1  0  0  0  0
  2  5  1  0  0  0  0
  5  6  2  0  0  0  0
  5  7  1  0  0  0  0
  7  8  1  0  0  0  0
  7 17  1  0  0  0  0
  8  9  1  0  0  0  0
  8 10  1  0  0  0  0
  8 11  1  0  0  0  0
 11 12  1  0  0  0  0
 11 13  1  0  0  0  0
 11 14  1  0  0  0  0
 14 15  1  0  0  0  0
 14 16  1  0  0  0  0
 14 17  1  0  0  0  0
 17 18  1  0  0  0  0
 17 19  1  0  0  0  0
 19 20  2  0  0  0  0
 19 21  1  0  0  0  0
 21 22  1  0  0  0  0
 21 23  1  0  0  0  0
 23 24  1  0  0  0  0
 23 25  1  0  0  0  0
 23 26  1  0  0  0  0
M  END
$$$$

  -OEChem-11182114133D

 26 26  0     1  0  0  0  0  0999 V2000
   -1.7576   -4.1881   -0.3421 H   0  0  0  0  0  0  0  0  0  0  0  0
   -1.9896   -3.1192   -0.3436 C   0  0  0  0  0  0  0  0  0  0  0  0
   -2.8788   -2.9533    0.2692 H   0  0  0  0  0  0  0  0  0  0  0  0
   -2.1993   -2.8156   -1.3724 H   0  0  0  0  0  0  0  0  0  0  0  0
   -0.8095   -2.3273    0.2134 C   0  0  0  0  0  0  0  0  0  0  0  0
   -0.0827   -2.9324    0.9821 O   0  0  0  0  0  0  0  0  0  0  0  0
   -0.4722   -1.0707   -0.3029 N   0  0  0  0  0  0  0  0  0  0  0  0
   -1.6562   -0.1977   -0.3393 C   0  0  0  0  0  0  0  0  0  0  0  0
   -2.5780   -0.6617    0.0262 H   0  0  0  0  0  0  0  0  0  0  0  0
   -1.8313    0.1117   -1.3755 H   0  0  0  0  0  0  0  0  0  0  0  0
   -1.3598    1.0364    0.5276 C   0  0  0  0  0  0  0  0  0  0  0  0
   -1.5712    0.8224    1.5806 H   0  0  0  0  0  0  0  0  0  0  0  0
   -1.9377    1.9133    0.2194 H   0  0  0  0  0  0  0  0  0  0  0  0
    0.1206    1.2173    0.3159 C   0  0  0  0  0  0  0  0  0  0  0  0
    0.5846    1.7517    1.1520 H   0  0  0  0  0  0  0  0  0  0  0  0
    0.3137    1.7798   -0.6041 H   0  0  0  0  0  0  0  0  0  0  0  0
    0.6377   -0.2137    0.1872 C   0  0  1  0  0  0  0  0  0  0  0  0
    1.2165   -0.1639   -0.7417 H   0  0  0  0  0  0  0  0  0  0  0  0
    1.8251   -0.5919    1.1165 C   0  0  0  0  0  0  0  0  0  0  0  0
    2.8953   -0.0202    0.9384 O   0  0  0  0  0  0  0  0  0  0  0  0
    1.6822   -1.3371    2.2715 N   0  0  0  0  0  0  0  0  0  0  0  0
    0.8879   -1.9795    2.2580 H   0  0  0  0  0  0  0  0  0  0  0  0
    2.8032   -1.6673    3.1426 C   0  0  0  0  0  0  0  0  0  0  0  0
    3.2570   -0.7562    3.5466 H   0  0  0  0  0  0  0  0  0  0  0  0
    2.4598   -2.2810    3.9807 H   0  0  0  0  0  0  0  0  0  0  0  0
    3.5655   -2.2272    2.5909 H   0  0  0  0  0  0  0  0  0  0  0  0
  1  2  1  0  0  0  0
  2  3  1  0  0  0  0
  2  4  1  0  0  0  0
  2  5  1  0  0  0  0
  5  6  2  0  0  0  0
  5  7  1  0  0  0  0
  7  8  1  0  0  0  0
  7 17  1  0  0  0  0
  8  9  1  0  0  0  0
  8 10  1  0  0  0  0
  8 11  1  0  0  0  0
 11 12  1  0  0  0  0
 11 13  1  0  0  0  0
 11 14  1  0  0  0  0
 14 15  1  0  0  0  0
 14 16  1  0  0  0  0
 14 17  1  0  0  0  0
 17 18  1  0  0  0  0
 17 19  1  0  0  0  0
 19 20  2  0  0  0  0
 19 21  1  0  0  0  0
 21 22  1  0  0  0  0
 21 23  1  0  0  0  0
 23 24  1  0  0  0  0
 23 25  1  0  0  0  0
 23 26  1  0  0  0  0
M  END
$$$$

  -OEChem-11182114133D

 26 26  0     1  0  0  0  0  0999 V2000
   -1.8852   -4.1679   -0.4234 H   0  0  0  0  0  0  0  0  0  0  0  0
   -2.0794   -3.0920   -0.3870 C   0  0  0  0  0  0  0  0  0  0  0  0
   -2.9514   -2.9163    0.2473 H   0  0  0  0  0  0  0  0  0  0  0  0
   -2.2966   -2.7495   -1.4020 H   0  0  0  0  0  0  0  0  0  0  0  0
   -0.8628   -2.3580    0.1732 C   0  0  0  0  0  0  0  0  0  0  0  0
   -0.1265   -3.0328    0.8705 O   0  0  0  0  0  0  0  0  0  0  0  0
   -0.4940   -1.0892   -0.2914 N   0  0  0  0  0  0  0  0  0  0  0  0
   -1.6630   -0.1963   -0.3561 C   0  0  0  0  0  0  0  0  0  0  0  0
   -2.6024   -0.6454   -0.0194 H   0  0  0  0  0  0  0  0  0  0  0  0
   -1.8030    0.1216   -1.3950 H   0  0  0  0  0  0  0  0  0  0  0  0
   -1.3758    1.0265    0.5270 C   0  0  0  0  0  0  0  0  0  0  0  0
   -1.6241    0.8096    1.5714 H   0  0  0  0  0  0  0  0  0  0  0  0
   -1.9296    1.9143    0.2060 H   0  0  0  0  0  0  0  0  0  0  0  0
    0.1123    1.1849    0.3637 C   0  0  0  0  0  0  0  0  0  0  0  0
    0.5541    1.7084    1.2184 H   0  0  0  0  0  0  0  0  0  0  0  0
    0.3435    1.7512   -0.5450 H   0  0  0  0  0  0  0  0  0  0  0  0
    0.6161   -0.2533    0.2413 C   0  0  1  0  0  0  0  0  0  0  0  0
    1.2152   -0.2062   -0.6746 H   0  0  0  0  0  0  0  0  0  0  0  0
    1.8001   -0.6302    1.1801 C   0  0  0  0  0  0  0  0  0  0  0  0
    2.7921    0.0903    1.1489 O   0  0  0  0  0  0  0  0  0  0  0  0
    1.7671   -1.6107    2.1521 N   0  0  0  0  0  0  0  0  0  0  0  0
    1.0215   -2.3014    2.0496 H   0  0  0  0  0  0  0  0  0  0  0  0
    2.9079   -1.9516    2.9927 C   0  0  0  0  0  0  0  0  0  0  0  0
    3.2276   -1.0827    3.5773 H   0  0  0  0  0  0  0  0  0  0  0  0
    2.6362   -2.7520    3.6875 H   0  0  0  0  0  0  0  0  0  0  0  0
    3.7476   -2.2938    2.3793 H   0  0  0  0  0  0  0  0  0  0  0  0
  1  2  1  0  0  0  0
  2  3  1  0  0  0  0
  2  4  1  0  0  0  0
  2  5  1  0  0  0  0
  5  6  2  0  0  0  0
  5  7  1  0  0  0  0
  7  8  1  0  0  0  0
  7 17  1  0  0  0  0
  8  9  1  0  0  0  0
  8 10  1  0  0  0  0
  8 11  1  0  0  0  0
 11 12  1  0  0  0  0
 11 13  1  0  0  0  0
 11 14  1  0  0  0  0
 14 15  1  0  0  0  0
 14 16  1  0  0  0  0
 14 17  1  0  0  0  0
 17 18  1  0  0  0  0
 17 19  1  0  0  0  0
 19 20  2  0  0  0  0
 19 21  1  0  0  0  0
 21 22  1  0  0  0  0
 21 23  1  0  0  0  0
 23 24  1  0  0  0  0
 23 25  1  0  0  0  0
 23 26  1  0  0  0  0
M  END
$$$$

  -OEChem-11182114133D

 26 26  0     1  0  0  0  0  0999 V2000
   -1.9681   -4.1542   -0.5016 H   0  0  0  0  0  0  0  0  0  0  0  0
   -2.1428   -3.0757   -0.4494 C   0  0  0  0  0  0  0  0  0  0  0  0
   -3.0296   -2.8953    0.1628 H   0  0  0  0  0  0  0  0  0  0  0  0
   -2.3235   -2.7096   -1.4633 H   0  0  0  0  0  0  0  0  0  0  0  0
   -0.9295   -2.3768    0.1606 C   0  0  0  0  0  0  0  0  0  0  0  0
   -0.2374   -3.0768    0.8770 O   0  0  0  0  0  0  0  0  0  0  0  0
   -0.5253   -1.1079   -0.2737 N   0  0  0  0  0  0  0  0  0  0  0  0
   -1.6769   -0.1925   -0.3345 C   0  0  0  0  0  0  0  0  0  0  0  0
   -2.6240   -0.6256    0.0026 H   0  0  0  0  0  0  0  0  0  0  0  0
   -1.8126    0.1321   -1.3718 H   0  0  0  0  0  0  0  0  0  0  0  0
   -1.3665    1.0197    0.5531 C   0  0  0  0  0  0  0  0  0  0  0  0
   -1.6215    0.8034    1.5959 H   0  0  0  0  0  0  0  0  0  0  0  0
   -1.9013    1.9201    0.2352 H   0  0  0  0  0  0  0  0  0  0  0  0
    0.1244    1.1477    0.3944 C   0  0  0  0  0  0  0  0  0  0  0  0
    0.5695    1.6626    1.2526 H   0  0  0  0  0  0  0  0  0  0  0  0
    0.3697    1.7133   -0.5111 H   0  0  0  0  0  0  0  0  0  0  0  0
    0.6045   -0.3008    0.2670 C   0  0  1  0  0  0  0  0  0  0  0  0
    1.2035   -0.2607   -0.6489 H   0  0  0  0  0  0  0  0  0  0  0  0
    1.7951   -0.6977    1.1939 C   0  0  0  0  0  0  0  0  0  0  0  0
    2.7105    0.1112    1.3030 O   0  0  0  0  0  0  0  0  0  0  0  0
    1.8974   -1.8472    1.9512 N   0  0  0  0  0  0  0  0  0  0  0  0
    1.1718   -2.5511    1.8072 H   0  0  0  0  0  0  0  0  0  0  0  0
    3.0450   -2.1867    2.7828 C   0  0  0  0  0  0  0  0  0  0  0  0
    3.2058   -1.4196    3.5473 H   0  0  0  0  0  0  0  0  0  0  0  0
    2.8737   -3.1435    3.2853 H   0  0  0  0  0  0  0  0  0  0  0  0
    3.9493   -2.2730    2.1716 H   0  0  0  0  0  0  0  0  0  0  0  0
  1  2  1  0  0  0  0
  2  3  1  0  0  0  0
  2  4  1  0  0  0  0
  2  5  1  0  0  0  0
  5  6  2  0  0  0  0
  5  7  1  0  0  0  0
  7  8  1  0  0  0  0
  7 17  1  0  0  0  0
  8  9  1  0  0  0  0
  8 10  1  0  0  0  0
  8 11  1  0  0  0  0
 11 12  1  0  0  0  0
 11 13  1  0  0  0  0
 11 14  1  0  0  0  0
 14 15  1  0  0  0  0
 14 16  1  0  0  0  0
 14 17  1  0  0  0  0
 17 18  1  0  0  0  0
 17 19  1  0  0  0  0
 19 20  2  0  0  0  0
 19 21  1  0  0  0  0
 21 22  1  0  0  0  0
 21 23  1  0  0  0  0
 23 24  1  0  0  0  0
 23 25  1  0  0  0  0
 23 26  1  0  0  0  0
M  END
$$$$

  -OEChem-11182114133D

 26 26  0     1  0  0  0  0  0999 V2000
   -1.9664   -4.1561   -0.5379 H   0  0  0  0  0  0  0  0  0  0  0  0
   -2.1506   -3.0793   -0.4890 C   0  0  0  0  0  0  0  0  0  0  0  0
   -3.0655   -2.9062    0.0825 H   0  0  0  0  0  0  0  0  0  0  0  0
   -2.2874   -2.7076   -1.5077 H   0  0  0  0  0  0  0  0  0  0  0  0
   -0.9716   -2.3768    0.1785 C   0  0  0  0  0  0  0  0  0  0  0  0
   -0.3534   -3.0431    0.9883 O   0  0  0  0  0  0  0  0  0  0  0  0
   -0.5496   -1.1161   -0.2590 N   0  0  0  0  0  0  0  0  0  0  0  0
   -1.6905   -0.1876   -0.2804 C   0  0  0  0  0  0  0  0  0  0  0  0
   -2.6317   -0.6146    0.0826 H   0  0  0  0  0  0  0  0  0  0  0  0
   -1.8537    0.1451   -1.3112 H   0  0  0  0  0  0  0  0  0  0  0  0
   -1.3364    1.0144    0.6033 C   0  0  0  0  0  0  0  0  0  0  0  0
   -1.5640    0.7962    1.6521 H   0  0  0  0  0  0  0  0  0  0  0  0
   -1.8666    1.9244    0.3056 H   0  0  0  0  0  0  0  0  0  0  0  0
    0.1515    1.1209    0.4014 C   0  0  0  0  0  0  0  0  0  0  0  0
    0.6244    1.6286    1.2486 H   0  0  0  0  0  0  0  0  0  0  0  0
    0.3779    1.6875   -0.5082 H   0  0  0  0  0  0  0  0  0  0  0  0
    0.6110   -0.3346    0.2522 C   0  0  1  0  0  0  0  0  0  0  0  0
    1.1881   -0.2953   -0.6773 H   0  0  0  0  0  0  0  0  0  0  0  0
    1.8173   -0.7687    1.1433 C   0  0  0  0  0  0  0  0  0  0  0  0
    2.6644    0.0807    1.3977 O   0  0  0  0  0  0  0  0  0  0  0  0
    2.0463   -2.0313    1.6522 N   0  0  0  0  0  0  0  0  0  0  0  0
    1.3044   -2.7185    1.5111 H   0  0  0  0  0  0  0  0  0  0  0  0
    3.1679   -2.3806    2.5147 C   0  0  0  0  0  0  0  0  0  0  0  0
    3.1342   -1.7991    3.4418 H   0  0  0  0  0  0  0  0  0  0  0  0
    3.1276   -3.4437    2.7704 H   0  0  0  0  0  0  0  0  0  0  0  0
    4.1179   -2.1837    2.0072 H   0  0  0  0  0  0  0  0  0  0  0  0
  1  2  1  0  0  0  0
  2  3  1  0  0  0  0
  2  4  1  0  0  0  0
  2  5  1  0  0  0  0
  5  6  2  0  0  0  0
  5  7  1  0  0  0  0
  7  8  1  0  0  0  0
  7 17  1  0  0  0  0
  8  9  1  0  0  0  0
  8 10  1  0  0  0  0
  8 11  1  0  0  0  0
 11 12  1  0  0  0  0
 11 13  1  0  0  0  0
 11 14  1  0  0  0  0
 14 15  1  0  0  0  0
 14 16  1  0  0  0  0
 14 17  1  0  0  0  0
 17 18  1  0  0  0  0
 17 19  1  0  0  0  0
 19 20  2  0  0  0  0
 19 21  1  0  0  0  0
 21 22  1  0  0  0  0
 21 23  1  0  0  0  0
 23 24  1  0  0  0  0
 23 25  1  0  0  0  0
 23 26  1  0  0  0  0
M  END
$$$$

  -OEChem-11182114133D

 26 26  0     1  0  0  0  0  0999 V2000
   -1.9460   -4.1589   -0.5193 H   0  0  0  0  0  0  0  0  0  0  0  0
   -2.1407   -3.0847   -0.4541 C   0  0  0  0  0  0  0  0  0  0  0  0
   -3.0419   -2.9269    0.1432 H   0  0  0  0  0  0  0  0  0  0  0  0
   -2.3087   -2.7036   -1.4646 H   0  0  0  0  0  0  0  0  0  0  0  0
   -0.9524   -2.3769    0.1903 C   0  0  0  0  0  0  0  0  0  0  0  0
   -0.3181   -3.0351    0.9949 O   0  0  0  0  0  0  0  0  0  0  0  0
   -0.5429   -1.1157   -0.2572 N   0  0  0  0  0  0  0  0  0  0  0  0
   -1.6839   -0.1876   -0.2507 C   0  0  0  0  0  0  0  0  0  0  0  0
   -2.6179   -0.6176    0.1272 H   0  0  0  0  0  0  0  0  0  0  0  0
   -1.8665    0.1522   -1.2758 H   0  0  0  0  0  0  0  0  0  0  0  0
   -1.3113    1.0082    0.6337 C   0  0  0  0  0  0  0  0  0  0  0  0
   -1.5193    0.7836    1.6852 H   0  0  0  0  0  0  0  0  0  0  0  0
   -1.8462    1.9205    0.3521 H   0  0  0  0  0  0  0  0  0  0  0  0
    0.1731    1.1149    0.4049 C   0  0  0  0  0  0  0  0  0  0  0  0
    0.6594    1.6215    1.2449 H   0  0  0  0  0  0  0  0  0  0  0  0
    0.3817    1.6860   -0.5060 H   0  0  0  0  0  0  0  0  0  0  0  0
    0.6290   -0.3414    0.2376 C   0  0  1  0  0  0  0  0  0  0  0  0
    1.1950   -0.2921   -0.6980 H   0  0  0  0  0  0  0  0  0  0  0  0
    1.8383   -0.8105    1.1065 C   0  0  0  0  0  0  0  0  0  0  0  0
    2.5961    0.0447    1.5517 O   0  0  0  0  0  0  0  0  0  0  0  0
    2.1891   -2.1264    1.3379 N   0  0  0  0  0  0  0  0  0  0  0  0
    1.4629   -2.8144    1.1317 H   0  0  0  0  0  0  0  0  0  0  0  0
    3.2905   -2.5307    2.2030 C   0  0  0  0  0  0  0  0  0  0  0  0
    3.1210   -2.1820    3.2269 H   0  0  0  0  0  0  0  0  0  0  0  0
    3.3755   -3.6214    2.2173 H   0  0  0  0  0  0  0  0  0  0  0  0
    4.2371   -2.1168    1.8400 H   0  0  0  0  0  0  0  0  0  0  0  0
  1  2  1  0  0  0  0
  2  3  1  0  0  0  0
  2  4  1  0  0  0  0
  2  5  1  0  0  0  0
  5  6  2  0  0  0  0
  5  7  1  0  0  0  0
  7  8  1  0  0  0  0
  7 17  1  0  0  0  0
  8  9  1  0  0  0  0
  8 10  1  0  0  0  0
  8 11  1  0  0  0  0
 11 12  1  0  0  0  0
 11 13  1  0  0  0  0
 11 14  1  0  0  0  0
 14 15  1  0  0  0  0
 14 16  1  0  0  0  0
 14 17  1  0  0  0  0
 17 18  1  0  0  0  0
 17 19  1  0  0  0  0
 19 20  2  0  0  0  0
 19 21  1  0  0  0  0
 21 22  1  0  0  0  0
 21 23  1  0  0  0  0
 23 24  1  0  0  0  0
 23 25  1  0  0  0  0
 23 26  1  0  0  0  0
M  END
$$$$

  -OEChem-11182114133D

 26 26  0     1  0  0  0  0  0999 V2000
   -1.9350   -4.1736   -0.4397 H   0  0  0  0  0  0  0  0  0  0  0  0
   -2.1188   -3.0968   -0.3834 C   0  0  0  0  0  0  0  0  0  0  0  0
   -2.9873   -2.9240    0.2566 H   0  0  0  0  0  0  0  0  0  0  0  0
   -2.3355   -2.7323   -1.3908 H   0  0  0  0  0  0  0  0  0  0  0  0
   -0.8944   -2.3857    0.1871 C   0  0  0  0  0  0  0  0  0  0  0  0
   -0.1855   -3.0608    0.9122 O   0  0  0  0  0  0  0  0  0  0  0  0
   -0.5144   -1.1179   -0.2709 N   0  0  0  0  0  0  0  0  0  0  0  0
   -1.6637   -0.1998   -0.2508 C   0  0  0  0  0  0  0  0  0  0  0  0
   -2.5932   -0.6392    0.1258 H   0  0  0  0  0  0  0  0  0  0  0  0
   -1.8528    0.1488   -1.2719 H   0  0  0  0  0  0  0  0  0  0  0  0
   -1.2978    0.9908    0.6442 C   0  0  0  0  0  0  0  0  0  0  0  0
   -1.4977    0.7528    1.6944 H   0  0  0  0  0  0  0  0  0  0  0  0
   -1.8432    1.9008    0.3754 H   0  0  0  0  0  0  0  0  0  0  0  0
    0.1842    1.1148    0.4093 C   0  0  0  0  0  0  0  0  0  0  0  0
    0.6699    1.6203    1.2498 H   0  0  0  0  0  0  0  0  0  0  0  0
    0.3815    1.6954   -0.4983 H   0  0  0  0  0  0  0  0  0  0  0  0
    0.6506   -0.3362    0.2253 C   0  0  1  0  0  0  0  0  0  0  0  0
    1.2189   -0.2678   -0.7075 H   0  0  0  0  0  0  0  0  0  0  0  0
    1.8497   -0.8320    1.0909 C   0  0  0  0  0  0  0  0  0  0  0  0
    2.4871   -0.0137    1.7447 O   0  0  0  0  0  0  0  0  0  0  0  0
    2.3397   -2.1237    1.0474 N   0  0  0  0  0  0  0  0  0  0  0  0
    1.6577   -2.8181    0.7368 H   0  0  0  0  0  0  0  0  0  0  0  0
    3.4342   -2.5866    1.8918 C   0  0  0  0  0  0  0  0  0  0  0  0
    3.1762   -2.4731    2.9497 H   0  0  0  0  0  0  0  0  0  0  0  0
    3.6390   -3.6432    1.6951 H   0  0  0  0  0  0  0  0  0  0  0  0
    4.3458   -2.0158    1.6867 H   0  0  0  0  0  0  0  0  0  0  0  0
  1  2  1  0  0  0  0
  2  3  1  0  0  0  0
  2  4  1  0  0  0  0
  2  5  1  0  0  0  0
  5  6  2  0  0  0  0
  5  7  1  0  0  0  0
  7  8  1  0  0  0  0
  7 17  1  0  0  0  0
  8  9  1  0  0  0  0
  8 10  1  0  0  0  0
  8 11  1  0  0  0  0
 11 12  1  0  0  0  0
 11 13  1  0  0  0  0
 11 14  1  0  0  0  0
 14 15  1  0  0  0  0
 14 16  1  0  0  0  0
 14 17  1  0  0  0  0
 17 18  1  0  0  0  0
 17 19  1  0  0  0  0
 19 20  2  0  0  0  0
 19 21  1  0  0  0  0
 21 22  1  0  0  0  0
 21 23  1  0  0  0  0
 23 24  1  0  0  0  0
 23 25  1  0  0  0  0
 23 26  1  0  0  0  0
M  END
$$$$

  -OEChem-11182114133D

 26 26  0     1  0  0  0  0  0999 V2000
   -1.9249   -4.1811   -0.3465 H   0  0  0  0  0  0  0  0  0  0  0  0
   -2.0959   -3.1026   -0.2821 C   0  0  0  0  0  0  0  0  0  0  0  0
   -2.8973   -2.9196    0.4378 H   0  0  0  0  0  0  0  0  0  0  0  0
   -2.4070   -2.7462   -1.2673 H   0  0  0  0  0  0  0  0  0  0  0  0
   -0.8179   -2.3940    0.1617 C   0  0  0  0  0  0  0  0  0  0  0  0
   -0.0120   -3.0968    0.7468 O   0  0  0  0  0  0  0  0  0  0  0  0
   -0.4768   -1.1163   -0.3038 N   0  0  0  0  0  0  0  0  0  0  0  0
   -1.6355   -0.2091   -0.2692 C   0  0  0  0  0  0  0  0  0  0  0  0
   -2.5631   -0.6601    0.0957 H   0  0  0  0  0  0  0  0  0  0  0  0
   -1.8240    0.1557   -1.2847 H   0  0  0  0  0  0  0  0  0  0  0  0
   -1.2835    0.9696    0.6491 C   0  0  0  0  0  0  0  0  0  0  0  0
   -1.4799    0.7101    1.6949 H   0  0  0  0  0  0  0  0  0  0  0  0
   -1.8393    1.8782    0.3969 H   0  0  0  0  0  0  0  0  0  0  0  0
    0.1968    1.1157    0.4174 C   0  0  0  0  0  0  0  0  0  0  0  0
    0.6801    1.6104    1.2658 H   0  0  0  0  0  0  0  0  0  0  0  0
    0.3860    1.7145   -0.4800 H   0  0  0  0  0  0  0  0  0  0  0  0
    0.6745   -0.3267    0.2069 C   0  0  1  0  0  0  0  0  0  0  0  0
    1.2504   -0.2302   -0.7187 H   0  0  0  0  0  0  0  0  0  0  0  0
    1.8548   -0.8538    1.0748 C   0  0  0  0  0  0  0  0  0  0  0  0
    2.3380   -0.1329    1.9406 O   0  0  0  0  0  0  0  0  0  0  0  0
    2.5037   -2.0393    0.7816 N   0  0  0  0  0  0  0  0  0  0  0  0
    1.9029   -2.7234    0.3195 H   0  0  0  0  0  0  0  0  0  0  0  0
    3.5905   -2.5587    1.6027 C   0  0  0  0  0  0  0  0  0  0  0  0
    3.2418   -2.7488    2.6232 H   0  0  0  0  0  0  0  0  0  0  0  0
    3.9639   -3.4970    1.1818 H   0  0  0  0  0  0  0  0  0  0  0  0
    4.4203   -1.8453    1.6401 H   0  0  0  0  0  0  0  0  0  0  0  0
  1  2  1  0  0  0  0
  2  3  1  0  0  0  0
  2  4  1  0  0  0  0
  2  5  1  0  0  0  0
  5  6  2  0  0  0  0
  5  7  1  0  0  0  0
  7  8  1  0  0  0  0
  7 17  1  0  0  0  0
  8  9  1  0  0  0  0
  8 10  1  0  0  0  0
  8 11  1  0  0  0  0
 11 12  1  0  0  0  0
 11 13  1  0  0  0  0
 11 14  1  0  0  0  0
 14 15  1  0  0  0  0
 14 16  1  0  0  0  0
 14 17  1  0  0  0  0
 17 18  1  0  0  0  0
 17 19  1  0  0  0  0
 19 20  2  0  0  0  0
 19 21  1  0  0  0  0
 21 22  1  0  0  0  0
 21 23  1  0  0  0  0
 23 24  1  0  0  0  0
 23 25  1  0  0  0  0
 23 26  1  0  0  0  0
M  END
$$$$

  -OEChem-11182114133D

 26 26  0     1  0  0  0  0  0999 V2000
   -1.8998   -4.1898   -0.2169 H   0  0  0  0  0  0  0  0  0  0  0  0
   -2.0559   -3.1076   -0.1841 C   0  0  0  0  0  0  0  0  0  0  0  0
   -2.7954   -2.8884    0.5899 H   0  0  0  0  0  0  0  0  0  0  0  0
   -2.4417   -2.7887   -1.1556 H   0  0  0  0  0  0  0  0  0  0  0  0
   -0.7411   -2.3942    0.1267 C   0  0  0  0  0  0  0  0  0  0  0  0
    0.1381   -3.1094    0.5781 O   0  0  0  0  0  0  0  0  0  0  0  0
   -0.4407   -1.1100   -0.3533 N   0  0  0  0  0  0  0  0  0  0  0  0
   -1.6085   -0.2150   -0.2907 C   0  0  0  0  0  0  0  0  0  0  0  0
   -2.5345   -0.6802    0.0580 H   0  0  0  0  0  0  0  0  0  0  0  0
   -1.7995    0.1770   -1.2955 H   0  0  0  0  0  0  0  0  0  0  0  0
   -1.2687    0.9424    0.6604 C   0  0  0  0  0  0  0  0  0  0  0  0
   -1.4553    0.6497    1.6992 H   0  0  0  0  0  0  0  0  0  0  0  0
   -1.8395    1.8491    0.4374 H   0  0  0  0  0  0  0  0  0  0  0  0
    0.2078    1.1160    0.4239 C   0  0  0  0  0  0  0  0  0  0  0  0
    0.6954    1.5904    1.2818 H   0  0  0  0  0  0  0  0  0  0  0  0
    0.3826    1.7416   -0.4580 H   0  0  0  0  0  0  0  0  0  0  0  0
    0.6970   -0.3136    0.1708 C   0  0  1  0  0  0  0  0  0  0  0  0
    1.2780   -0.1815   -0.7475 H   0  0  0  0  0  0  0  0  0  0  0  0
    1.8537   -0.8753    1.0424 C   0  0  0  0  0  0  0  0  0  0  0  0
    2.1642   -0.3069    2.0832 O   0  0  0  0  0  0  0  0  0  0  0  0
    2.6730   -1.8830    0.5651 N   0  0  0  0  0  0  0  0  0  0  0  0
    2.2049   -2.5077   -0.0898 H   0  0  0  0  0  0  0  0  0  0  0  0
    3.7473   -2.4516    1.3694 C   0  0  0  0  0  0  0  0  0  0  0  0
    3.3422   -2.9152    2.2749 H   0  0  0  0  0  0  0  0  0  0  0  0
    4.2816   -3.2152    0.7963 H   0  0  0  0  0  0  0  0  0  0  0  0
    4.4639   -1.6760    1.6597 H   0  0  0  0  0  0  0  0  0  0  0  0
  1  2  1  0  0  0  0
  2  3  1  0  0  0  0
  2  4  1  0  0  0  0
  2  5  1  0  0  0  0
  5  6  2  0  0  0  0
  5  7  1  0  0  0  0
  7  8  1  0  0  0  0
  7 17  1  0  0  0  0
  8  9  1  0  0  0  0
  8 10  1  0  0  0  0
  8 11  1  0  0  0  0
 11 12  1  0  0  0  0
 11 13  1  0  0  0  0
 11 14  1  0  0  0  0
 14 15  1  0  0  0  0
 14 16  1  0  0  0  0
 14 17  1  0  0  0  0
 17 18  1  0  0  0  0
 17 19  1  0  0  0  0
 19 20  2  0  0  0  0
 19 21  1  0  0  0  0
 21 22  1  0  0  0  0
 21 23  1  0  0  0  0
 23 24  1  0  0  0  0
 23 25  1  0  0  0  0
 23 26  1  0  0  0  0
M  END
$$$$

  -OEChem-11182114133D

 26 26  0     1  0  0  0  0  0999 V2000
   -1.8657   -4.1938   -0.0897 H   0  0  0  0  0  0  0  0  0  0  0  0
   -2.0110   -3.1096   -0.1016 C   0  0  0  0  0  0  0  0  0  0  0  0
   -2.6801   -2.8435    0.7202 H   0  0  0  0  0  0  0  0  0  0  0  0
   -2.4757   -2.8376   -1.0526 H   0  0  0  0  0  0  0  0  0  0  0  0
   -0.6699   -2.3948    0.0590 C   0  0  0  0  0  0  0  0  0  0  0  0
    0.2633   -3.1202    0.3665 O   0  0  0  0  0  0  0  0  0  0  0  0
   -0.4109   -1.0996   -0.4198 N   0  0  0  0  0  0  0  0  0  0  0  0
   -1.5880   -0.2186   -0.3250 C   0  0  0  0  0  0  0  0  0  0  0  0
   -2.5148   -0.7012   -0.0064 H   0  0  0  0  0  0  0  0  0  0  0  0
   -1.7745    0.2123   -1.3147 H   0  0  0  0  0  0  0  0  0  0  0  0
   -1.2641    0.9066    0.6724 C   0  0  0  0  0  0  0  0  0  0  0  0
   -1.4435    0.5703    1.6992 H   0  0  0  0  0  0  0  0  0  0  0  0
   -1.8480    1.8135    0.4865 H   0  0  0  0  0  0  0  0  0  0  0  0
    0.2088    1.1097    0.4384 C   0  0  0  0  0  0  0  0  0  0  0  0
    0.6975    1.5512    1.3133 H   0  0  0  0  0  0  0  0  0  0  0  0
    0.3720    1.7723   -0.4182 H   0  0  0  0  0  0  0  0  0  0  0  0
    0.7114   -0.3019    0.1296 C   0  0  1  0  0  0  0  0  0  0  0  0
    1.2955   -0.1265   -0.7791 H   0  0  0  0  0  0  0  0  0  0  0  0
    1.8502   -0.8953    0.9997 C   0  0  0  0  0  0  0  0  0  0  0  0
    1.9690   -0.5370    2.1660 O   0  0  0  0  0  0  0  0  0  0  0  0
    2.8517   -1.6573    0.4229 N   0  0  0  0  0  0  0  0  0  0  0  0
    2.5768   -2.1304   -0.4342 H   0  0  0  0  0  0  0  0  0  0  0  0
    3.9091   -2.2702    1.2171 C   0  0  0  0  0  0  0  0  0  0  0  0
    3.4844   -2.9745    1.9400 H   0  0  0  0  0  0  0  0  0  0  0  0
    4.6018   -2.8135    0.5676 H   0  0  0  0  0  0  0  0  0  0  0  0
    4.4753   -1.5062    1.7599 H   0  0  0  0  0  0  0  0  0  0  0  0
  1  2  1  0  0  0  0
  2  3  1  0  0  0  0
  2  4  1  0  0  0  0
  2  5  1  0  0  0  0
  5  6  2  0  0  0  0
  5  7  1  0  0  0  0
  7  8  1  0  0  0  0
  7 17  1  0  0  0  0
  8  9  1  0  0  0  0
  8 10  1  0  0  0  0
  8 11  1  0  0  0  0
 11 12  1  0  0  0  0
 11 13  1  0  0  0  0
 11 14  1  0  0  0  0
 14 15  1  0  0  0  0
 14 16  1  0  0  0  0
 14 17  1  0  0  0  0
 17 18  1  0  0  0  0
 17 19  1  0  0  0  0
 19 20  2  0  0  0  0
 19 21  1  0  0  0  0
 21 22  1  0  0  0  0
 21 23  1  0  0  0  0
 23 24  1  0  0  0  0
 23 25  1  0  0  0  0
 23 26  1  0  0  0  0
M  END
$$$$

  -OEChem-11182114133D

 26 26  0     1  0  0  0  0  0999 V2000
   -1.8362   -4.1885   -0.0052 H   0  0  0  0  0  0  0  0  0  0  0  0
   -1.9762   -3.1044   -0.0506 C   0  0  0  0  0  0  0  0  0  0  0  0
   -2.5797   -2.8007    0.8081 H   0  0  0  0  0  0  0  0  0  0  0  0
   -2.5090   -2.8673   -0.9748 H   0  0  0  0  0  0  0  0  0  0  0  0
   -0.6227   -2.3949   -0.0213 C   0  0  0  0  0  0  0  0  0  0  0  0
    0.3381   -3.1300    0.1532 O   0  0  0  0  0  0  0  0  0  0  0  0
   -0.3942   -1.0883   -0.4859 N   0  0  0  0  0  0  0  0  0  0  0  0
   -1.5755   -0.2179   -0.3541 C   0  0  0  0  0  0  0  0  0  0  0  0
   -2.5040   -0.7148   -0.0663 H   0  0  0  0  0  0  0  0  0  0  0  0
   -1.7582    0.2551   -1.3250 H   0  0  0  0  0  0  0  0  0  0  0  0
   -1.2599    0.8678    0.6902 C   0  0  0  0  0  0  0  0  0  0  0  0
   -1.4317    0.4862    1.7025 H   0  0  0  0  0  0  0  0  0  0  0  0
   -1.8535    1.7755    0.5448 H   0  0  0  0  0  0  0  0  0  0  0  0
    0.2104    1.0930    0.4573 C   0  0  0  0  0  0  0  0  0  0  0  0
    0.7029    1.4965    1.3485 H   0  0  0  0  0  0  0  0  0  0  0  0
    0.3650    1.7923   -0.3714 H   0  0  0  0  0  0  0  0  0  0  0  0
    0.7196   -0.2999    0.0888 C   0  0  1  0  0  0  0  0  0  0  0  0
    1.3007   -0.0863   -0.8133 H   0  0  0  0  0  0  0  0  0  0  0  0
    1.8493   -0.9224    0.9477 C   0  0  0  0  0  0  0  0  0  0  0  0
    1.8085   -0.7950    2.1662 O   0  0  0  0  0  0  0  0  0  0  0  0
    3.0067   -1.4003    0.3572 N   0  0  0  0  0  0  0  0  0  0  0  0
    2.9153   -1.6733   -0.6171 H   0  0  0  0  0  0  0  0  0  0  0  0
    4.0754   -2.0130    1.1362 C   0  0  0  0  0  0  0  0  0  0  0  0
    3.7028   -2.8953    1.6675 H   0  0  0  0  0  0  0  0  0  0  0  0
    4.8927   -2.3225    0.4779 H   0  0  0  0  0  0  0  0  0  0  0  0
    4.4741   -1.3024    1.8678 H   0  0  0  0  0  0  0  0  0  0  0  0
  1  2  1  0  0  0  0
  2  3  1  0  0  0  0
  2  4  1  0  0  0  0
  2  5  1  0  0  0  0
  5  6  2  0  0  0  0
  5  7  1  0  0  0  0
  7  8  1  0  0  0  0
  7 17  1  0  0  0  0
  8  9  1  0  0  0  0
  8 10  1  0  0  0  0
  8 11  1  0  0  0  0
 11 12  1  0  0  0  0
 11 13  1  0  0  0  0
 11 14  1  0  0  0  0
 14 15  1  0  0  0  0
 14 16  1  0  0  0  0
 14 17  1  0  0  0  0
 17 18  1  0  0  0  0
 17 19  1  0  0  0  0
 19 20  2  0  0  0  0
 19 21  1  0  0  0  0
 21 22  1  0  0  0  0
 21 23  1  0  0  0  0
 23 24  1  0  0  0  0
 23 25  1  0  0  0  0
 23 26  1  0  0  0  0
M  END
$$$$

  -OEChem-11182114133D

 26 26  0     1  0  0  0  0  0999 V2000
   -1.2784   -3.9025    0.7336 H   0  0  0  0  0  0  0  0  0  0  0  0
   -1.5725   -2.9035    0.3996 C   0  0  0  0  0  0  0  0  0  0  0  0
   -1.7458   -2.2870    1.2847 H   0  0  0  0  0  0  0  0  0  0  0  0
   -2.4976   -2.9893   -0.1750 H   0  0  0  0  0  0  0  0  0  0  0  0
   -0.4647   -2.2979   -0.4599 C   0  0  0  0  0  0  0  0  0  0  0  0
    0.4296   -3.0453   -0.8317 O   0  0  0  0  0  0  0  0  0  0  0  0
   -0.3219   -0.9501   -0.8132 N   0  0  0  0  0  0  0  0  0  0  0  0
   -1.5534   -0.1736   -0.6196 C   0  0  0  0  0  0  0  0  0  0  0  0
   -2.4677   -0.7672   -0.5381 H   0  0  0  0  0  0  0  0  0  0  0  0
   -1.6849    0.4653   -1.4997 H   0  0  0  0  0  0  0  0  0  0  0  0
   -1.3733    0.7224    0.6210 C   0  0  0  0  0  0  0  0  0  0  0  0
   -1.5838    0.1622    1.5378 H   0  0  0  0  0  0  0  0  0  0  0  0
   -2.0090    1.6127    0.5921 H   0  0  0  0  0  0  0  0  0  0  0  0
    0.0954    1.0534    0.5277 C   0  0  0  0  0  0  0  0  0  0  0  0
    0.5150    1.3131    1.5055 H   0  0  0  0  0  0  0  0  0  0  0  0
    0.2556    1.8941   -0.1559 H   0  0  0  0  0  0  0  0  0  0  0  0
    0.7058   -0.2262   -0.0422 C   0  0  1  0  0  0  0  0  0  0  0  0
    1.3561    0.1555   -0.8353 H   0  0  0  0  0  0  0  0  0  0  0  0
    1.7420   -0.9954    0.8130 C   0  0  0  0  0  0  0  0  0  0  0  0
    1.4301   -1.3344    1.9488 O   0  0  0  0  0  0  0  0  0  0  0  0
    3.0538   -1.1341    0.3952 N   0  0  0  0  0  0  0  0  0  0  0  0
    3.2230   -0.9943   -0.5968 H   0  0  0  0  0  0  0  0  0  0  0  0
    4.0367   -1.8956    1.1560 C   0  0  0  0  0  0  0  0  0  0  0  0
    3.7318   -2.9448    1.2306 H   0  0  0  0  0  0  0  0  0  0  0  0
    5.0125   -1.8507    0.6630 H   0  0  0  0  0  0  0  0  0  0  0  0
    4.1436   -1.4862    2.1662 H   0  0  0  0  0  0  0  0  0  0  0  0
  1  2  1  0  0  0  0
  2  3  1  0  0  0  0
  2  4  1  0  0  0  0
  2  5  1  0  0  0  0
  5  6  2  0  0  0  0
  5  7  1  0  0  0  0
  7  8  1  0  0  0  0
  7 17  1  0  0  0  0
  8  9  1  0  0  0  0
  8 10  1  0  0  0  0
  8 11  1  0  0  0  0
 11 12  1  0  0  0  0
 11 13  1  0  0  0  0
 11 14  1  0  0  0  0
 14 15  1  0  0  0  0
 14 16  1  0  0  0  0
 14 17  1  0  0  0  0
 17 18  1  0  0  0  0
 17 19  1  0  0  0  0
 19 20  2  0  0  0  0
 19 21  1  0  0  0  0
 21 22  1  0  0  0  0
 21 23  1  0  0  0  0
 23 24  1  0  0  0  0
 23 25  1  0  0  0  0
 23 26  1  0  0  0  0
M  END
$$$$

  -OEChem-11182114133D

 26 26  0     1  0  0  0  0  0999 V2000
   -1.1934   -3.8995    0.7138 H   0  0  0  0  0  0  0  0  0  0  0  0
   -1.5151   -2.9008    0.4047 C   0  0  0  0  0  0  0  0  0  0  0  0
   -1.6275   -2.2882    1.3019 H   0  0  0  0  0  0  0  0  0  0  0  0
   -2.4782   -2.9886   -0.1029 H   0  0  0  0  0  0  0  0  0  0  0  0
   -0.4729   -2.2884   -0.5287 C   0  0  0  0  0  0  0  0  0  0  0  0
    0.3878   -3.0311   -0.9802 O   0  0  0  0  0  0  0  0  0  0  0  0
   -0.3380   -0.9341   -0.8569 N   0  0  0  0  0  0  0  0  0  0  0  0
   -1.5683   -0.1686   -0.6174 C   0  0  0  0  0  0  0  0  0  0  0  0
   -2.4757   -0.7719   -0.5259 H   0  0  0  0  0  0  0  0  0  0  0  0
   -1.7254    0.4879   -1.4800 H   0  0  0  0  0  0  0  0  0  0  0  0
   -1.3633    0.7010    0.6378 C   0  0  0  0  0  0  0  0  0  0  0  0
   -1.5523    0.1217    1.5473 H   0  0  0  0  0  0  0  0  0  0  0  0
   -2.0021    1.5896    0.6418 H   0  0  0  0  0  0  0  0  0  0  0  0
    0.1019    1.0393    0.5197 C   0  0  0  0  0  0  0  0  0  0  0  0
    0.5421    1.2773    1.4939 H   0  0  0  0  0  0  0  0  0  0  0  0
    0.2446    1.8960   -0.1476 H   0  0  0  0  0  0  0  0  0  0  0  0
    0.7037   -0.2242   -0.0917 C   0  0  1  0  0  0  0  0  0  0  0  0
    1.3346    0.1719   -0.8932 H   0  0  0  0  0  0  0  0  0  0  0  0
    1.7601   -1.0028    0.7303 C   0  0  0  0  0  0  0  0  0  0  0  0
    1.4130   -1.5344    1.7791 O   0  0  0  0  0  0  0  0  0  0  0  0
    3.1112   -0.8765    0.4579 N   0  0  0  0  0  0  0  0  0  0  0  0
    3.3602   -0.5186   -0.4594 H   0  0  0  0  0  0  0  0  0  0  0  0
    4.1350   -1.5681    1.2317 C   0  0  0  0  0  0  0  0  0  0  0  0
    3.9868   -2.6519    1.1797 H   0  0  0  0  0  0  0  0  0  0  0  0
    5.1286   -1.3343    0.8379 H   0  0  0  0  0  0  0  0  0  0  0  0
    4.0991   -1.2572    2.2811 H   0  0  0  0  0  0  0  0  0  0  0  0
  1  2  1  0  0  0  0
  2  3  1  0  0  0  0
  2  4  1  0  0  0  0
  2  5  1  0  0  0  0
  5  6  2  0  0  0  0
  5  7  1  0  0  0  0
  7  8  1  0  0  0  0
  7 17  1  0  0  0  0
  8  9  1  0  0  0  0
  8 10  1  0  0  0  0
  8 11  1  0  0  0  0
 11 12  1  0  0  0  0
 11 13  1  0  0  0  0
 11 14  1  0  0  0  0
 14 15  1  0  0  0  0
 14 16  1  0  0  0  0
 14 17  1  0  0  0  0
 17 18  1  0  0  0  0
 17 19  1  0  0  0  0
 19 20  2  0  0  0  0
 19 21  1  0  0  0  0
 21 22  1  0  0  0  0
 21 23  1  0  0  0  0
 23 24  1  0  0  0  0
 23 25  1  0  0  0  0
 23 26  1  0  0  0  0
M  END
$$$$

  -OEChem-11182114133D

 26 26  0     1  0  0  0  0  0999 V2000
   -1.1524   -3.9105    0.6885 H   0  0  0  0  0  0  0  0  0  0  0  0
   -1.4847   -2.9075    0.4064 C   0  0  0  0  0  0  0  0  0  0  0  0
   -1.5522   -2.3053    1.3149 H   0  0  0  0  0  0  0  0  0  0  0  0
   -2.4710   -2.9863   -0.0559 H   0  0  0  0  0  0  0  0  0  0  0  0
   -0.4846   -2.2882   -0.5677 C   0  0  0  0  0  0  0  0  0  0  0  0
    0.3415   -3.0288   -1.0825 O   0  0  0  0  0  0  0  0  0  0  0  0
   -0.3535   -0.9301   -0.8783 N   0  0  0  0  0  0  0  0  0  0  0  0
   -1.5789   -0.1689   -0.6038 C   0  0  0  0  0  0  0  0  0  0  0  0
   -2.4824   -0.7753   -0.4943 H   0  0  0  0  0  0  0  0  0  0  0  0
   -1.7580    0.4929   -1.4582 H   0  0  0  0  0  0  0  0  0  0  0  0
   -1.3450    0.6922    0.6512 C   0  0  0  0  0  0  0  0  0  0  0  0
   -1.5133    0.1069    1.5611 H   0  0  0  0  0  0  0  0  0  0  0  0
   -1.9846    1.5800    0.6749 H   0  0  0  0  0  0  0  0  0  0  0  0
    0.1169    1.0331    0.5019 C   0  0  0  0  0  0  0  0  0  0  0  0
    0.5782    1.2649    1.4677 H   0  0  0  0  0  0  0  0  0  0  0  0
    0.2435    1.8946   -0.1626 H   0  0  0  0  0  0  0  0  0  0  0  0
    0.7062   -0.2252   -0.1321 C   0  0  1  0  0  0  0  0  0  0  0  0
    1.3148    0.1725   -0.9495 H   0  0  0  0  0  0  0  0  0  0  0  0
    1.7940   -0.9917    0.6614 C   0  0  0  0  0  0  0  0  0  0  0  0
    1.4598   -1.6963    1.6074 O   0  0  0  0  0  0  0  0  0  0  0  0
    3.1232   -0.6162    0.5626 N   0  0  0  0  0  0  0  0  0  0  0  0
    3.3867   -0.0558   -0.2422 H   0  0  0  0  0  0  0  0  0  0  0  0
    4.1802   -1.2291    1.3583 C   0  0  0  0  0  0  0  0  0  0  0  0
    4.2363   -2.3042    1.1568 H   0  0  0  0  0  0  0  0  0  0  0  0
    5.1469   -0.7791    1.1130 H   0  0  0  0  0  0  0  0  0  0  0  0
    3.9928   -1.0797    2.4268 H   0  0  0  0  0  0  0  0  0  0  0  0
  1  2  1  0  0  0  0
  2  3  1  0  0  0  0
  2  4  1  0  0  0  0
  2  5  1  0  0  0  0
  5  6  2  0  0  0  0
  5  7  1  0  0  0  0
  7  8  1  0  0  0  0
  7 17  1  0  0  0  0
  8  9  1  0  0  0  0
  8 10  1  0  0  0  0
  8 11  1  0  0  0  0
 11 12  1  0  0  0  0
 11 13  1  0  0  0  0
 11 14  1  0  0  0  0
 14 15  1  0  0  0  0
 14 16  1  0  0  0  0
 14 17  1  0  0  0  0
 17 18  1  0  0  0  0
 17 19  1  0  0  0  0
 19 20  2  0  0  0  0
 19 21  1  0  0  0  0
 21 22  1  0  0  0  0
 21 23  1  0  0  0  0
 23 24  1  0  0  0  0
 23 25  1  0  0  0  0
 23 26  1  0  0  0  0
M  END
$$$$

  -OEChem-11182114133D

 26 26  0     1  0  0  0  0  0999 V2000
   -1.0699   -3.9028    0.6864 H   0  0  0  0  0  0  0  0  0  0  0  0
   -1.4241   -2.9008    0.4286 C   0  0  0  0  0  0  0  0  0  0  0  0
   -1.4261   -2.2974    1.3388 H   0  0  0  0  0  0  0  0  0  0  0  0
   -2.4415   -2.9808    0.0396 H   0  0  0  0  0  0  0  0  0  0  0  0
   -0.4982   -2.2819   -0.6169 C   0  0  0  0  0  0  0  0  0  0  0  0
    0.2609   -3.0244   -1.2229 O   0  0  0  0  0  0  0  0  0  0  0  0
   -0.3642   -0.9202   -0.9039 N   0  0  0  0  0  0  0  0  0  0  0  0
   -1.5872   -0.1667   -0.5998 C   0  0  0  0  0  0  0  0  0  0  0  0
   -2.4837   -0.7808   -0.4739 H   0  0  0  0  0  0  0  0  0  0  0  0
   -1.7887    0.4982   -1.4465 H   0  0  0  0  0  0  0  0  0  0  0  0
   -1.3321    0.6873    0.6544 C   0  0  0  0  0  0  0  0  0  0  0  0
   -1.4831    0.0969    1.5638 H   0  0  0  0  0  0  0  0  0  0  0  0
   -1.9731    1.5735    0.6947 H   0  0  0  0  0  0  0  0  0  0  0  0
    0.1259    1.0326    0.4809 C   0  0  0  0  0  0  0  0  0  0  0  0
    0.6025    1.2610    1.4400 H   0  0  0  0  0  0  0  0  0  0  0  0
    0.2381    1.8981   -0.1808 H   0  0  0  0  0  0  0  0  0  0  0  0
    0.7096   -0.2198   -0.1715 C   0  0  1  0  0  0  0  0  0  0  0  0
    1.3005    0.1806   -1.0010 H   0  0  0  0  0  0  0  0  0  0  0  0
    1.8287   -0.9665    0.5996 C   0  0  0  0  0  0  0  0  0  0  0  0
    1.5465   -1.8486    1.4018 O   0  0  0  0  0  0  0  0  0  0  0  0
    3.0776   -0.3786    0.7145 N   0  0  0  0  0  0  0  0  0  0  0  0
    3.3030    0.3672    0.0634 H   0  0  0  0  0  0  0  0  0  0  0  0
    4.1437   -0.9237    1.5474 C   0  0  0  0  0  0  0  0  0  0  0  0
    4.3829   -1.9479    1.2421 H   0  0  0  0  0  0  0  0  0  0  0  0
    5.0472   -0.3142    1.4515 H   0  0  0  0  0  0  0  0  0  0  0  0
    3.8429   -0.9310    2.6003 H   0  0  0  0  0  0  0  0  0  0  0  0
  1  2  1  0  0  0  0
  2  3  1  0  0  0  0
  2  4  1  0  0  0  0
  2  5  1  0  0  0  0
  5  6  2  0  0  0  0
  5  7  1  0  0  0  0
  7  8  1  0  0  0  0
  7 17  1  0  0  0  0
  8  9  1  0  0  0  0
  8 10  1  0  0  0  0
  8 11  1  0  0  0  0
 11 12  1  0  0  0  0
 11 13  1  0  0  0  0
 11 14  1  0  0  0  0
 14 15  1  0  0  0  0
 14 16  1  0  0  0  0
 14 17  1  0  0  0  0
 17 18  1  0  0  0  0
 17 19  1  0  0  0  0
 19 20  2  0  0  0  0
 19 21  1  0  0  0  0
 21 22  1  0  0  0  0
 21 23  1  0  0  0  0
 23 24  1  0  0  0  0
 23 25  1  0  0  0  0
 23 26  1  0  0  0  0
M  END
$$$$

  -OEChem-11182114133D

 26 26  0     1  0  0  0  0  0999 V2000
   -0.8638   -3.8520    0.7360 H   0  0  0  0  0  0  0  0  0  0  0  0
   -1.2634   -2.8582    0.5160 C   0  0  0  0  0  0  0  0  0  0  0  0
   -1.1243   -2.2339    1.4007 H   0  0  0  0  0  0  0  0  0  0  0  0
   -2.3295   -2.9493    0.2983 H   0  0  0  0  0  0  0  0  0  0  0  0
   -0.5230   -2.2629   -0.6800 C   0  0  0  0  0  0  0  0  0  0  0  0
    0.0123   -3.0240   -1.4715 O   0  0  0  0  0  0  0  0  0  0  0  0
   -0.3642   -0.8999   -0.9380 N   0  0  0  0  0  0  0  0  0  0  0  0
   -1.5964   -0.1630   -0.6312 C   0  0  0  0  0  0  0  0  0  0  0  0
   -2.4797   -0.7960   -0.4960 H   0  0  0  0  0  0  0  0  0  0  0  0
   -1.8141    0.4953   -1.4791 H   0  0  0  0  0  0  0  0  0  0  0  0
   -1.3496    0.6950    0.6191 C   0  0  0  0  0  0  0  0  0  0  0  0
   -1.4996    0.1070    1.5301 H   0  0  0  0  0  0  0  0  0  0  0  0
   -1.9978    1.5761    0.6549 H   0  0  0  0  0  0  0  0  0  0  0  0
    0.1056    1.0523    0.4489 C   0  0  0  0  0  0  0  0  0  0  0  0
    0.5730    1.2901    1.4101 H   0  0  0  0  0  0  0  0  0  0  0  0
    0.2104    1.9178   -0.2144 H   0  0  0  0  0  0  0  0  0  0  0  0
    0.7068   -0.1950   -0.2019 C   0  0  1  0  0  0  0  0  0  0  0  0
    1.2967    0.2094   -1.0304 H   0  0  0  0  0  0  0  0  0  0  0  0
    1.8434   -0.9128    0.5762 C   0  0  0  0  0  0  0  0  0  0  0  0
    1.6887   -2.0039    1.1072 O   0  0  0  0  0  0  0  0  0  0  0  0
    2.9558   -0.1789    0.9542 N   0  0  0  0  0  0  0  0  0  0  0  0
    3.0796    0.7359    0.5311 H   0  0  0  0  0  0  0  0  0  0  0  0
    4.0279   -0.7158    1.7854 C   0  0  0  0  0  0  0  0  0  0  0  0
    4.4743   -1.5971    1.3128 H   0  0  0  0  0  0  0  0  0  0  0  0
    4.8110    0.0357    1.9244 H   0  0  0  0  0  0  0  0  0  0  0  0
    3.6444   -1.0003    2.7710 H   0  0  0  0  0  0  0  0  0  0  0  0
  1  2  1  0  0  0  0
  2  3  1  0  0  0  0
  2  4  1  0  0  0  0
  2  5  1  0  0  0  0
  5  6  2  0  0  0  0
  5  7  1  0  0  0  0
  7  8  1  0  0  0  0
  7 17  1  0  0  0  0
  8  9  1  0  0  0  0
  8 10  1  0  0  0  0
  8 11  1  0  0  0  0
 11 12  1  0  0  0  0
 11 13  1  0  0  0  0
 11 14  1  0  0  0  0
 14 15  1  0  0  0  0
 14 16  1  0  0  0  0
 14 17  1  0  0  0  0
 17 18  1  0  0  0  0
 17 19  1  0  0  0  0
 19 20  2  0  0  0  0
 19 21  1  0  0  0  0
 21 22  1  0  0  0  0
 21 23  1  0  0  0  0
 23 24  1  0  0  0  0
 23 25  1  0  0  0  0
 23 26  1  0  0  0  0
M  END
$$$$

  -OEChem-11182114133D

 26 26  0     1  0  0  0  0  0999 V2000
    0.0030   -3.5932    0.8784 H   0  0  0  0  0  0  0  0  0  0  0  0
   -0.7698   -2.8346    0.7316 C   0  0  0  0  0  0  0  0  0  0  0  0
   -0.6538   -2.0572    1.4885 H   0  0  0  0  0  0  0  0  0  0  0  0
   -1.7483   -3.3028    0.8670 H   0  0  0  0  0  0  0  0  0  0  0  0
   -0.6651   -2.2576   -0.6782 C   0  0  0  0  0  0  0  0  0  0  0  0
   -1.2545   -2.8716   -1.5581 O   0  0  0  0  0  0  0  0  0  0  0  0
   -0.3163   -0.9315   -0.9590 N   0  0  0  0  0  0  0  0  0  0  0  0
   -1.5586   -0.1479   -0.8680 C   0  0  0  0  0  0  0  0  0  0  0  0
   -2.4757   -0.7491   -0.8180 H   0  0  0  0  0  0  0  0  0  0  0  0
   -1.6377    0.4741   -1.7661 H   0  0  0  0  0  0  0  0  0  0  0  0
   -1.4665    0.7557    0.3783 C   0  0  0  0  0  0  0  0  0  0  0  0
   -1.7570    0.2026    1.2772 H   0  0  0  0  0  0  0  0  0  0  0  0
   -2.0932    1.6488    0.2920 H   0  0  0  0  0  0  0  0  0  0  0  0
    0.0062    1.0800    0.3985 C   0  0  0  0  0  0  0  0  0  0  0  0
    0.3366    1.3432    1.4081 H   0  0  0  0  0  0  0  0  0  0  0  0
    0.2239    1.9189   -0.2722 H   0  0  0  0  0  0  0  0  0  0  0  0
    0.6525   -0.2082   -0.1169 C   0  0  1  0  0  0  0  0  0  0  0  0
    1.2861    0.1941   -0.9144 H   0  0  0  0  0  0  0  0  0  0  0  0
    1.8183   -0.8650    0.6662 C   0  0  0  0  0  0  0  0  0  0  0  0
    2.0888   -2.0513    0.5520 O   0  0  0  0  0  0  0  0  0  0  0  0
    2.6654   -0.0772    1.4272 N   0  0  0  0  0  0  0  0  0  0  0  0
    2.4905    0.9229    1.4446 H   0  0  0  0  0  0  0  0  0  0  0  0
    3.8571   -0.5911    2.0937 C   0  0  0  0  0  0  0  0  0  0  0  0
    4.5692   -0.9813    1.3588 H   0  0  0  0  0  0  0  0  0  0  0  0
    4.3470    0.2064    2.6605 H   0  0  0  0  0  0  0  0  0  0  0  0
    3.5922   -1.3949    2.7889 H   0  0  0  0  0  0  0  0  0  0  0  0
  1  2  1  0  0  0  0
  2  3  1  0  0  0  0
  2  4  1  0  0  0  0
  2  5  1  0  0  0  0
  5  6  2  0  0  0  0
  5  7  1  0  0  0  0
  7  8  1  0  0  0  0
  7 17  1  0  0  0  0
  8  9  1  0  0  0  0
  8 10  1  0  0  0  0
  8 11  1  0  0  0  0
 11 12  1  0  0  0  0
 11 13  1  0  0  0  0
 11 14  1  0  0  0  0
 14 15  1  0  0  0  0
 14 16  1  0  0  0  0
 14 17  1  0  0  0  0
 17 18  1  0  0  0  0
 17 19  1  0  0  0  0
 19 20  2  0  0  0  0
 19 21  1  0  0  0  0
 21 22  1  0  0  0  0
 21 23  1  0  0  0  0
 23 24  1  0  0  0  0
 23 25  1  0  0  0  0
 23 26  1  0  0  0  0
M  END
$$$$

  -OEChem-11182114133D

 26 26  0     1  0  0  0  0  0999 V2000
    0.0247   -3.6005   -0.7090 H   0  0  0  0  0  0  0  0  0  0  0  0
   -0.9350   -3.4033   -0.2250 C   0  0  0  0  0  0  0  0  0  0  0  0
   -1.1034   -4.1623    0.5435 H   0  0  0  0  0  0  0  0  0  0  0  0
   -1.7302   -3.4680   -0.9708 H   0  0  0  0  0  0  0  0  0  0  0  0
   -0.9198   -2.0186    0.3980 C   0  0  0  0  0  0  0  0  0  0  0  0
   -1.1563   -1.8963    1.5970 O   0  0  0  0  0  0  0  0  0  0  0  0
   -0.6609   -0.9092   -0.4118 N   0  0  0  0  0  0  0  0  0  0  0  0
   -1.7743    0.0359   -0.2267 C   0  0  0  0  0  0  0  0  0  0  0  0
   -2.6928   -0.4287    0.1541 H   0  0  0  0  0  0  0  0  0  0  0  0
   -2.0227    0.4652   -1.2031 H   0  0  0  0  0  0  0  0  0  0  0  0
   -1.3173    1.1641    0.7186 C   0  0  0  0  0  0  0  0  0  0  0  0
   -1.4085    0.8493    1.7638 H   0  0  0  0  0  0  0  0  0  0  0  0
   -1.8835    2.0891    0.5730 H   0  0  0  0  0  0  0  0  0  0  0  0
    0.1304    1.2971    0.3229 C   0  0  0  0  0  0  0  0  0  0  0  0
    0.7201    1.7311    1.1351 H   0  0  0  0  0  0  0  0  0  0  0  0
    0.2283    1.9372   -0.5608 H   0  0  0  0  0  0  0  0  0  0  0  0
    0.5341   -0.1440   -0.0078 C   0  0  1  0  0  0  0  0  0  0  0  0
    1.0166   -0.0054   -0.9807 H   0  0  0  0  0  0  0  0  0  0  0  0
    1.7454   -0.8153    0.6958 C   0  0  0  0  0  0  0  0  0  0  0  0
    1.9959   -2.0021    0.5226 O   0  0  0  0  0  0  0  0  0  0  0  0
    2.7002   -0.0424    1.3353 N   0  0  0  0  0  0  0  0  0  0  0  0
    2.4880    0.9394    1.4799 H   0  0  0  0  0  0  0  0  0  0  0  0
    3.9018   -0.5967    1.9482 C   0  0  0  0  0  0  0  0  0  0  0  0
    4.5173   -1.1033    1.1974 H   0  0  0  0  0  0  0  0  0  0  0  0
    4.4983    0.2015    2.4002 H   0  0  0  0  0  0  0  0  0  0  0  0
    3.6362   -1.3156    2.7305 H   0  0  0  0  0  0  0  0  0  0  0  0
  1  2  1  0  0  0  0
  2  3  1  0  0  0  0
  2  4  1  0  0  0  0
  2  5  1  0  0  0  0
  5  6  2  0  0  0  0
  5  7  1  0  0  0  0
  7  8  1  0  0  0  0
  7 17  1  0  0  0  0
  8  9  1  0  0  0  0
  8 10  1  0  0  0  0
  8 11  1  0  0  0  0
 11 12  1  0  0  0  0
 11 13  1  0  0  0  0
 11 14  1  0  0  0  0
 14 15  1  0  0  0  0
 14 16  1  0  0  0  0
 14 17  1  0  0  0  0
 17 18  1  0  0  0  0
 17 19  1  0  0  0  0
 19 20  2  0  0  0  0
 19 21  1  0  0  0  0
 21 22  1  0  0  0  0
 21 23  1  0  0  0  0
 23 24  1  0  0  0  0
 23 25  1  0  0  0  0
 23 26  1  0  0  0  0
M  END
$$$$

  -OEChem-11182114133D

 26 26  0     1  0  0  0  0  0999 V2000
    0.0317   -3.6148   -0.6202 H   0  0  0  0  0  0  0  0  0  0  0  0
   -0.9210   -3.3876   -0.1349 C   0  0  0  0  0  0  0  0  0  0  0  0
   -1.0944   -4.1181    0.6599 H   0  0  0  0  0  0  0  0  0  0  0  0
   -1.7237   -3.4654   -0.8715 H   0  0  0  0  0  0  0  0  0  0  0  0
   -0.8796   -1.9831    0.4400 C   0  0  0  0  0  0  0  0  0  0  0  0
   -1.0462   -1.8210    1.6461 O   0  0  0  0  0  0  0  0  0  0  0  0
   -0.6498   -0.9027   -0.4155 N   0  0  0  0  0  0  0  0  0  0  0  0
   -1.7784    0.0266   -0.2464 C   0  0  0  0  0  0  0  0  0  0  0  0
   -2.6827   -0.4436    0.1609 H   0  0  0  0  0  0  0  0  0  0  0  0
   -2.0461    0.4200   -1.2329 H   0  0  0  0  0  0  0  0  0  0  0  0
   -1.3320    1.1928    0.6581 C   0  0  0  0  0  0  0  0  0  0  0  0
   -1.4046    0.9099    1.7138 H   0  0  0  0  0  0  0  0  0  0  0  0
   -1.9180    2.1018    0.4910 H   0  0  0  0  0  0  0  0  0  0  0  0
    0.1084    1.3410    0.2404 C   0  0  0  0  0  0  0  0  0  0  0  0
    0.7020    1.8153    1.0263 H   0  0  0  0  0  0  0  0  0  0  0  0
    0.1816    1.9527   -0.6657 H   0  0  0  0  0  0  0  0  0  0  0  0
    0.5336   -0.1027   -0.0501 C   0  0  1  0  0  0  0  0  0  0  0  0
    1.0113    0.0163   -1.0281 H   0  0  0  0  0  0  0  0  0  0  0  0
    1.7439   -0.7559    0.6694 C   0  0  0  0  0  0  0  0  0  0  0  0
    2.1037   -1.8870    0.3639 O   0  0  0  0  0  0  0  0  0  0  0  0
    2.5364   -0.0271    1.5394 N   0  0  0  0  0  0  0  0  0  0  0  0
    2.1847    0.8762    1.8396 H   0  0  0  0  0  0  0  0  0  0  0  0
    3.6779   -0.5994    2.2435 C   0  0  0  0  0  0  0  0  0  0  0  0
    4.4237   -0.9672    1.5309 H   0  0  0  0  0  0  0  0  0  0  0  0
    4.1507    0.1580    2.8759 H   0  0  0  0  0  0  0  0  0  0  0  0
    3.3571   -1.4313    2.8794 H   0  0  0  0  0  0  0  0  0  0  0  0
  1  2  1  0  0  0  0
  2  3  1  0  0  0  0
  2  4  1  0  0  0  0
  2  5  1  0  0  0  0
  5  6  2  0  0  0  0
  5  7  1  0  0  0  0
  7  8  1  0  0  0  0
  7 17  1  0  0  0  0
  8  9  1  0  0  0  0
  8 10  1  0  0  0  0
  8 11  1  0  0  0  0
 11 12  1  0  0  0  0
 11 13  1  0  0  0  0
 11 14  1  0  0  0  0
 14 15  1  0  0  0  0
 14 16  1  0  0  0  0
 14 17  1  0  0  0  0
 17 18  1  0  0  0  0
 17 19  1  0  0  0  0
 19 20  2  0  0  0  0
 19 21  1  0  0  0  0
 21 22  1  0  0  0  0
 21 23  1  0  0  0  0
 23 24  1  0  0  0  0
 23 25  1  0  0  0  0
 23 26  1  0  0  0  0
M  END
$$$$

  -OEChem-11182114133D

 26 26  0     1  0  0  0  0  0999 V2000
    0.1034   -3.5992   -0.5001 H   0  0  0  0  0  0  0  0  0  0  0  0
   -0.8730   -3.3675   -0.0669 C   0  0  0  0  0  0  0  0  0  0  0  0
   -1.0791   -4.0767    0.7392 H   0  0  0  0  0  0  0  0  0  0  0  0
   -1.6389   -3.4739   -0.8382 H   0  0  0  0  0  0  0  0  0  0  0  0
   -0.8697   -1.9469    0.4679 C   0  0  0  0  0  0  0  0  0  0  0  0
   -1.0162   -1.7567    1.6724 O   0  0  0  0  0  0  0  0  0  0  0  0
   -0.6515   -0.8884   -0.4171 N   0  0  0  0  0  0  0  0  0  0  0  0
   -1.7844    0.0388   -0.2624 C   0  0  0  0  0  0  0  0  0  0  0  0
   -2.6841   -0.4281    0.1585 H   0  0  0  0  0  0  0  0  0  0  0  0
   -2.0586    0.4107   -1.2553 H   0  0  0  0  0  0  0  0  0  0  0  0
   -1.3407    1.2262    0.6169 C   0  0  0  0  0  0  0  0  0  0  0  0
   -1.4075    0.9654    1.6786 H   0  0  0  0  0  0  0  0  0  0  0  0
   -1.9324    2.1282    0.4328 H   0  0  0  0  0  0  0  0  0  0  0  0
    0.0967    1.3747    0.1896 C   0  0  0  0  0  0  0  0  0  0  0  0
    0.6966    1.8679    0.9594 H   0  0  0  0  0  0  0  0  0  0  0  0
    0.1608    1.9669   -0.7299 H   0  0  0  0  0  0  0  0  0  0  0  0
    0.5257   -0.0718   -0.0731 C   0  0  1  0  0  0  0  0  0  0  0  0
    1.0030    0.0311   -1.0534 H   0  0  0  0  0  0  0  0  0  0  0  0
    1.7298   -0.7140    0.6622 C   0  0  0  0  0  0  0  0  0  0  0  0
    2.2050   -1.7660    0.2506 O   0  0  0  0  0  0  0  0  0  0  0  0
    2.3323   -0.0815    1.7352 N   0  0  0  0  0  0  0  0  0  0  0  0
    1.8300    0.7008    2.1431 H   0  0  0  0  0  0  0  0  0  0  0  0
    3.4110   -0.6890    2.5050 C   0  0  0  0  0  0  0  0  0  0  0  0
    4.2746   -0.8909    1.8625 H   0  0  0  0  0  0  0  0  0  0  0  0
    3.7286   -0.0151    3.3063 H   0  0  0  0  0  0  0  0  0  0  0  0
    3.0778   -1.6305    2.9544 H   0  0  0  0  0  0  0  0  0  0  0  0
  1  2  1  0  0  0  0
  2  3  1  0  0  0  0
  2  4  1  0  0  0  0
  2  5  1  0  0  0  0
  5  6  2  0  0  0  0
  5  7  1  0  0  0  0
  7  8  1  0  0  0  0
  7 17  1  0  0  0  0
  8  9  1  0  0  0  0
  8 10  1  0  0  0  0
  8 11  1  0  0  0  0
 11 12  1  0  0  0  0
 11 13  1  0  0  0  0
 11 14  1  0  0  0  0
 14 15  1  0  0  0  0
 14 16  1  0  0  0  0
 14 17  1  0  0  0  0
 17 18  1  0  0  0  0
 17 19  1  0  0  0  0
 19 20  2  0  0  0  0
 19 21  1  0  0  0  0
 21 22  1  0  0  0  0
 21 23  1  0  0  0  0
 23 24  1  0  0  0  0
 23 25  1  0  0  0  0
 23 26  1  0  0  0  0
M  END
$$$$

  -OEChem-11182114133D

 26 26  0     1  0  0  0  0  0999 V2000
    0.1203   -3.5780   -0.4579 H   0  0  0  0  0  0  0  0  0  0  0  0
   -0.8523   -3.3500   -0.0140 C   0  0  0  0  0  0  0  0  0  0  0  0
   -1.0368   -4.0454    0.8093 H   0  0  0  0  0  0  0  0  0  0  0  0
   -1.6285   -3.4817   -0.7712 H   0  0  0  0  0  0  0  0  0  0  0  0
   -0.8591   -1.9187    0.4908 C   0  0  0  0  0  0  0  0  0  0  0  0
   -0.9885   -1.7055    1.6936 O   0  0  0  0  0  0  0  0  0  0  0  0
   -0.6408   -0.8799   -0.4167 N   0  0  0  0  0  0  0  0  0  0  0  0
   -1.7773    0.0462   -0.2803 C   0  0  0  0  0  0  0  0  0  0  0  0
   -2.6774   -0.4175    0.1437 H   0  0  0  0  0  0  0  0  0  0  0  0
   -2.0483    0.4022   -1.2801 H   0  0  0  0  0  0  0  0  0  0  0  0
   -1.3418    1.2490    0.5837 C   0  0  0  0  0  0  0  0  0  0  0  0
   -1.4103    1.0037    1.6489 H   0  0  0  0  0  0  0  0  0  0  0  0
   -1.9372    2.1454    0.3849 H   0  0  0  0  0  0  0  0  0  0  0  0
    0.0958    1.3979    0.1572 C   0  0  0  0  0  0  0  0  0  0  0  0
    0.6963    1.9007    0.9210 H   0  0  0  0  0  0  0  0  0  0  0  0
    0.1604    1.9777   -0.7703 H   0  0  0  0  0  0  0  0  0  0  0  0
    0.5287   -0.0498   -0.0828 C   0  0  1  0  0  0  0  0  0  0  0  0
    1.0103    0.0408   -1.0624 H   0  0  0  0  0  0  0  0  0  0  0  0
    1.7241   -0.6762    0.6760 C   0  0  0  0  0  0  0  0  0  0  0  0
    2.3319   -1.6196    0.1845 O   0  0  0  0  0  0  0  0  0  0  0  0
    2.1136   -0.1850    1.9087 N   0  0  0  0  0  0  0  0  0  0  0  0
    1.4541    0.4358    2.3687 H   0  0  0  0  0  0  0  0  0  0  0  0
    3.1261   -0.8389    2.7283 C   0  0  0  0  0  0  0  0  0  0  0  0
    4.0771   -0.8998    2.1889 H   0  0  0  0  0  0  0  0  0  0  0  0
    3.2897   -0.2719    3.6497 H   0  0  0  0  0  0  0  0  0  0  0  0
    2.8062   -1.8516    2.9954 H   0  0  0  0  0  0  0  0  0  0  0  0
  1  2  1  0  0  0  0
  2  3  1  0  0  0  0
  2  4  1  0  0  0  0
  2  5  1  0  0  0  0
  5  6  2  0  0  0  0
  5  7  1  0  0  0  0
  7  8  1  0  0  0  0
  7 17  1  0  0  0  0
  8  9  1  0  0  0  0
  8 10  1  0  0  0  0
  8 11  1  0  0  0  0
 11 12  1  0  0  0  0
 11 13  1  0  0  0  0
 11 14  1  0  0  0  0
 14 15  1  0  0  0  0
 14 16  1  0  0  0  0
 14 17  1  0  0  0  0
 17 18  1  0  0  0  0
 17 19  1  0  0  0  0
 19 20  2  0  0  0  0
 19 21  1  0  0  0  0
 21 22  1  0  0  0  0
 21 23  1  0  0  0  0
 23 24  1  0  0  0  0
 23 25  1  0  0  0  0
 23 26  1  0  0  0  0
M  END
$$$$

  -OEChem-11182114133D

 26 26  0     1  0  0  0  0  0999 V2000
    0.1874   -3.5294   -0.3887 H   0  0  0  0  0  0  0  0  0  0  0  0
   -0.8052   -3.3308    0.0241 C   0  0  0  0  0  0  0  0  0  0  0  0
   -0.9867   -4.0182    0.8546 H   0  0  0  0  0  0  0  0  0  0  0  0
   -1.5545   -3.5055   -0.7513 H   0  0  0  0  0  0  0  0  0  0  0  0
   -0.8813   -1.8925    0.5025 C   0  0  0  0  0  0  0  0  0  0  0  0
   -1.0386   -1.6668    1.6999 O   0  0  0  0  0  0  0  0  0  0  0  0
   -0.6489   -0.8638   -0.4128 N   0  0  0  0  0  0  0  0  0  0  0  0
   -1.7801    0.0718   -0.2942 C   0  0  0  0  0  0  0  0  0  0  0  0
   -2.6900   -0.3839    0.1173 H   0  0  0  0  0  0  0  0  0  0  0  0
   -2.0340    0.4271   -1.2987 H   0  0  0  0  0  0  0  0  0  0  0  0
   -1.3482    1.2755    0.5720 C   0  0  0  0  0  0  0  0  0  0  0  0
   -1.4306    1.0355    1.6372 H   0  0  0  0  0  0  0  0  0  0  0  0
   -1.9356    2.1748    0.3627 H   0  0  0  0  0  0  0  0  0  0  0  0
    0.0946    1.4137    0.1596 C   0  0  0  0  0  0  0  0  0  0  0  0
    0.6928    1.9087    0.9310 H   0  0  0  0  0  0  0  0  0  0  0  0
    0.1747    1.9924   -0.7672 H   0  0  0  0  0  0  0  0  0  0  0  0
    0.5194   -0.0365   -0.0707 C   0  0  1  0  0  0  0  0  0  0  0  0
    1.0084    0.0485   -1.0473 H   0  0  0  0  0  0  0  0  0  0  0  0
    1.7014   -0.6599    0.7091 C   0  0  0  0  0  0  0  0  0  0  0  0
    2.4631   -1.4405    0.1515 O   0  0  0  0  0  0  0  0  0  0  0  0
    1.8773   -0.3727    2.0498 N   0  0  0  0  0  0  0  0  0  0  0  0
    1.0719    0.0384    2.5157 H   0  0  0  0  0  0  0  0  0  0  0  0
    2.8593   -1.0662    2.8740 C   0  0  0  0  0  0  0  0  0  0  0  0
    3.8649   -0.9464    2.4572 H   0  0  0  0  0  0  0  0  0  0  0  0
    2.8575   -0.6559    3.8883 H   0  0  0  0  0  0  0  0  0  0  0  0
    2.6259   -2.1346    2.9302 H   0  0  0  0  0  0  0  0  0  0  0  0
  1  2  1  0  0  0  0
  2  3  1  0  0  0  0
  2  4  1  0  0  0  0
  2  5  1  0  0  0  0
  5  6  2  0  0  0  0
  5  7  1  0  0  0  0
  7  8  1  0  0  0  0
  7 17  1  0  0  0  0
  8  9  1  0  0  0  0
  8 10  1  0  0  0  0
  8 11  1  0  0  0  0
 11 12  1  0  0  0  0
 11 13  1  0  0  0  0
 11 14  1  0  0  0  0
 14 15  1  0  0  0  0
 14 16  1  0  0  0  0
 14 17  1  0  0  0  0
 17 18  1  0  0  0  0
 17 19  1  0  0  0  0
 19 20  2  0  0  0  0
 19 21  1  0  0  0  0
 21 22  1  0  0  0  0
 21 23  1  0  0  0  0
 23 24  1  0  0  0  0
 23 25  1  0  0  0  0
 23 26  1  0  0  0  0
M  END
$$$$

  -OEChem-11182114133D

 26 26  0     1  0  0  0  0  0999 V2000
   -1.2122   -4.0300    0.8792 H   0  0  0  0  0  0  0  0  0  0  0  0
   -0.9657   -3.3521    0.0576 C   0  0  0  0  0  0  0  0  0  0  0  0
   -1.7377   -3.4328   -0.7112 H   0  0  0  0  0  0  0  0  0  0  0  0
   -0.0050   -3.6487   -0.3710 H   0  0  0  0  0  0  0  0  0  0  0  0
   -0.8824   -1.9224    0.5592 C   0  0  0  0  0  0  0  0  0  0  0  0
   -0.9553   -1.7039    1.7661 O   0  0  0  0  0  0  0  0  0  0  0  0
   -0.6647   -0.8943   -0.3592 N   0  0  0  0  0  0  0  0  0  0  0  0
   -1.8056    0.0268   -0.2179 C   0  0  0  0  0  0  0  0  0  0  0  0
   -2.6992   -0.4362    0.2203 H   0  0  0  0  0  0  0  0  0  0  0  0
   -2.0902    0.3709   -1.2181 H   0  0  0  0  0  0  0  0  0  0  0  0
   -1.3695    1.2431    0.6283 C   0  0  0  0  0  0  0  0  0  0  0  0
   -1.4182    1.0088    1.6970 H   0  0  0  0  0  0  0  0  0  0  0  0
   -1.9761    2.1320    0.4298 H   0  0  0  0  0  0  0  0  0  0  0  0
    0.0590    1.4006    0.1767 C   0  0  0  0  0  0  0  0  0  0  0  0
    0.6708    1.9057    0.9311 H   0  0  0  0  0  0  0  0  0  0  0  0
    0.1073    1.9756   -0.7546 H   0  0  0  0  0  0  0  0  0  0  0  0
    0.4986   -0.0435   -0.0542 C   0  0  1  0  0  0  0  0  0  0  0  0
    0.9539    0.0390   -1.0475 H   0  0  0  0  0  0  0  0  0  0  0  0
    1.7166   -0.6219    0.7055 C   0  0  0  0  0  0  0  0  0  0  0  0
    2.6536   -1.1182    0.0924 O   0  0  0  0  0  0  0  0  0  0  0  0
    1.7551   -0.5675    2.0859 N   0  0  0  0  0  0  0  0  0  0  0  0
    0.8449   -0.4457    2.5297 H   0  0  0  0  0  0  0  0  0  0  0  0
    2.8061   -1.2116    2.8630 C   0  0  0  0  0  0  0  0  0  0  0  0
    3.7887   -0.8215    2.5778 H   0  0  0  0  0  0  0  0  0  0  0  0
    2.6571   -1.0203    3.9300 H   0  0  0  0  0  0  0  0  0  0  0  0
    2.7950   -2.2940    2.6982 H   0  0  0  0  0  0  0  0  0  0  0  0
  1  2  1  0  0  0  0
  2  3  1  0  0  0  0
  2  4  1  0  0  0  0
  2  5  1  0  0  0  0
  5  6  2  0  0  0  0
  5  7  1  0  0  0  0
  7  8  1  0  0  0  0
  7 17  1  0  0  0  0
  8  9  1  0  0  0  0
  8 10  1  0  0  0  0
  8 11  1  0  0  0  0
 11 12  1  0  0  0  0
 11 13  1  0  0  0  0
 11 14  1  0  0  0  0
 14 15  1  0  0  0  0
 14 16  1  0  0  0  0
 14 17  1  0  0  0  0
 17 18  1  0  0  0  0
 17 19  1  0  0  0  0
 19 20  2  0  0  0  0
 19 21  1  0  0  0  0
 21 22  1  0  0  0  0
 21 23  1  0  0  0  0
 23 24  1  0  0  0  0
 23 25  1  0  0  0  0
 23 26  1  0  0  0  0
M  END
$$$$

  -OEChem-11182114133D

 26 26  0     1  0  0  0  0  0999 V2000
   -1.1721   -4.0527    0.8520 H   0  0  0  0  0  0  0  0  0  0  0  0
   -0.9557   -3.3551    0.0381 C   0  0  0  0  0  0  0  0  0  0  0  0
   -1.7139   -3.4730   -0.7397 H   0  0  0  0  0  0  0  0  0  0  0  0
    0.0243   -3.5944   -0.3826 H   0  0  0  0  0  0  0  0  0  0  0  0
   -0.9591   -1.9266    0.5509 C   0  0  0  0  0  0  0  0  0  0  0  0
   -1.1105   -1.7231    1.7530 O   0  0  0  0  0  0  0  0  0  0  0  0
   -0.6963   -0.8897   -0.3451 N   0  0  0  0  0  0  0  0  0  0  0  0
   -1.8206    0.0556   -0.2253 C   0  0  0  0  0  0  0  0  0  0  0  0
   -2.7339   -0.3888    0.1913 H   0  0  0  0  0  0  0  0  0  0  0  0
   -2.0756    0.4083   -1.2306 H   0  0  0  0  0  0  0  0  0  0  0  0
   -1.3790    1.2608    0.6335 C   0  0  0  0  0  0  0  0  0  0  0  0
   -1.4548    1.0243    1.7002 H   0  0  0  0  0  0  0  0  0  0  0  0
   -1.9634    2.1623    0.4250 H   0  0  0  0  0  0  0  0  0  0  0  0
    0.0612    1.3913    0.2126 C   0  0  0  0  0  0  0  0  0  0  0  0
    0.6672    1.8800    0.9825 H   0  0  0  0  0  0  0  0  0  0  0  0
    0.1418    1.9686   -0.7150 H   0  0  0  0  0  0  0  0  0  0  0  0
    0.4766   -0.0599   -0.0128 C   0  0  1  0  0  0  0  0  0  0  0  0
    0.9418    0.0137   -1.0024 H   0  0  0  0  0  0  0  0  0  0  0  0
    1.6862   -0.6402    0.7616 C   0  0  0  0  0  0  0  0  0  0  0  0
    2.7485   -0.8493    0.1892 O   0  0  0  0  0  0  0  0  0  0  0  0
    1.5942   -0.8767    2.1200 N   0  0  0  0  0  0  0  0  0  0  0  0
    0.6417   -0.9155    2.4897 H   0  0  0  0  0  0  0  0  0  0  0  0
    2.6573   -1.5099    2.8892 C   0  0  0  0  0  0  0  0  0  0  0  0
    3.5853   -0.9343    2.8087 H   0  0  0  0  0  0  0  0  0  0  0  0
    2.3771   -1.5624    3.9455 H   0  0  0  0  0  0  0  0  0  0  0  0
    2.8393   -2.5267    2.5262 H   0  0  0  0  0  0  0  0  0  0  0  0
  1  2  1  0  0  0  0
  2  3  1  0  0  0  0
  2  4  1  0  0  0  0
  2  5  1  0  0  0  0
  5  6  2  0  0  0  0
  5  7  1  0  0  0  0
  7  8  1  0  0  0  0
  7 17  1  0  0  0  0
  8  9  1  0  0  0  0
  8 10  1  0  0  0  0
  8 11  1  0  0  0  0
 11 12  1  0  0  0  0
 11 13  1  0  0  0  0
 11 14  1  0  0  0  0
 14 15  1  0  0  0  0
 14 16  1  0  0  0  0
 14 17  1  0  0  0  0
 17 18  1  0  0  0  0
 17 19  1  0  0  0  0
 19 20  2  0  0  0  0
 19 21  1  0  0  0  0
 21 22  1  0  0  0  0
 21 23  1  0  0  0  0
 23 24  1  0  0  0  0
 23 25  1  0  0  0  0
 23 26  1  0  0  0  0
M  END
$$$$

  -OEChem-11182114133D

 26 26  0     1  0  0  0  0  0999 V2000
   -1.3557   -4.0735    0.7735 H   0  0  0  0  0  0  0  0  0  0  0  0
   -1.0546   -3.3700   -0.0074 C   0  0  0  0  0  0  0  0  0  0  0  0
   -1.7618   -3.4393   -0.8373 H   0  0  0  0  0  0  0  0  0  0  0  0
   -0.0588   -3.6427   -0.3657 H   0  0  0  0  0  0  0  0  0  0  0  0
   -1.0347   -1.9534    0.5363 C   0  0  0  0  0  0  0  0  0  0  0  0
   -1.2217   -1.7720    1.7365 O   0  0  0  0  0  0  0  0  0  0  0  0
   -0.7191   -0.9070   -0.3297 N   0  0  0  0  0  0  0  0  0  0  0  0
   -1.8251    0.0621   -0.2275 C   0  0  0  0  0  0  0  0  0  0  0  0
   -2.7556   -0.3617    0.1719 H   0  0  0  0  0  0  0  0  0  0  0  0
   -2.0546    0.4216   -1.2364 H   0  0  0  0  0  0  0  0  0  0  0  0
   -1.3732    1.2559    0.6400 C   0  0  0  0  0  0  0  0  0  0  0  0
   -1.4725    1.0190    1.7047 H   0  0  0  0  0  0  0  0  0  0  0  0
   -1.9347    2.1697    0.4228 H   0  0  0  0  0  0  0  0  0  0  0  0
    0.0768    1.3567    0.2465 C   0  0  0  0  0  0  0  0  0  0  0  0
    0.6775    1.8312    1.0295 H   0  0  0  0  0  0  0  0  0  0  0  0
    0.1884    1.9334   -0.6783 H   0  0  0  0  0  0  0  0  0  0  0  0
    0.4665   -0.1019    0.0267 C   0  0  1  0  0  0  0  0  0  0  0  0
    0.9415   -0.0417   -0.9589 H   0  0  0  0  0  0  0  0  0  0  0  0
    1.6729   -0.6803    0.8105 C   0  0  0  0  0  0  0  0  0  0  0  0
    2.8007   -0.6036    0.3394 O   0  0  0  0  0  0  0  0  0  0  0  0
    1.5213   -1.2085    2.0782 N   0  0  0  0  0  0  0  0  0  0  0  0
    0.5603   -1.3281    2.4089 H   0  0  0  0  0  0  0  0  0  0  0  0
    2.6135   -1.7708    2.8608 C   0  0  0  0  0  0  0  0  0  0  0  0
    3.3723   -1.0074    3.0614 H   0  0  0  0  0  0  0  0  0  0  0  0
    2.2377   -2.1440    3.8182 H   0  0  0  0  0  0  0  0  0  0  0  0
    3.0816   -2.6026    2.3242 H   0  0  0  0  0  0  0  0  0  0  0  0
  1  2  1  0  0  0  0
  2  3  1  0  0  0  0
  2  4  1  0  0  0  0
  2  5  1  0  0  0  0
  5  6  2  0  0  0  0
  5  7  1  0  0  0  0
  7  8  1  0  0  0  0
  7 17  1  0  0  0  0
  8  9  1  0  0  0  0
  8 10  1  0  0  0  0
  8 11  1  0  0  0  0
 11 12  1  0  0  0  0
 11 13  1  0  0  0  0
 11 14  1  0  0  0  0
 14 15  1  0  0  0  0
 14 16  1  0  0  0  0
 14 17  1  0  0  0  0
 17 18  1  0  0  0  0
 17 19  1  0  0  0  0
 19 20  2  0  0  0  0
 19 21  1  0  0  0  0
 21 22  1  0  0  0  0
 21 23  1  0  0  0  0
 23 24  1  0  0  0  0
 23 25  1  0  0  0  0
 23 26  1  0  0  0  0
M  END
$$$$

  -OEChem-11182114133D

 26 26  0     1  0  0  0  0  0999 V2000
   -1.6543   -4.0978    0.5618 H   0  0  0  0  0  0  0  0  0  0  0  0
   -1.3056   -3.3741   -0.1801 C   0  0  0  0  0  0  0  0  0  0  0  0
   -2.0696   -3.2653   -0.9536 H   0  0  0  0  0  0  0  0  0  0  0  0
   -0.3877   -3.7506   -0.6382 H   0  0  0  0  0  0  0  0  0  0  0  0
   -1.0391   -2.0315    0.4759 C   0  0  0  0  0  0  0  0  0  0  0  0
   -1.1724   -1.9236    1.6910 O   0  0  0  0  0  0  0  0  0  0  0  0
   -0.6767   -0.9504   -0.3248 N   0  0  0  0  0  0  0  0  0  0  0  0
   -1.7940    0.0059   -0.2298 C   0  0  0  0  0  0  0  0  0  0  0  0
   -2.7310   -0.4312    0.1394 H   0  0  0  0  0  0  0  0  0  0  0  0
   -2.0019    0.3852   -1.2362 H   0  0  0  0  0  0  0  0  0  0  0  0
   -1.3744    1.1834    0.6732 C   0  0  0  0  0  0  0  0  0  0  0  0
   -1.4995    0.9208    1.7292 H   0  0  0  0  0  0  0  0  0  0  0  0
   -1.9374    2.0978    0.4623 H   0  0  0  0  0  0  0  0  0  0  0  0
    0.0847    1.3041    0.3226 C   0  0  0  0  0  0  0  0  0  0  0  0
    0.6589    1.7673    1.1318 H   0  0  0  0  0  0  0  0  0  0  0  0
    0.2171    1.9016   -0.5859 H   0  0  0  0  0  0  0  0  0  0  0  0
    0.4958   -0.1458    0.0827 C   0  0  1  0  0  0  0  0  0  0  0  0
    0.9923   -0.0664   -0.8908 H   0  0  0  0  0  0  0  0  0  0  0  0
    1.7086   -0.6987    0.8780 C   0  0  0  0  0  0  0  0  0  0  0  0
    2.8354   -0.3290    0.5712 O   0  0  0  0  0  0  0  0  0  0  0  0
    1.5717   -1.5179    1.9822 N   0  0  0  0  0  0  0  0  0  0  0  0
    0.6154   -1.7329    2.2752 H   0  0  0  0  0  0  0  0  0  0  0  0
    2.6812   -1.9454    2.8239 C   0  0  0  0  0  0  0  0  0  0  0  0
    3.1537   -1.0808    3.3016 H   0  0  0  0  0  0  0  0  0  0  0  0
    2.3218   -2.6209    3.6061 H   0  0  0  0  0  0  0  0  0  0  0  0
    3.4321   -2.4753    2.2287 H   0  0  0  0  0  0  0  0  0  0  0  0
  1  2  1  0  0  0  0
  2  3  1  0  0  0  0
  2  4  1  0  0  0  0
  2  5  1  0  0  0  0
  5  6  2  0  0  0  0
  5  7  1  0  0  0  0
  7  8  1  0  0  0  0
  7 17  1  0  0  0  0
  8  9  1  0  0  0  0
  8 10  1  0  0  0  0
  8 11  1  0  0  0  0
 11 12  1  0  0  0  0
 11 13  1  0  0  0  0
 11 14  1  0  0  0  0
 14 15  1  0  0  0  0
 14 16  1  0  0  0  0
 14 17  1  0  0  0  0
 17 18  1  0  0  0  0
 17 19  1  0  0  0  0
 19 20  2  0  0  0  0
 19 21  1  0  0  0  0
 21 22  1  0  0  0  0
 21 23  1  0  0  0  0
 23 24  1  0  0  0  0
 23 25  1  0  0  0  0
 23 26  1  0  0  0  0
M  END
$$$$

  -OEChem-11182114133D

 26 26  0     1  0  0  0  0  0999 V2000
   -1.8486   -4.0871    0.4416 H   0  0  0  0  0  0  0  0  0  0  0  0
   -1.4661   -3.3552   -0.2751 C   0  0  0  0  0  0  0  0  0  0  0  0
   -2.2511   -3.1287   -1.0006 H   0  0  0  0  0  0  0  0  0  0  0  0
   -0.6110   -3.7877   -0.8004 H   0  0  0  0  0  0  0  0  0  0  0  0
   -1.0397   -2.0862    0.4414 C   0  0  0  0  0  0  0  0  0  0  0  0
   -1.1001   -2.0441    1.6651 O   0  0  0  0  0  0  0  0  0  0  0  0
   -0.6481   -0.9833   -0.3131 N   0  0  0  0  0  0  0  0  0  0  0  0
   -1.7763   -0.0390   -0.2314 C   0  0  0  0  0  0  0  0  0  0  0  0
   -2.7165   -0.4856    0.1187 H   0  0  0  0  0  0  0  0  0  0  0  0
   -1.9685    0.3473   -1.2381 H   0  0  0  0  0  0  0  0  0  0  0  0
   -1.3841    1.1324    0.6898 C   0  0  0  0  0  0  0  0  0  0  0  0
   -1.5299    0.8591    1.7405 H   0  0  0  0  0  0  0  0  0  0  0  0
   -1.9485    2.0451    0.4751 H   0  0  0  0  0  0  0  0  0  0  0  0
    0.0814    1.2673    0.3736 C   0  0  0  0  0  0  0  0  0  0  0  0
    0.6318    1.7289    1.2004 H   0  0  0  0  0  0  0  0  0  0  0  0
    0.2301    1.8746   -0.5259 H   0  0  0  0  0  0  0  0  0  0  0  0
    0.5127   -0.1771    0.1293 C   0  0  1  0  0  0  0  0  0  0  0  0
    1.0280   -0.0867   -0.8332 H   0  0  0  0  0  0  0  0  0  0  0  0
    1.7283   -0.7116    0.9356 C   0  0  0  0  0  0  0  0  0  0  0  0
    2.8065   -0.1460    0.7990 O   0  0  0  0  0  0  0  0  0  0  0  0
    1.6590   -1.7629    1.8304 N   0  0  0  0  0  0  0  0  0  0  0  0
    0.7173   -2.0767    2.0752 H   0  0  0  0  0  0  0  0  0  0  0  0
    2.7689   -2.1722    2.6813 C   0  0  0  0  0  0  0  0  0  0  0  0
    3.0364   -1.3684    3.3748 H   0  0  0  0  0  0  0  0  0  0  0  0
    2.4900   -3.0558    3.2633 H   0  0  0  0  0  0  0  0  0  0  0  0
    3.6458   -2.4227    2.0753 H   0  0  0  0  0  0  0  0  0  0  0  0
  1  2  1  0  0  0  0
  2  3  1  0  0  0  0
  2  4  1  0  0  0  0
  2  5  1  0  0  0  0
  5  6  2  0  0  0  0
  5  7  1  0  0  0  0
  7  8  1  0  0  0  0
  7 17  1  0  0  0  0
  8  9  1  0  0  0  0
  8 10  1  0  0  0  0
  8 11  1  0  0  0  0
 11 12  1  0  0  0  0
 11 13  1  0  0  0  0
 11 14  1  0  0  0  0
 14 15  1  0  0  0  0
 14 16  1  0  0  0  0
 14 17  1  0  0  0  0
 17 18  1  0  0  0  0
 17 19  1  0  0  0  0
 19 20  2  0  0  0  0
 19 21  1  0  0  0  0
 21 22  1  0  0  0  0
 21 23  1  0  0  0  0
 23 24  1  0  0  0  0
 23 25  1  0  0  0  0
 23 26  1  0  0  0  0
M  END
$$$$

  -OEChem-11182114133D

 26 26  0     1  0  0  0  0  0999 V2000
   -1.9684   -4.0863    0.3282 H   0  0  0  0  0  0  0  0  0  0  0  0
   -1.6575   -3.2985   -0.3635 C   0  0  0  0  0  0  0  0  0  0  0  0
   -2.5331   -2.9471   -0.9145 H   0  0  0  0  0  0  0  0  0  0  0  0
   -0.9371   -3.7152   -1.0717 H   0  0  0  0  0  0  0  0  0  0  0  0
   -1.0213   -2.1474    0.3979 C   0  0  0  0  0  0  0  0  0  0  0  0
   -0.9554   -2.2125    1.6185 O   0  0  0  0  0  0  0  0  0  0  0  0
   -0.5968   -1.0220   -0.3036 N   0  0  0  0  0  0  0  0  0  0  0  0
   -1.7378   -0.0921   -0.2565 C   0  0  0  0  0  0  0  0  0  0  0  0
   -2.6837   -0.5469    0.0657 H   0  0  0  0  0  0  0  0  0  0  0  0
   -1.9030    0.2958   -1.2676 H   0  0  0  0  0  0  0  0  0  0  0  0
   -1.3863    1.0778    0.6814 C   0  0  0  0  0  0  0  0  0  0  0  0
   -1.5662    0.7981    1.7251 H   0  0  0  0  0  0  0  0  0  0  0  0
   -1.9504    1.9869    0.4516 H   0  0  0  0  0  0  0  0  0  0  0  0
    0.0887    1.2266    0.4193 C   0  0  0  0  0  0  0  0  0  0  0  0
    0.6016    1.6914    1.2680 H   0  0  0  0  0  0  0  0  0  0  0  0
    0.2647    1.8394   -0.4713 H   0  0  0  0  0  0  0  0  0  0  0  0
    0.5454   -0.2131    0.1844 C   0  0  1  0  0  0  0  0  0  0  0  0
    1.0891   -0.1128   -0.7610 H   0  0  0  0  0  0  0  0  0  0  0  0
    1.7556   -0.7297    1.0130 C   0  0  0  0  0  0  0  0  0  0  0  0
    2.7532   -0.0204    1.0722 O   0  0  0  0  0  0  0  0  0  0  0  0
    1.7941   -1.9498    1.6619 N   0  0  0  0  0  0  0  0  0  0  0  0
    0.8843   -2.3885    1.8133 H   0  0  0  0  0  0  0  0  0  0  0  0
    2.9037   -2.3696    2.5086 C   0  0  0  0  0  0  0  0  0  0  0  0
    3.0304   -1.6775    3.3475 H   0  0  0  0  0  0  0  0  0  0  0  0
    2.7129   -3.3697    2.9093 H   0  0  0  0  0  0  0  0  0  0  0  0
    3.8345   -2.4014    1.9326 H   0  0  0  0  0  0  0  0  0  0  0  0
  1  2  1  0  0  0  0
  2  3  1  0  0  0  0
  2  4  1  0  0  0  0
  2  5  1  0  0  0  0
  5  6  2  0  0  0  0
  5  7  1  0  0  0  0
  7  8  1  0  0  0  0
  7 17  1  0  0  0  0
  8  9  1  0  0  0  0
  8 10  1  0  0  0  0
  8 11  1  0  0  0  0
 11 12  1  0  0  0  0
 11 13  1  0  0  0  0
 11 14  1  0  0  0  0
 14 15  1  0  0  0  0
 14 16  1  0  0  0  0
 14 17  1  0  0  0  0
 17 18  1  0  0  0  0
 17 19  1  0  0  0  0
 19 20  2  0  0  0  0
 19 21  1  0  0  0  0
 21 22  1  0  0  0  0
 21 23  1  0  0  0  0
 23 24  1  0  0  0  0
 23 25  1  0  0  0  0
 23 26  1  0  0  0  0
M  END
$$$$

  -OEChem-11182114133D

 26 26  0     1  0  0  0  0  0999 V2000
   -1.6973   -4.2141   -0.1910 H   0  0  0  0  0  0  0  0  0  0  0  0
   -1.9628   -3.1721   -0.3891 C   0  0  0  0  0  0  0  0  0  0  0  0
   -2.9892   -2.9981   -0.0573 H   0  0  0  0  0  0  0  0  0  0  0  0
   -1.9022   -2.9966   -1.4663 H   0  0  0  0  0  0  0  0  0  0  0  0
   -1.0096   -2.2435    0.3508 C   0  0  0  0  0  0  0  0  0  0  0  0
   -0.6770   -2.5641    1.4807 O   0  0  0  0  0  0  0  0  0  0  0  0
   -0.5361   -1.0897   -0.2758 N   0  0  0  0  0  0  0  0  0  0  0  0
   -1.6730   -0.1567   -0.3262 C   0  0  0  0  0  0  0  0  0  0  0  0
   -2.6374   -0.5900   -0.0340 H   0  0  0  0  0  0  0  0  0  0  0  0
   -1.7807    0.1978   -1.3571 H   0  0  0  0  0  0  0  0  0  0  0  0
   -1.3620    1.0378    0.5946 C   0  0  0  0  0  0  0  0  0  0  0  0
   -1.6085    0.7944    1.6336 H   0  0  0  0  0  0  0  0  0  0  0  0
   -1.8993    1.9452    0.3022 H   0  0  0  0  0  0  0  0  0  0  0  0
    0.1283    1.1656    0.4219 C   0  0  0  0  0  0  0  0  0  0  0  0
    0.5858    1.6537    1.2890 H   0  0  0  0  0  0  0  0  0  0  0  0
    0.3676    1.7522   -0.4717 H   0  0  0  0  0  0  0  0  0  0  0  0
    0.5889   -0.2848    0.2592 C   0  0  1  0  0  0  0  0  0  0  0  0
    1.1637   -0.2098   -0.6698 H   0  0  0  0  0  0  0  0  0  0  0  0
    1.8009   -0.7693    1.1072 C   0  0  0  0  0  0  0  0  0  0  0  0
    2.6706    0.0481    1.3874 O   0  0  0  0  0  0  0  0  0  0  0  0
    2.0064   -2.0793    1.4970 N   0  0  0  0  0  0  0  0  0  0  0  0
    1.1697   -2.6645    1.4816 H   0  0  0  0  0  0  0  0  0  0  0  0
    3.1089   -2.4930    2.3562 C   0  0  0  0  0  0  0  0  0  0  0  0
    3.0237   -2.0234    3.3414 H   0  0  0  0  0  0  0  0  0  0  0  0
    3.0965   -3.5793    2.4859 H   0  0  0  0  0  0  0  0  0  0  0  0
    4.0697   -2.2118    1.9123 H   0  0  0  0  0  0  0  0  0  0  0  0
  1  2  1  0  0  0  0
  2  3  1  0  0  0  0
  2  4  1  0  0  0  0
  2  5  1  0  0  0  0
  5  6  2  0  0  0  0
  5  7  1  0  0  0  0
  7  8  1  0  0  0  0
  7 17  1  0  0  0  0
  8  9  1  0  0  0  0
  8 10  1  0  0  0  0
  8 11  1  0  0  0  0
 11 12  1  0  0  0  0
 11 13  1  0  0  0  0
 11 14  1  0  0  0  0
 14 15  1  0  0  0  0
 14 16  1  0  0  0  0
 14 17  1  0  0  0  0
 17 18  1  0  0  0  0
 17 19  1  0  0  0  0
 19 20  2  0  0  0  0
 19 21  1  0  0  0  0
 21 22  1  0  0  0  0
 21 23  1  0  0  0  0
 23 24  1  0  0  0  0
 23 25  1  0  0  0  0
 23 26  1  0  0  0  0
M  END
$$$$

  -OEChem-11182114133D

 26 26  0     1  0  0  0  0  0999 V2000
   -1.8059   -4.1898   -0.2466 H   0  0  0  0  0  0  0  0  0  0  0  0
   -2.0538   -3.1289   -0.3407 C   0  0  0  0  0  0  0  0  0  0  0  0
   -3.0275   -2.9513    0.1223 H   0  0  0  0  0  0  0  0  0  0  0  0
   -2.1127   -2.8804   -1.4034 H   0  0  0  0  0  0  0  0  0  0  0  0
   -0.9862   -2.2827    0.3433 C   0  0  0  0  0  0  0  0  0  0  0  0
   -0.4880   -2.7461    1.3557 O   0  0  0  0  0  0  0  0  0  0  0  0
   -0.5144   -1.1145   -0.2630 N   0  0  0  0  0  0  0  0  0  0  0  0
   -1.6470   -0.1772   -0.3378 C   0  0  0  0  0  0  0  0  0  0  0  0
   -2.6171   -0.6012   -0.0539 H   0  0  0  0  0  0  0  0  0  0  0  0
   -1.7387    0.1709   -1.3724 H   0  0  0  0  0  0  0  0  0  0  0  0
   -1.3444    1.0207    0.5818 C   0  0  0  0  0  0  0  0  0  0  0  0
   -1.6096    0.7844    1.6179 H   0  0  0  0  0  0  0  0  0  0  0  0
   -1.8720    1.9296    0.2762 H   0  0  0  0  0  0  0  0  0  0  0  0
    0.1492    1.1407    0.4344 C   0  0  0  0  0  0  0  0  0  0  0  0
    0.5909    1.6341    1.3064 H   0  0  0  0  0  0  0  0  0  0  0  0
    0.4064    1.7215   -0.4581 H   0  0  0  0  0  0  0  0  0  0  0  0
    0.6062   -0.3137    0.2869 C   0  0  1  0  0  0  0  0  0  0  0  0
    1.1887   -0.2396   -0.6370 H   0  0  0  0  0  0  0  0  0  0  0  0
    1.8167   -0.8097    1.1297 C   0  0  0  0  0  0  0  0  0  0  0  0
    2.5723    0.0227    1.6185 O   0  0  0  0  0  0  0  0  0  0  0  0
    2.1710   -2.1417    1.2361 N   0  0  0  0  0  0  0  0  0  0  0  0
    1.3962   -2.7891    1.0849 H   0  0  0  0  0  0  0  0  0  0  0  0
    3.2765   -2.6002    2.0684 C   0  0  0  0  0  0  0  0  0  0  0  0
    3.0945   -2.3497    3.1187 H   0  0  0  0  0  0  0  0  0  0  0  0
    3.3860   -3.6855    1.9831 H   0  0  0  0  0  0  0  0  0  0  0  0
    4.2157   -2.1345    1.7517 H   0  0  0  0  0  0  0  0  0  0  0  0
  1  2  1  0  0  0  0
  2  3  1  0  0  0  0
  2  4  1  0  0  0  0
  2  5  1  0  0  0  0
  5  6  2  0  0  0  0
  5  7  1  0  0  0  0
  7  8  1  0  0  0  0
  7 17  1  0  0  0  0
  8  9  1  0  0  0  0
  8 10  1  0  0  0  0
  8 11  1  0  0  0  0
 11 12  1  0  0  0  0
 11 13  1  0  0  0  0
 11 14  1  0  0  0  0
 14 15  1  0  0  0  0
 14 16  1  0  0  0  0
 14 17  1  0  0  0  0
 17 18  1  0  0  0  0
 17 19  1  0  0  0  0
 19 20  2  0  0  0  0
 19 21  1  0  0  0  0
 21 22  1  0  0  0  0
 21 23  1  0  0  0  0
 23 24  1  0  0  0  0
 23 25  1  0  0  0  0
 23 26  1  0  0  0  0
M  END
$$$$

  -OEChem-11182114133D

 26 26  0     1  0  0  0  0  0999 V2000
   -1.8582   -4.1856   -0.2012 H   0  0  0  0  0  0  0  0  0  0  0  0
   -2.0764   -3.1168   -0.2777 C   0  0  0  0  0  0  0  0  0  0  0  0
   -3.0121   -2.9110    0.2478 H   0  0  0  0  0  0  0  0  0  0  0  0
   -2.1954   -2.8645   -1.3344 H   0  0  0  0  0  0  0  0  0  0  0  0
   -0.9392   -2.3065    0.3372 C   0  0  0  0  0  0  0  0  0  0  0  0
   -0.3283   -2.8447    1.2455 O   0  0  0  0  0  0  0  0  0  0  0  0
   -0.4849   -1.1297   -0.2697 N   0  0  0  0  0  0  0  0  0  0  0  0
   -1.6195   -0.1945   -0.3490 C   0  0  0  0  0  0  0  0  0  0  0  0
   -2.5919   -0.6192   -0.0768 H   0  0  0  0  0  0  0  0  0  0  0  0
   -1.7020    0.1604   -1.3819 H   0  0  0  0  0  0  0  0  0  0  0  0
   -1.3287    0.9985    0.5818 C   0  0  0  0  0  0  0  0  0  0  0  0
   -1.6015    0.7544    1.6140 H   0  0  0  0  0  0  0  0  0  0  0  0
   -1.8573    1.9073    0.2779 H   0  0  0  0  0  0  0  0  0  0  0  0
    0.1654    1.1258    0.4474 C   0  0  0  0  0  0  0  0  0  0  0  0
    0.5980    1.6159    1.3256 H   0  0  0  0  0  0  0  0  0  0  0  0
    0.4272    1.7131   -0.4395 H   0  0  0  0  0  0  0  0  0  0  0  0
    0.6262   -0.3268    0.2937 C   0  0  1  0  0  0  0  0  0  0  0  0
    1.2170   -0.2382   -0.6237 H   0  0  0  0  0  0  0  0  0  0  0  0
    1.8239   -0.8464    1.1372 C   0  0  0  0  0  0  0  0  0  0  0  0
    2.4511   -0.0593    1.8369 O   0  0  0  0  0  0  0  0  0  0  0  0
    2.3304   -2.1227    0.9718 N   0  0  0  0  0  0  0  0  0  0  0  0
    1.6312   -2.7980    0.6629 H   0  0  0  0  0  0  0  0  0  0  0  0
    3.4418   -2.6305    1.7666 C   0  0  0  0  0  0  0  0  0  0  0  0
    3.1707   -2.6615    2.8270 H   0  0  0  0  0  0  0  0  0  0  0  0
    3.7033   -3.6426    1.4435 H   0  0  0  0  0  0  0  0  0  0  0  0
    4.3244   -1.9936    1.6470 H   0  0  0  0  0  0  0  0  0  0  0  0
  1  2  1  0  0  0  0
  2  3  1  0  0  0  0
  2  4  1  0  0  0  0
  2  5  1  0  0  0  0
  5  6  2  0  0  0  0
  5  7  1  0  0  0  0
  7  8  1  0  0  0  0
  7 17  1  0  0  0  0
  8  9  1  0  0  0  0
  8 10  1  0  0  0  0
  8 11  1  0  0  0  0
 11 12  1  0  0  0  0
 11 13  1  0  0  0  0
 11 14  1  0  0  0  0
 14 15  1  0  0  0  0
 14 16  1  0  0  0  0
 14 17  1  0  0  0  0
 17 18  1  0  0  0  0
 17 19  1  0  0  0  0
 19 20  2  0  0  0  0
 19 21  1  0  0  0  0
 21 22  1  0  0  0  0
 21 23  1  0  0  0  0
 23 24  1  0  0  0  0
 23 25  1  0  0  0  0
 23 26  1  0  0  0  0
M  END
$$$$

  -OEChem-11182114133D

 26 26  0     1  0  0  0  0  0999 V2000
   -1.8707   -4.1884   -0.1417 H   0  0  0  0  0  0  0  0  0  0  0  0
   -2.0748   -3.1160   -0.2070 C   0  0  0  0  0  0  0  0  0  0  0  0
   -2.9693   -2.8941    0.3801 H   0  0  0  0  0  0  0  0  0  0  0  0
   -2.2601   -2.8644   -1.2544 H   0  0  0  0  0  0  0  0  0  0  0  0
   -0.8850   -2.3231    0.3284 C   0  0  0  0  0  0  0  0  0  0  0  0
   -0.1922   -2.9005    1.1497 O   0  0  0  0  0  0  0  0  0  0  0  0
   -0.4552   -1.1420   -0.2921 N   0  0  0  0  0  0  0  0  0  0  0  0
   -1.5956   -0.2115   -0.3514 C   0  0  0  0  0  0  0  0  0  0  0  0
   -2.5654   -0.6434   -0.0842 H   0  0  0  0  0  0  0  0  0  0  0  0
   -1.6829    0.1598   -1.3783 H   0  0  0  0  0  0  0  0  0  0  0  0
   -1.3096    0.9696    0.5978 C   0  0  0  0  0  0  0  0  0  0  0  0
   -1.5719    0.7056    1.6280 H   0  0  0  0  0  0  0  0  0  0  0  0
   -1.8490    1.8784    0.3132 H   0  0  0  0  0  0  0  0  0  0  0  0
    0.1818    1.1126    0.4538 C   0  0  0  0  0  0  0  0  0  0  0  0
    0.6194    1.5920    1.3355 H   0  0  0  0  0  0  0  0  0  0  0  0
    0.4305    1.7158   -0.4261 H   0  0  0  0  0  0  0  0  0  0  0  0
    0.6493   -0.3340    0.2736 C   0  0  1  0  0  0  0  0  0  0  0  0
    1.2395   -0.2209   -0.6415 H   0  0  0  0  0  0  0  0  0  0  0  0
    1.8352   -0.8800    1.1129 C   0  0  0  0  0  0  0  0  0  0  0  0
    2.3155   -0.1930    2.0071 O   0  0  0  0  0  0  0  0  0  0  0  0
    2.5065   -2.0244    0.7199 N   0  0  0  0  0  0  0  0  0  0  0  0
    1.9284   -2.6793    0.1978 H   0  0  0  0  0  0  0  0  0  0  0  0
    3.6129   -2.5769    1.4914 C   0  0  0  0  0  0  0  0  0  0  0  0
    3.2747   -2.8646    2.4923 H   0  0  0  0  0  0  0  0  0  0  0  0
    4.0155   -3.4626    0.9910 H   0  0  0  0  0  0  0  0  0  0  0  0
    4.4192   -1.8425    1.5893 H   0  0  0  0  0  0  0  0  0  0  0  0
  1  2  1  0  0  0  0
  2  3  1  0  0  0  0
  2  4  1  0  0  0  0
  2  5  1  0  0  0  0
  5  6  2  0  0  0  0
  5  7  1  0  0  0  0
  7  8  1  0  0  0  0
  7 17  1  0  0  0  0
  8  9  1  0  0  0  0
  8 10  1  0  0  0  0
  8 11  1  0  0  0  0
 11 12  1  0  0  0  0
 11 13  1  0  0  0  0
 11 14  1  0  0  0  0
 14 15  1  0  0  0  0
 14 16  1  0  0  0  0
 14 17  1  0  0  0  0
 17 18  1  0  0  0  0
 17 19  1  0  0  0  0
 19 20  2  0  0  0  0
 19 21  1  0  0  0  0
 21 22  1  0  0  0  0
 21 23  1  0  0  0  0
 23 24  1  0  0  0  0
 23 25  1  0  0  0  0
 23 26  1  0  0  0  0
M  END
$$$$

  -OEChem-11182114133D

 26 26  0     1  0  0  0  0  0999 V2000
   -1.8681   -4.1919   -0.1050 H   0  0  0  0  0  0  0  0  0  0  0  0
   -2.0652   -3.1180   -0.1687 C   0  0  0  0  0  0  0  0  0  0  0  0
   -2.9353   -2.8856    0.4501 H   0  0  0  0  0  0  0  0  0  0  0  0
   -2.2868   -2.8707   -1.2099 H   0  0  0  0  0  0  0  0  0  0  0  0
   -0.8497   -2.3324    0.3187 C   0  0  0  0  0  0  0  0  0  0  0  0
   -0.1178   -2.9275    1.0926 O   0  0  0  0  0  0  0  0  0  0  0  0
   -0.4358   -1.1510   -0.3146 N   0  0  0  0  0  0  0  0  0  0  0  0
   -1.5784   -0.2213   -0.3451 C   0  0  0  0  0  0  0  0  0  0  0  0
   -2.5455   -0.6570   -0.0755 H   0  0  0  0  0  0  0  0  0  0  0  0
   -1.6771    0.1658   -1.3650 H   0  0  0  0  0  0  0  0  0  0  0  0
   -1.2843    0.9461    0.6201 C   0  0  0  0  0  0  0  0  0  0  0  0
   -1.5295    0.6634    1.6495 H   0  0  0  0  0  0  0  0  0  0  0  0
   -1.8323    1.8567    0.3588 H   0  0  0  0  0  0  0  0  0  0  0  0
    0.2040    1.0978    0.4560 C   0  0  0  0  0  0  0  0  0  0  0  0
    0.6561    1.5625    1.3383 H   0  0  0  0  0  0  0  0  0  0  0  0
    0.4369    1.7156   -0.4180 H   0  0  0  0  0  0  0  0  0  0  0  0
    0.6702   -0.3438    0.2460 C   0  0  1  0  0  0  0  0  0  0  0  0
    1.2513   -0.2096   -0.6719 H   0  0  0  0  0  0  0  0  0  0  0  0
    1.8486   -0.9145    1.0759 C   0  0  0  0  0  0  0  0  0  0  0  0
    2.1728   -0.3739    2.1271 O   0  0  0  0  0  0  0  0  0  0  0  0
    2.6901   -1.8648    0.5231 N   0  0  0  0  0  0  0  0  0  0  0  0
    2.2766   -2.4190   -0.2214 H   0  0  0  0  0  0  0  0  0  0  0  0
    3.7947   -2.4513    1.2711 C   0  0  0  0  0  0  0  0  0  0  0  0
    3.4198   -2.9774    2.1553 H   0  0  0  0  0  0  0  0  0  0  0  0
    4.3370   -3.1656    0.6446 H   0  0  0  0  0  0  0  0  0  0  0  0
    4.4971   -1.6755    1.5934 H   0  0  0  0  0  0  0  0  0  0  0  0
  1  2  1  0  0  0  0
  2  3  1  0  0  0  0
  2  4  1  0  0  0  0
  2  5  1  0  0  0  0
  5  6  2  0  0  0  0
  5  7  1  0  0  0  0
  7  8  1  0  0  0  0
  7 17  1  0  0  0  0
  8  9  1  0  0  0  0
  8 10  1  0  0  0  0
  8 11  1  0  0  0  0
 11 12  1  0  0  0  0
 11 13  1  0  0  0  0
 11 14  1  0  0  0  0
 14 15  1  0  0  0  0
 14 16  1  0  0  0  0
 14 17  1  0  0  0  0
 17 18  1  0  0  0  0
 17 19  1  0  0  0  0
 19 20  2  0  0  0  0
 19 21  1  0  0  0  0
 21 22  1  0  0  0  0
 21 23  1  0  0  0  0
 23 24  1  0  0  0  0
 23 25  1  0  0  0  0
 23 26  1  0  0  0  0
M  END
$$$$

  -OEChem-11182114133D

 26 26  0     1  0  0  0  0  0999 V2000
   -1.8926   -4.1966   -0.1166 H   0  0  0  0  0  0  0  0  0  0  0  0
   -2.0768   -3.1195   -0.1654 C   0  0  0  0  0  0  0  0  0  0  0  0
   -2.9209   -2.8805    0.4860 H   0  0  0  0  0  0  0  0  0  0  0  0
   -2.3317   -2.8616   -1.1964 H   0  0  0  0  0  0  0  0  0  0  0  0
   -0.8331   -2.3542    0.2833 C   0  0  0  0  0  0  0  0  0  0  0  0
   -0.0675   -2.9824    0.9961 O   0  0  0  0  0  0  0  0  0  0  0  0
   -0.4282   -1.1652   -0.3433 N   0  0  0  0  0  0  0  0  0  0  0  0
   -1.5675   -0.2304   -0.3430 C   0  0  0  0  0  0  0  0  0  0  0  0
   -2.5355   -0.6666   -0.0791 H   0  0  0  0  0  0  0  0  0  0  0  0
   -1.6701    0.1811   -1.3530 H   0  0  0  0  0  0  0  0  0  0  0  0
   -1.2630    0.9149    0.6467 C   0  0  0  0  0  0  0  0  0  0  0  0
   -1.4972    0.6087    1.6720 H   0  0  0  0  0  0  0  0  0  0  0  0
   -1.8129    1.8316    0.4122 H   0  0  0  0  0  0  0  0  0  0  0  0
    0.2233    1.0686    0.4689 C   0  0  0  0  0  0  0  0  0  0  0  0
    0.6892    1.5086    1.3569 H   0  0  0  0  0  0  0  0  0  0  0  0
    0.4471    1.7068   -0.3929 H   0  0  0  0  0  0  0  0  0  0  0  0
    0.6818   -0.3683    0.2212 C   0  0  1  0  0  0  0  0  0  0  0  0
    1.2498   -0.2134   -0.7012 H   0  0  0  0  0  0  0  0  0  0  0  0
    1.8617   -0.9565    1.0361 C   0  0  0  0  0  0  0  0  0  0  0  0
    2.0371   -0.5897    2.1923 O   0  0  0  0  0  0  0  0  0  0  0  0
    2.8734   -1.6548    0.3979 N   0  0  0  0  0  0  0  0  0  0  0  0
    2.6277   -2.0636   -0.4987 H   0  0  0  0  0  0  0  0  0  0  0  0
    4.0081   -2.2175    1.1195 C   0  0  0  0  0  0  0  0  0  0  0  0
    3.6662   -2.9516    1.8568 H   0  0  0  0  0  0  0  0  0  0  0  0
    4.6892   -2.7152    0.4229 H   0  0  0  0  0  0  0  0  0  0  0  0
    4.5634   -1.4289    1.6380 H   0  0  0  0  0  0  0  0  0  0  0  0
  1  2  1  0  0  0  0
  2  3  1  0  0  0  0
  2  4  1  0  0  0  0
  2  5  1  0  0  0  0
  5  6  2  0  0  0  0
  5  7  1  0  0  0  0
  7  8  1  0  0  0  0
  7 17  1  0  0  0  0
  8  9  1  0  0  0  0
  8 10  1  0  0  0  0
  8 11  1  0  0  0  0
 11 12  1  0  0  0  0
 11 13  1  0  0  0  0
 11 14  1  0  0  0  0
 14 15  1  0  0  0  0
 14 16  1  0  0  0  0
 14 17  1  0  0  0  0
 17 18  1  0  0  0  0
 17 19  1  0  0  0  0
 19 20  2  0  0  0  0
 19 21  1  0  0  0  0
 21 22  1  0  0  0  0
 21 23  1  0  0  0  0
 23 24  1  0  0  0  0
 23 25  1  0  0  0  0
 23 26  1  0  0  0  0
M  END
$$$$

  -OEChem-11182114133D

 26 26  0     1  0  0  0  0  0999 V2000
   -1.9246   -4.1970   -0.1452 H   0  0  0  0  0  0  0  0  0  0  0  0
   -2.0901   -3.1161   -0.1725 C   0  0  0  0  0  0  0  0  0  0  0  0
   -2.8988   -2.8712    0.5202 H   0  0  0  0  0  0  0  0  0  0  0  0
   -2.3863   -2.8406   -1.1876 H   0  0  0  0  0  0  0  0  0  0  0  0
   -0.8129   -2.3790    0.2284 C   0  0  0  0  0  0  0  0  0  0  0  0
   -0.0099   -3.0499    0.8559 O   0  0  0  0  0  0  0  0  0  0  0  0
   -0.4198   -1.1761   -0.3804 N   0  0  0  0  0  0  0  0  0  0  0  0
   -1.5574   -0.2388   -0.3423 C   0  0  0  0  0  0  0  0  0  0  0  0
   -2.5242   -0.6774   -0.0794 H   0  0  0  0  0  0  0  0  0  0  0  0
   -1.6709    0.1989   -1.3399 H   0  0  0  0  0  0  0  0  0  0  0  0
   -1.2409    0.8802    0.6739 C   0  0  0  0  0  0  0  0  0  0  0  0
   -1.4619    0.5465    1.6937 H   0  0  0  0  0  0  0  0  0  0  0  0
   -1.7940    1.8025    0.4713 H   0  0  0  0  0  0  0  0  0  0  0  0
    0.2425    1.0388    0.4814 C   0  0  0  0  0  0  0  0  0  0  0  0
    0.7211    1.4510    1.3761 H   0  0  0  0  0  0  0  0  0  0  0  0
    0.4559    1.7006   -0.3650 H   0  0  0  0  0  0  0  0  0  0  0  0
    0.6946   -0.3906    0.1906 C   0  0  1  0  0  0  0  0  0  0  0  0
    1.2453   -0.2142   -0.7383 H   0  0  0  0  0  0  0  0  0  0  0  0
    1.8850   -0.9893    0.9828 C   0  0  0  0  0  0  0  0  0  0  0  0
    1.9319   -0.8217    2.1959 O   0  0  0  0  0  0  0  0  0  0  0  0
    3.0382   -1.3959    0.3307 N   0  0  0  0  0  0  0  0  0  0  0  0
    2.9399   -1.6212   -0.6544 H   0  0  0  0  0  0  0  0  0  0  0  0
    4.1964   -1.9198    1.0447 C   0  0  0  0  0  0  0  0  0  0  0  0
    3.9223   -2.8170    1.6099 H   0  0  0  0  0  0  0  0  0  0  0  0
    4.9893   -2.1823    0.3378 H   0  0  0  0  0  0  0  0  0  0  0  0
    4.5902   -1.1714    1.7406 H   0  0  0  0  0  0  0  0  0  0  0  0
  1  2  1  0  0  0  0
  2  3  1  0  0  0  0
  2  4  1  0  0  0  0
  2  5  1  0  0  0  0
  5  6  2  0  0  0  0
  5  7  1  0  0  0  0
  7  8  1  0  0  0  0
  7 17  1  0  0  0  0
  8  9  1  0  0  0  0
  8 10  1  0  0  0  0
  8 11  1  0  0  0  0
 11 12  1  0  0  0  0
 11 13  1  0  0  0  0
 11 14  1  0  0  0  0
 14 15  1  0  0  0  0
 14 16  1  0  0  0  0
 14 17  1  0  0  0  0
 17 18  1  0  0  0  0
 17 19  1  0  0  0  0
 19 20  2  0  0  0  0
 19 21  1  0  0  0  0
 21 22  1  0  0  0  0
 21 23  1  0  0  0  0
 23 24  1  0  0  0  0
 23 25  1  0  0  0  0
 23 26  1  0  0  0  0
M  END
$$$$

  -OEChem-11182114133D

 26 26  0     1  0  0  0  0  0999 V2000
   -2.0116   -4.1758   -0.0401 H   0  0  0  0  0  0  0  0  0  0  0  0
   -2.1133   -3.0884   -0.1033 C   0  0  0  0  0  0  0  0  0  0  0  0
   -2.8058   -2.7623    0.6764 H   0  0  0  0  0  0  0  0  0  0  0  0
   -2.5248   -2.8410   -1.0850 H   0  0  0  0  0  0  0  0  0  0  0  0
   -0.7520   -2.4186    0.0879 C   0  0  0  0  0  0  0  0  0  0  0  0
    0.1329   -3.1732    0.4598 O   0  0  0  0  0  0  0  0  0  0  0  0
   -0.3969   -1.1762   -0.4660 N   0  0  0  0  0  0  0  0  0  0  0  0
   -1.5338   -0.2396   -0.3937 C   0  0  0  0  0  0  0  0  0  0  0  0
   -2.5091   -0.6825   -0.1812 H   0  0  0  0  0  0  0  0  0  0  0  0
   -1.6240    0.2531   -1.3679 H   0  0  0  0  0  0  0  0  0  0  0  0
   -1.2341    0.8243    0.6864 C   0  0  0  0  0  0  0  0  0  0  0  0
   -1.4661    0.4355    1.6838 H   0  0  0  0  0  0  0  0  0  0  0  0
   -1.7871    1.7551    0.5266 H   0  0  0  0  0  0  0  0  0  0  0  0
    0.2507    0.9959    0.5180 C   0  0  0  0  0  0  0  0  0  0  0  0
    0.7197    1.3563    1.4399 H   0  0  0  0  0  0  0  0  0  0  0  0
    0.4729    1.7033   -0.2883 H   0  0  0  0  0  0  0  0  0  0  0  0
    0.7061   -0.4148    0.1564 C   0  0  1  0  0  0  0  0  0  0  0  0
    1.2516   -0.1927   -0.7655 H   0  0  0  0  0  0  0  0  0  0  0  0
    1.9077   -1.0329    0.9158 C   0  0  0  0  0  0  0  0  0  0  0  0
    1.8340   -1.1386    2.1345 O   0  0  0  0  0  0  0  0  0  0  0  0
    3.1641   -1.0944    0.3330 N   0  0  0  0  0  0  0  0  0  0  0  0
    3.1968   -1.0662   -0.6813 H   0  0  0  0  0  0  0  0  0  0  0  0
    4.3427   -1.5648    1.0509 C   0  0  0  0  0  0  0  0  0  0  0  0
    4.1864   -2.5852    1.4167 H   0  0  0  0  0  0  0  0  0  0  0  0
    5.2140   -1.5627    0.3892 H   0  0  0  0  0  0  0  0  0  0  0  0
    4.5571   -0.9131    1.9045 H   0  0  0  0  0  0  0  0  0  0  0  0
  1  2  1  0  0  0  0
  2  3  1  0  0  0  0
  2  4  1  0  0  0  0
  2  5  1  0  0  0  0
  5  6  2  0  0  0  0
  5  7  1  0  0  0  0
  7  8  1  0  0  0  0
  7 17  1  0  0  0  0
  8  9  1  0  0  0  0
  8 10  1  0  0  0  0
  8 11  1  0  0  0  0
 11 12  1  0  0  0  0
 11 13  1  0  0  0  0
 11 14  1  0  0  0  0
 14 15  1  0  0  0  0
 14 16  1  0  0  0  0
 14 17  1  0  0  0  0
 17 18  1  0  0  0  0
 17 19  1  0  0  0  0
 19 20  2  0  0  0  0
 19 21  1  0  0  0  0
 21 22  1  0  0  0  0
 21 23  1  0  0  0  0
 23 24  1  0  0  0  0
 23 25  1  0  0  0  0
 23 26  1  0  0  0  0
M  END
$$$$

  -OEChem-11182114133D

 26 26  0     1  0  0  0  0  0999 V2000
   -1.2697   -3.8254    0.8130 H   0  0  0  0  0  0  0  0  0  0  0  0
   -1.4641   -2.7727    0.5895 C   0  0  0  0  0  0  0  0  0  0  0  0
   -1.2529   -2.1936    1.4904 H   0  0  0  0  0  0  0  0  0  0  0  0
   -2.5185   -2.6668    0.3274 H   0  0  0  0  0  0  0  0  0  0  0  0
   -0.5660   -2.3178   -0.5617 C   0  0  0  0  0  0  0  0  0  0  0  0
    0.0953   -3.1674   -1.1388 O   0  0  0  0  0  0  0  0  0  0  0  0
   -0.2889   -0.9976   -0.9301 N   0  0  0  0  0  0  0  0  0  0  0  0
   -1.5095   -0.1899   -0.7929 C   0  0  0  0  0  0  0  0  0  0  0  0
   -2.4377   -0.7699   -0.8275 H   0  0  0  0  0  0  0  0  0  0  0  0
   -1.5505    0.4996   -1.6433 H   0  0  0  0  0  0  0  0  0  0  0  0
   -1.4241    0.6344    0.5125 C   0  0  0  0  0  0  0  0  0  0  0  0
   -1.7224    0.0393    1.3806 H   0  0  0  0  0  0  0  0  0  0  0  0
   -2.0399    1.5386    0.4759 H   0  0  0  0  0  0  0  0  0  0  0  0
    0.0509    0.9419    0.5490 C   0  0  0  0  0  0  0  0  0  0  0  0
    0.3994    1.1278    1.5704 H   0  0  0  0  0  0  0  0  0  0  0  0
    0.2792    1.8193   -0.0661 H   0  0  0  0  0  0  0  0  0  0  0  0
    0.6695   -0.3200   -0.0465 C   0  0  1  0  0  0  0  0  0  0  0  0
    1.3146    0.1226   -0.8117 H   0  0  0  0  0  0  0  0  0  0  0  0
    1.7690   -1.0930    0.7207 C   0  0  0  0  0  0  0  0  0  0  0  0
    1.4506   -1.7728    1.6880 O   0  0  0  0  0  0  0  0  0  0  0  0
    3.1107   -0.8168    0.5170 N   0  0  0  0  0  0  0  0  0  0  0  0
    3.3540   -0.3004   -0.3230 H   0  0  0  0  0  0  0  0  0  0  0  0
    4.1763   -1.4880    1.2520 C   0  0  0  0  0  0  0  0  0  0  0  0
    4.1478   -2.5669    1.0669 H   0  0  0  0  0  0  0  0  0  0  0  0
    5.1517   -1.1071    0.9348 H   0  0  0  0  0  0  0  0  0  0  0  0
    4.0719   -1.3119    2.3279 H   0  0  0  0  0  0  0  0  0  0  0  0
  1  2  1  0  0  0  0
  2  3  1  0  0  0  0
  2  4  1  0  0  0  0
  2  5  1  0  0  0  0
  5  6  2  0  0  0  0
  5  7  1  0  0  0  0
  7  8  1  0  0  0  0
  7 17  1  0  0  0  0
  8  9  1  0  0  0  0
  8 10  1  0  0  0  0
  8 11  1  0  0  0  0
 11 12  1  0  0  0  0
 11 13  1  0  0  0  0
 11 14  1  0  0  0  0
 14 15  1  0  0  0  0
 14 16  1  0  0  0  0
 14 17  1  0  0  0  0
 17 18  1  0  0  0  0
 17 19  1  0  0  0  0
 19 20  2  0  0  0  0
 19 21  1  0  0  0  0
 21 22  1  0  0  0  0
 21 23  1  0  0  0  0
 23 24  1  0  0  0  0
 23 25  1  0  0  0  0
 23 26  1  0  0  0  0
M  END
$$$$

  -OEChem-11182114133D

 26 26  0     1  0  0  0  0  0999 V2000
   -1.1375   -3.8246    0.8237 H   0  0  0  0  0  0  0  0  0  0  0  0
   -1.3785   -2.7800    0.6074 C   0  0  0  0  0  0  0  0  0  0  0  0
   -1.1202   -2.1866    1.4860 H   0  0  0  0  0  0  0  0  0  0  0  0
   -2.4515   -2.7026    0.4213 H   0  0  0  0  0  0  0  0  0  0  0  0
   -0.5844   -2.3141   -0.6136 C   0  0  0  0  0  0  0  0  0  0  0  0
   -0.1078   -3.1639   -1.3497 O   0  0  0  0  0  0  0  0  0  0  0  0
   -0.2997   -0.9893   -0.9560 N   0  0  0  0  0  0  0  0  0  0  0  0
   -1.5214   -0.1901   -0.7810 C   0  0  0  0  0  0  0  0  0  0  0  0
   -2.4459   -0.7783   -0.7865 H   0  0  0  0  0  0  0  0  0  0  0  0
   -1.5936    0.5006   -1.6284 H   0  0  0  0  0  0  0  0  0  0  0  0
   -1.4039    0.6303    0.5228 C   0  0  0  0  0  0  0  0  0  0  0  0
   -1.6769    0.0308    1.3961 H   0  0  0  0  0  0  0  0  0  0  0  0
   -2.0250    1.5314    0.5056 H   0  0  0  0  0  0  0  0  0  0  0  0
    0.0701    0.9444    0.5222 C   0  0  0  0  0  0  0  0  0  0  0  0
    0.4431    1.1286    1.5352 H   0  0  0  0  0  0  0  0  0  0  0  0
    0.2777    1.8253   -0.0954 H   0  0  0  0  0  0  0  0  0  0  0  0
    0.6803   -0.3119   -0.0936 C   0  0  1  0  0  0  0  0  0  0  0  0
    1.3029    0.1296   -0.8781 H   0  0  0  0  0  0  0  0  0  0  0  0
    1.8129   -1.0619    0.6498 C   0  0  0  0  0  0  0  0  0  0  0  0
    1.5436   -1.9501    1.4471 O   0  0  0  0  0  0  0  0  0  0  0  0
    3.1035   -0.5592    0.6441 N   0  0  0  0  0  0  0  0  0  0  0  0
    3.3212    0.1656   -0.0330 H   0  0  0  0  0  0  0  0  0  0  0  0
    4.1970   -1.1620    1.3977 C   0  0  0  0  0  0  0  0  0  0  0  0
    4.3515   -2.2002    1.0849 H   0  0  0  0  0  0  0  0  0  0  0  0
    5.1247   -0.6075    1.2268 H   0  0  0  0  0  0  0  0  0  0  0  0
    3.9782   -1.1455    2.4706 H   0  0  0  0  0  0  0  0  0  0  0  0
  1  2  1  0  0  0  0
  2  3  1  0  0  0  0
  2  4  1  0  0  0  0
  2  5  1  0  0  0  0
  5  6  2  0  0  0  0
  5  7  1  0  0  0  0
  7  8  1  0  0  0  0
  7 17  1  0  0  0  0
  8  9  1  0  0  0  0
  8 10  1  0  0  0  0
  8 11  1  0  0  0  0
 11 12  1  0  0  0  0
 11 13  1  0  0  0  0
 11 14  1  0  0  0  0
 14 15  1  0  0  0  0
 14 16  1  0  0  0  0
 14 17  1  0  0  0  0
 17 18  1  0  0  0  0
 17 19  1  0  0  0  0
 19 20  2  0  0  0  0
 19 21  1  0  0  0  0
 21 22  1  0  0  0  0
 21 23  1  0  0  0  0
 23 24  1  0  0  0  0
 23 25  1  0  0  0  0
 23 26  1  0  0  0  0
M  END
$$$$

  -OEChem-11182114133D

 26 26  0     1  0  0  0  0  0999 V2000
   -0.4824   -3.7235    0.9143 H   0  0  0  0  0  0  0  0  0  0  0  0
   -1.0761   -2.8344    0.6871 C   0  0  0  0  0  0  0  0  0  0  0  0
   -0.8976   -2.0881    1.4628 H   0  0  0  0  0  0  0  0  0  0  0  0
   -2.1353   -3.1028    0.7012 H   0  0  0  0  0  0  0  0  0  0  0  0
   -0.6938   -2.3054   -0.6931 C   0  0  0  0  0  0  0  0  0  0  0  0
   -1.1220   -2.9335   -1.6511 O   0  0  0  0  0  0  0  0  0  0  0  0
   -0.3037   -0.9882   -0.9508 N   0  0  0  0  0  0  0  0  0  0  0  0
   -1.5202   -0.1678   -0.8396 C   0  0  0  0  0  0  0  0  0  0  0  0
   -2.4542   -0.7443   -0.8144 H   0  0  0  0  0  0  0  0  0  0  0  0
   -1.5752    0.4817   -1.7198 H   0  0  0  0  0  0  0  0  0  0  0  0
   -1.4057    0.6996    0.4315 C   0  0  0  0  0  0  0  0  0  0  0  0
   -1.7164    0.1356    1.3165 H   0  0  0  0  0  0  0  0  0  0  0  0
   -2.0041    1.6138    0.3660 H   0  0  0  0  0  0  0  0  0  0  0  0
    0.0764    0.9783    0.4624 C   0  0  0  0  0  0  0  0  0  0  0  0
    0.4210    1.1967    1.4785 H   0  0  0  0  0  0  0  0  0  0  0  0
    0.3217    1.8294   -0.1825 H   0  0  0  0  0  0  0  0  0  0  0  0
    0.6791   -0.3134   -0.0867 C   0  0  1  0  0  0  0  0  0  0  0  0
    1.3201    0.0841   -0.8805 H   0  0  0  0  0  0  0  0  0  0  0  0
    1.8178   -1.0133    0.6988 C   0  0  0  0  0  0  0  0  0  0  0  0
    1.7317   -2.1627    1.1033 O   0  0  0  0  0  0  0  0  0  0  0  0
    2.9939   -0.3248    0.9457 N   0  0  0  0  0  0  0  0  0  0  0  0
    3.0833    0.6101    0.5589 H   0  0  0  0  0  0  0  0  0  0  0  0
    4.1434   -0.9153    1.6226 C   0  0  0  0  0  0  0  0  0  0  0  0
    4.5282   -1.7670    1.0519 H   0  0  0  0  0  0  0  0  0  0  0  0
    4.9439   -0.1761    1.7233 H   0  0  0  0  0  0  0  0  0  0  0  0
    3.8644   -1.2592    2.6242 H   0  0  0  0  0  0  0  0  0  0  0  0
  1  2  1  0  0  0  0
  2  3  1  0  0  0  0
  2  4  1  0  0  0  0
  2  5  1  0  0  0  0
  5  6  2  0  0  0  0
  5  7  1  0  0  0  0
  7  8  1  0  0  0  0
  7 17  1  0  0  0  0
  8  9  1  0  0  0  0
  8 10  1  0  0  0  0
  8 11  1  0  0  0  0
 11 12  1  0  0  0  0
 11 13  1  0  0  0  0
 11 14  1  0  0  0  0
 14 15  1  0  0  0  0
 14 16  1  0  0  0  0
 14 17  1  0  0  0  0
 17 18  1  0  0  0  0
 17 19  1  0  0  0  0
 19 20  2  0  0  0  0
 19 21  1  0  0  0  0
 21 22  1  0  0  0  0
 21 23  1  0  0  0  0
 23 24  1  0  0  0  0
 23 25  1  0  0  0  0
 23 26  1  0  0  0  0
M  END
$$$$

  -OEChem-11182114133D

 26 26  0     1  0  0  0  0  0999 V2000
   -0.2625   -3.6856    0.8796 H   0  0  0  0  0  0  0  0  0  0  0  0
   -0.9288   -2.8379    0.7012 C   0  0  0  0  0  0  0  0  0  0  0  0
   -0.7488   -2.0822    1.4675 H   0  0  0  0  0  0  0  0  0  0  0  0
   -1.9636   -3.1785    0.7884 H   0  0  0  0  0  0  0  0  0  0  0  0
   -0.6846   -2.2806   -0.6992 C   0  0  0  0  0  0  0  0  0  0  0  0
   -1.2119   -2.8879   -1.6215 O   0  0  0  0  0  0  0  0  0  0  0  0
   -0.3106   -0.9585   -0.9599 N   0  0  0  0  0  0  0  0  0  0  0  0
   -1.5380   -0.1538   -0.8518 C   0  0  0  0  0  0  0  0  0  0  0  0
   -2.4652   -0.7407   -0.8161 H   0  0  0  0  0  0  0  0  0  0  0  0
   -1.6052    0.4883   -1.7367 H   0  0  0  0  0  0  0  0  0  0  0  0
   -1.4296    0.7228    0.4126 C   0  0  0  0  0  0  0  0  0  0  0  0
   -1.7305    0.1580    1.3007 H   0  0  0  0  0  0  0  0  0  0  0  0
   -2.0398    1.6290    0.3445 H   0  0  0  0  0  0  0  0  0  0  0  0
    0.0492    1.0193    0.4381 C   0  0  0  0  0  0  0  0  0  0  0  0
    0.3897    1.2518    1.4523 H   0  0  0  0  0  0  0  0  0  0  0  0
    0.2820    1.8684   -0.2142 H   0  0  0  0  0  0  0  0  0  0  0  0
    0.6695   -0.2687   -0.1035 C   0  0  1  0  0  0  0  0  0  0  0  0
    1.3072    0.1334   -0.8979 H   0  0  0  0  0  0  0  0  0  0  0  0
    1.8238   -0.9483    0.6775 C   0  0  0  0  0  0  0  0  0  0  0  0
    1.9206   -2.1610    0.7913 O   0  0  0  0  0  0  0  0  0  0  0  0
    2.8473   -0.1662    1.1858 N   0  0  0  0  0  0  0  0  0  0  0  0
    2.8037    0.8344    1.0180 H   0  0  0  0  0  0  0  0  0  0  0  0
    4.0298   -0.7152    1.8403 C   0  0  0  0  0  0  0  0  0  0  0  0
    4.6022   -1.3342    1.1414 H   0  0  0  0  0  0  0  0  0  0  0  0
    4.6755    0.0941    2.1944 H   0  0  0  0  0  0  0  0  0  0  0  0
    3.7430   -1.3285    2.7010 H   0  0  0  0  0  0  0  0  0  0  0  0
  1  2  1  0  0  0  0
  2  3  1  0  0  0  0
  2  4  1  0  0  0  0
  2  5  1  0  0  0  0
  5  6  2  0  0  0  0
  5  7  1  0  0  0  0
  7  8  1  0  0  0  0
  7 17  1  0  0  0  0
  8  9  1  0  0  0  0
  8 10  1  0  0  0  0
  8 11  1  0  0  0  0
 11 12  1  0  0  0  0
 11 13  1  0  0  0  0
 11 14  1  0  0  0  0
 14 15  1  0  0  0  0
 14 16  1  0  0  0  0
 14 17  1  0  0  0  0
 17 18  1  0  0  0  0
 17 19  1  0  0  0  0
 19 20  2  0  0  0  0
 19 21  1  0  0  0  0
 21 22  1  0  0  0  0
 21 23  1  0  0  0  0
 23 24  1  0  0  0  0
 23 25  1  0  0  0  0
 23 26  1  0  0  0  0
M  END
$$$$

  -OEChem-11182114133D

 26 26  0     1  0  0  0  0  0999 V2000
   -0.1322   -3.7109   -0.6811 H   0  0  0  0  0  0  0  0  0  0  0  0
   -1.0841   -3.4118   -0.2351 C   0  0  0  0  0  0  0  0  0  0  0  0
   -1.3634   -4.1465    0.5247 H   0  0  0  0  0  0  0  0  0  0  0  0
   -1.8520   -3.3931   -1.0115 H   0  0  0  0  0  0  0  0  0  0  0  0
   -0.9438   -2.0350    0.3889 C   0  0  0  0  0  0  0  0  0  0  0  0
   -1.1493   -1.9010    1.5926 O   0  0  0  0  0  0  0  0  0  0  0  0
   -0.5914   -0.9570   -0.4288 N   0  0  0  0  0  0  0  0  0  0  0  0
   -1.7038    0.0023   -0.3046 C   0  0  0  0  0  0  0  0  0  0  0  0
   -2.6612   -0.4611   -0.0327 H   0  0  0  0  0  0  0  0  0  0  0  0
   -1.8539    0.4762   -1.2806 H   0  0  0  0  0  0  0  0  0  0  0  0
   -1.3260    1.0898    0.7313 C   0  0  0  0  0  0  0  0  0  0  0  0
   -1.4982    0.7326    1.7523 H   0  0  0  0  0  0  0  0  0  0  0  0
   -1.8799    2.0216    0.5824 H   0  0  0  0  0  0  0  0  0  0  0  0
    0.1468    1.2358    0.4521 C   0  0  0  0  0  0  0  0  0  0  0  0
    0.6775    1.6118    1.3319 H   0  0  0  0  0  0  0  0  0  0  0  0
    0.3189    1.9218   -0.3850 H   0  0  0  0  0  0  0  0  0  0  0  0
    0.5521   -0.1949    0.0914 C   0  0  1  0  0  0  0  0  0  0  0  0
    1.0218    0.0161   -0.8751 H   0  0  0  0  0  0  0  0  0  0  0  0
    1.8281   -0.8644    0.6600 C   0  0  0  0  0  0  0  0  0  0  0  0
    2.0181   -2.0691    0.5443 O   0  0  0  0  0  0  0  0  0  0  0  0
    2.8668   -0.0818    1.1356 N   0  0  0  0  0  0  0  0  0  0  0  0
    2.6978    0.9144    1.2310 H   0  0  0  0  0  0  0  0  0  0  0  0
    4.1169   -0.6342    1.6440 C   0  0  0  0  0  0  0  0  0  0  0  0
    4.6284   -1.2076    0.8637 H   0  0  0  0  0  0  0  0  0  0  0  0
    4.7812    0.1713    1.9715 H   0  0  0  0  0  0  0  0  0  0  0  0
    3.9250   -1.2932    2.4975 H   0  0  0  0  0  0  0  0  0  0  0  0
  1  2  1  0  0  0  0
  2  3  1  0  0  0  0
  2  4  1  0  0  0  0
  2  5  1  0  0  0  0
  5  6  2  0  0  0  0
  5  7  1  0  0  0  0
  7  8  1  0  0  0  0
  7 17  1  0  0  0  0
  8  9  1  0  0  0  0
  8 10  1  0  0  0  0
  8 11  1  0  0  0  0
 11 12  1  0  0  0  0
 11 13  1  0  0  0  0
 11 14  1  0  0  0  0
 14 15  1  0  0  0  0
 14 16  1  0  0  0  0
 14 17  1  0  0  0  0
 17 18  1  0  0  0  0
 17 19  1  0  0  0  0
 19 20  2  0  0  0  0
 19 21  1  0  0  0  0
 21 22  1  0  0  0  0
 21 23  1  0  0  0  0
 23 24  1  0  0  0  0
 23 25  1  0  0  0  0
 23 26  1  0  0  0  0
M  END
$$$$

  -OEChem-11182114133D

 26 26  0     1  0  0  0  0  0999 V2000
   -0.1052   -3.7121   -0.5766 H   0  0  0  0  0  0  0  0  0  0  0  0
   -1.0540   -3.3956   -0.1358 C   0  0  0  0  0  0  0  0  0  0  0  0
   -1.3282   -4.1003    0.6538 H   0  0  0  0  0  0  0  0  0  0  0  0
   -1.8268   -3.4068   -0.9075 H   0  0  0  0  0  0  0  0  0  0  0  0
   -0.9080   -1.9957    0.4327 C   0  0  0  0  0  0  0  0  0  0  0  0
   -1.0497   -1.8226    1.6405 O   0  0  0  0  0  0  0  0  0  0  0  0
   -0.5815   -0.9480   -0.4329 N   0  0  0  0  0  0  0  0  0  0  0  0
   -1.7145   -0.0102   -0.3389 C   0  0  0  0  0  0  0  0  0  0  0  0
   -2.6596   -0.4840   -0.0431 H   0  0  0  0  0  0  0  0  0  0  0  0
   -1.8804    0.4224   -1.3315 H   0  0  0  0  0  0  0  0  0  0  0  0
   -1.3561    1.1243    0.6529 C   0  0  0  0  0  0  0  0  0  0  0  0
   -1.5155    0.8029    1.6878 H   0  0  0  0  0  0  0  0  0  0  0  0
   -1.9310    2.0377    0.4713 H   0  0  0  0  0  0  0  0  0  0  0  0
    0.1118    1.2924    0.3599 C   0  0  0  0  0  0  0  0  0  0  0  0
    0.6374    1.7175    1.2197 H   0  0  0  0  0  0  0  0  0  0  0  0
    0.2633    1.9480   -0.5051 H   0  0  0  0  0  0  0  0  0  0  0  0
    0.5469   -0.1422    0.0513 C   0  0  1  0  0  0  0  0  0  0  0  0
    1.0145    0.0463   -0.9209 H   0  0  0  0  0  0  0  0  0  0  0  0
    1.8256   -0.7865    0.6412 C   0  0  0  0  0  0  0  0  0  0  0  0
    2.1193   -1.9455    0.3726 O   0  0  0  0  0  0  0  0  0  0  0  0
    2.7283   -0.0266    1.3648 N   0  0  0  0  0  0  0  0  0  0  0  0
    2.4439    0.9118    1.6264 H   0  0  0  0  0  0  0  0  0  0  0  0
    3.9479   -0.5762    1.9451 C   0  0  0  0  0  0  0  0  0  0  0  0
    4.5782   -1.0189    1.1666 H   0  0  0  0  0  0  0  0  0  0  0  0
    4.5196    0.2133    2.4419 H   0  0  0  0  0  0  0  0  0  0  0  0
    3.7062   -1.3475    2.6839 H   0  0  0  0  0  0  0  0  0  0  0  0
  1  2  1  0  0  0  0
  2  3  1  0  0  0  0
  2  4  1  0  0  0  0
  2  5  1  0  0  0  0
  5  6  2  0  0  0  0
  5  7  1  0  0  0  0
  7  8  1  0  0  0  0
  7 17  1  0  0  0  0
  8  9  1  0  0  0  0
  8 10  1  0  0  0  0
  8 11  1  0  0  0  0
 11 12  1  0  0  0  0
 11 13  1  0  0  0  0
 11 14  1  0  0  0  0
 14 15  1  0  0  0  0
 14 16  1  0  0  0  0
 14 17  1  0  0  0  0
 17 18  1  0  0  0  0
 17 19  1  0  0  0  0
 19 20  2  0  0  0  0
 19 21  1  0  0  0  0
 21 22  1  0  0  0  0
 21 23  1  0  0  0  0
 23 24  1  0  0  0  0
 23 25  1  0  0  0  0
 23 26  1  0  0  0  0
M  END
$$$$

  -OEChem-11182114133D

 26 26  0     1  0  0  0  0  0999 V2000
   -0.2911   -3.7323   -0.6612 H   0  0  0  0  0  0  0  0  0  0  0  0
   -1.1414   -3.3647   -0.0809 C   0  0  0  0  0  0  0  0  0  0  0  0
   -1.3346   -4.0598    0.7407 H   0  0  0  0  0  0  0  0  0  0  0  0
   -2.0219   -3.3226   -0.7259 H   0  0  0  0  0  0  0  0  0  0  0  0
   -0.8270   -1.9820    0.4609 C   0  0  0  0  0  0  0  0  0  0  0  0
   -0.8524   -1.7945    1.6746 O   0  0  0  0  0  0  0  0  0  0  0  0
   -0.5192   -0.9580   -0.4381 N   0  0  0  0  0  0  0  0  0  0  0  0
   -1.6867   -0.0618   -0.3771 C   0  0  0  0  0  0  0  0  0  0  0  0
   -2.6163   -0.5590   -0.0700 H   0  0  0  0  0  0  0  0  0  0  0  0
   -1.8632    0.3337   -1.3833 H   0  0  0  0  0  0  0  0  0  0  0  0
   -1.3740    1.1157    0.5805 C   0  0  0  0  0  0  0  0  0  0  0  0
   -1.5244    0.8193    1.6242 H   0  0  0  0  0  0  0  0  0  0  0  0
   -1.9821    2.0008    0.3700 H   0  0  0  0  0  0  0  0  0  0  0  0
    0.0878    1.3301    0.2843 C   0  0  0  0  0  0  0  0  0  0  0  0
    0.5979    1.8044    1.1273 H   0  0  0  0  0  0  0  0  0  0  0  0
    0.2150    1.9618   -0.6021 H   0  0  0  0  0  0  0  0  0  0  0  0
    0.5769   -0.0962    0.0214 C   0  0  1  0  0  0  0  0  0  0  0  0
    1.0480    0.0815   -0.9512 H   0  0  0  0  0  0  0  0  0  0  0  0
    1.8615   -0.6921    0.6463 C   0  0  0  0  0  0  0  0  0  0  0  0
    2.2922   -1.7710    0.2554 O   0  0  0  0  0  0  0  0  0  0  0  0
    2.5809    0.0116    1.5963 N   0  0  0  0  0  0  0  0  0  0  0  0
    2.1331    0.8299    1.9962 H   0  0  0  0  0  0  0  0  0  0  0  0
    3.7481   -0.5411    2.2728 C   0  0  0  0  0  0  0  0  0  0  0  0
    4.5013   -0.8591    1.5442 H   0  0  0  0  0  0  0  0  0  0  0  0
    4.1997    0.2131    2.9243 H   0  0  0  0  0  0  0  0  0  0  0  0
    3.4622   -1.4038    2.8837 H   0  0  0  0  0  0  0  0  0  0  0  0
  1  2  1  0  0  0  0
  2  3  1  0  0  0  0
  2  4  1  0  0  0  0
  2  5  1  0  0  0  0
  5  6  2  0  0  0  0
  5  7  1  0  0  0  0
  7  8  1  0  0  0  0
  7 17  1  0  0  0  0
  8  9  1  0  0  0  0
  8 10  1  0  0  0  0
  8 11  1  0  0  0  0
 11 12  1  0  0  0  0
 11 13  1  0  0  0  0
 11 14  1  0  0  0  0
 14 15  1  0  0  0  0
 14 16  1  0  0  0  0
 14 17  1  0  0  0  0
 17 18  1  0  0  0  0
 17 19  1  0  0  0  0
 19 20  2  0  0  0  0
 19 21  1  0  0  0  0
 21 22  1  0  0  0  0
 21 23  1  0  0  0  0
 23 24  1  0  0  0  0
 23 25  1  0  0  0  0
 23 26  1  0  0  0  0
M  END
$$$$

  -OEChem-11182114133D

 26 26  0     1  0  0  0  0  0999 V2000
   -0.5438   -4.1130    0.1414 H   0  0  0  0  0  0  0  0  0  0  0  0
   -1.2814   -3.3255   -0.0333 C   0  0  0  0  0  0  0  0  0  0  0  0
   -2.2083   -3.5787    0.4870 H   0  0  0  0  0  0  0  0  0  0  0  0
   -1.4830   -3.2650   -1.1057 H   0  0  0  0  0  0  0  0  0  0  0  0
   -0.7440   -2.0004    0.4788 C   0  0  0  0  0  0  0  0  0  0  0  0
   -0.6300   -1.8430    1.6909 O   0  0  0  0  0  0  0  0  0  0  0  0
   -0.4607   -0.9749   -0.4268 N   0  0  0  0  0  0  0  0  0  0  0  0
   -1.6658   -0.1302   -0.3757 C   0  0  0  0  0  0  0  0  0  0  0  0
   -2.5757   -0.6588   -0.0617 H   0  0  0  0  0  0  0  0  0  0  0  0
   -1.8588    0.2452   -1.3864 H   0  0  0  0  0  0  0  0  0  0  0  0
   -1.4010    1.0714    0.5672 C   0  0  0  0  0  0  0  0  0  0  0  0
   -1.5333    0.7786    1.6143 H   0  0  0  0  0  0  0  0  0  0  0  0
   -2.0483    1.9267    0.3502 H   0  0  0  0  0  0  0  0  0  0  0  0
    0.0492    1.3464    0.2628 C   0  0  0  0  0  0  0  0  0  0  0  0
    0.5445    1.8532    1.0961 H   0  0  0  0  0  0  0  0  0  0  0  0
    0.1454    1.9716   -0.6321 H   0  0  0  0  0  0  0  0  0  0  0  0
    0.5981   -0.0598    0.0164 C   0  0  1  0  0  0  0  0  0  0  0  0
    1.0591    0.1265   -0.9599 H   0  0  0  0  0  0  0  0  0  0  0  0
    1.9035   -0.5918    0.6542 C   0  0  0  0  0  0  0  0  0  0  0  0
    2.5117   -1.5179    0.1303 O   0  0  0  0  0  0  0  0  0  0  0  0
    2.4213   -0.0030    1.7941 N   0  0  0  0  0  0  0  0  0  0  0  0
    1.7976    0.6174    2.3009 H   0  0  0  0  0  0  0  0  0  0  0  0
    3.5826   -0.5370    2.4951 C   0  0  0  0  0  0  0  0  0  0  0  0
    4.4573   -0.5472    1.8365 H   0  0  0  0  0  0  0  0  0  0  0  0
    3.8159    0.0824    3.3663 H   0  0  0  0  0  0  0  0  0  0  0  0
    3.3870   -1.5587    2.8374 H   0  0  0  0  0  0  0  0  0  0  0  0
  1  2  1  0  0  0  0
  2  3  1  0  0  0  0
  2  4  1  0  0  0  0
  2  5  1  0  0  0  0
  5  6  2  0  0  0  0
  5  7  1  0  0  0  0
  7  8  1  0  0  0  0
  7 17  1  0  0  0  0
  8  9  1  0  0  0  0
  8 10  1  0  0  0  0
  8 11  1  0  0  0  0
 11 12  1  0  0  0  0
 11 13  1  0  0  0  0
 11 14  1  0  0  0  0
 14 15  1  0  0  0  0
 14 16  1  0  0  0  0
 14 17  1  0  0  0  0
 17 18  1  0  0  0  0
 17 19  1  0  0  0  0
 19 20  2  0  0  0  0
 19 21  1  0  0  0  0
 21 22  1  0  0  0  0
 21 23  1  0  0  0  0
 23 24  1  0  0  0  0
 23 25  1  0  0  0  0
 23 26  1  0  0  0  0
M  END
$$$$

  -OEChem-11182114133D

 26 26  0     1  0  0  0  0  0999 V2000
   -0.6366   -4.1216    0.2348 H   0  0  0  0  0  0  0  0  0  0  0  0
   -1.3141   -3.2989   -0.0076 C   0  0  0  0  0  0  0  0  0  0  0  0
   -2.2827   -3.4790    0.4651 H   0  0  0  0  0  0  0  0  0  0  0  0
   -1.4503   -3.2646   -1.0914 H   0  0  0  0  0  0  0  0  0  0  0  0
   -0.7282   -1.9896    0.4920 C   0  0  0  0  0  0  0  0  0  0  0  0
   -0.5833   -1.8368    1.7013 O   0  0  0  0  0  0  0  0  0  0  0  0
   -0.4349   -0.9727   -0.4199 N   0  0  0  0  0  0  0  0  0  0  0  0
   -1.6510   -0.1427   -0.3985 C   0  0  0  0  0  0  0  0  0  0  0  0
   -2.5612   -0.6772   -0.0953 H   0  0  0  0  0  0  0  0  0  0  0  0
   -1.8297    0.2198   -1.4167 H   0  0  0  0  0  0  0  0  0  0  0  0
   -1.4178    1.0735    0.5357 C   0  0  0  0  0  0  0  0  0  0  0  0
   -1.5594    0.7894    1.5842 H   0  0  0  0  0  0  0  0  0  0  0  0
   -2.0743    1.9170    0.3012 H   0  0  0  0  0  0  0  0  0  0  0  0
    0.0322    1.3660    0.2478 C   0  0  0  0  0  0  0  0  0  0  0  0
    0.5128    1.8863    1.0819 H   0  0  0  0  0  0  0  0  0  0  0  0
    0.1326    1.9825   -0.6528 H   0  0  0  0  0  0  0  0  0  0  0  0
    0.6017   -0.0344    0.0258 C   0  0  1  0  0  0  0  0  0  0  0  0
    1.0697    0.1466   -0.9484 H   0  0  0  0  0  0  0  0  0  0  0  0
    1.9032   -0.5302    0.6980 C   0  0  0  0  0  0  0  0  0  0  0  0
    2.6719   -1.2715    0.0964 O   0  0  0  0  0  0  0  0  0  0  0  0
    2.2141   -0.1230    1.9822 N   0  0  0  0  0  0  0  0  0  0  0  0
    1.4411    0.2662    2.5149 H   0  0  0  0  0  0  0  0  0  0  0  0
    3.3480   -0.6642    2.7203 C   0  0  0  0  0  0  0  0  0  0  0  0
    4.2823   -0.4789    2.1800 H   0  0  0  0  0  0  0  0  0  0  0  0
    3.4198   -0.1884    3.7030 H   0  0  0  0  0  0  0  0  0  0  0  0
    3.2310   -1.7435    2.8637 H   0  0  0  0  0  0  0  0  0  0  0  0
  1  2  1  0  0  0  0
  2  3  1  0  0  0  0
  2  4  1  0  0  0  0
  2  5  1  0  0  0  0
  5  6  2  0  0  0  0
  5  7  1  0  0  0  0
  7  8  1  0  0  0  0
  7 17  1  0  0  0  0
  8  9  1  0  0  0  0
  8 10  1  0  0  0  0
  8 11  1  0  0  0  0
 11 12  1  0  0  0  0
 11 13  1  0  0  0  0
 11 14  1  0  0  0  0
 14 15  1  0  0  0  0
 14 16  1  0  0  0  0
 14 17  1  0  0  0  0
 17 18  1  0  0  0  0
 17 19  1  0  0  0  0
 19 20  2  0  0  0  0
 19 21  1  0  0  0  0
 21 22  1  0  0  0  0
 21 23  1  0  0  0  0
 23 24  1  0  0  0  0
 23 25  1  0  0  0  0
 23 26  1  0  0  0  0
M  END
$$$$

  -OEChem-11182114133D

 26 26  0     1  0  0  0  0  0999 V2000
   -0.7119   -4.1183    0.2811 H   0  0  0  0  0  0  0  0  0  0  0  0
   -1.3562   -3.2800    0.0043 C   0  0  0  0  0  0  0  0  0  0  0  0
   -2.3453   -3.4258    0.4454 H   0  0  0  0  0  0  0  0  0  0  0  0
   -1.4539   -3.2575   -1.0840 H   0  0  0  0  0  0  0  0  0  0  0  0
   -0.7509   -1.9806    0.5069 C   0  0  0  0  0  0  0  0  0  0  0  0
   -0.6148   -1.8290    1.7173 O   0  0  0  0  0  0  0  0  0  0  0  0
   -0.4259   -0.9725   -0.4039 N   0  0  0  0  0  0  0  0  0  0  0  0
   -1.6410   -0.1402   -0.4230 C   0  0  0  0  0  0  0  0  0  0  0  0
   -2.5608   -0.6683   -0.1378 H   0  0  0  0  0  0  0  0  0  0  0  0
   -1.7926    0.2108   -1.4496 H   0  0  0  0  0  0  0  0  0  0  0  0
   -1.4300    1.0868    0.5030 C   0  0  0  0  0  0  0  0  0  0  0  0
   -1.5977    0.8152    1.5507 H   0  0  0  0  0  0  0  0  0  0  0  0
   -2.0796    1.9280    0.2422 H   0  0  0  0  0  0  0  0  0  0  0  0
    0.0265    1.3755    0.2470 C   0  0  0  0  0  0  0  0  0  0  0  0
    0.4891    1.9003    1.0889 H   0  0  0  0  0  0  0  0  0  0  0  0
    0.1508    1.9838   -0.6562 H   0  0  0  0  0  0  0  0  0  0  0  0
    0.5990   -0.0269    0.0554 C   0  0  1  0  0  0  0  0  0  0  0  0
    1.0825    0.1422   -0.9135 H   0  0  0  0  0  0  0  0  0  0  0  0
    1.8870   -0.5011    0.7701 C   0  0  0  0  0  0  0  0  0  0  0  0
    2.8153   -0.9926    0.1379 O   0  0  0  0  0  0  0  0  0  0  0  0
    2.0077   -0.3301    2.1362 N   0  0  0  0  0  0  0  0  0  0  0  0
    1.1227   -0.2172    2.6270 H   0  0  0  0  0  0  0  0  0  0  0  0
    3.1395   -0.8536    2.8904 C   0  0  0  0  0  0  0  0  0  0  0  0
    4.0784   -0.4325    2.5156 H   0  0  0  0  0  0  0  0  0  0  0  0
    3.0429   -0.5889    3.9476 H   0  0  0  0  0  0  0  0  0  0  0  0
    3.1838   -1.9445    2.8068 H   0  0  0  0  0  0  0  0  0  0  0  0
  1  2  1  0  0  0  0
  2  3  1  0  0  0  0
  2  4  1  0  0  0  0
  2  5  1  0  0  0  0
  5  6  2  0  0  0  0
  5  7  1  0  0  0  0
  7  8  1  0  0  0  0
  7 17  1  0  0  0  0
  8  9  1  0  0  0  0
  8 10  1  0  0  0  0
  8 11  1  0  0  0  0
 11 12  1  0  0  0  0
 11 13  1  0  0  0  0
 11 14  1  0  0  0  0
 14 15  1  0  0  0  0
 14 16  1  0  0  0  0
 14 17  1  0  0  0  0
 17 18  1  0  0  0  0
 17 19  1  0  0  0  0
 19 20  2  0  0  0  0
 19 21  1  0  0  0  0
 21 22  1  0  0  0  0
 21 23  1  0  0  0  0
 23 24  1  0  0  0  0
 23 25  1  0  0  0  0
 23 26  1  0  0  0  0
M  END
$$$$

  -OEChem-11182114133D

 26 26  0     1  0  0  0  0  0999 V2000
   -0.8162   -4.1270    0.3013 H   0  0  0  0  0  0  0  0  0  0  0  0
   -1.4188   -3.2700   -0.0102 C   0  0  0  0  0  0  0  0  0  0  0  0
   -2.4327   -3.3822    0.3822 H   0  0  0  0  0  0  0  0  0  0  0  0
   -1.4623   -3.2503   -1.1022 H   0  0  0  0  0  0  0  0  0  0  0  0
   -0.7982   -1.9871    0.5167 C   0  0  0  0  0  0  0  0  0  0  0  0
   -0.6924   -1.8477    1.7313 O   0  0  0  0  0  0  0  0  0  0  0  0
   -0.4302   -0.9793   -0.3774 N   0  0  0  0  0  0  0  0  0  0  0  0
   -1.6358   -0.1343   -0.4363 C   0  0  0  0  0  0  0  0  0  0  0  0
   -2.5692   -0.6490   -0.1717 H   0  0  0  0  0  0  0  0  0  0  0  0
   -1.7555    0.2093   -1.4697 H   0  0  0  0  0  0  0  0  0  0  0  0
   -1.4384    1.0993    0.4835 C   0  0  0  0  0  0  0  0  0  0  0  0
   -1.6354    0.8391    1.5291 H   0  0  0  0  0  0  0  0  0  0  0  0
   -2.0737    1.9435    0.1983 H   0  0  0  0  0  0  0  0  0  0  0  0
    0.0267    1.3727    0.2632 C   0  0  0  0  0  0  0  0  0  0  0  0
    0.4723    1.8975    1.1145 H   0  0  0  0  0  0  0  0  0  0  0  0
    0.1824    1.9735   -0.6401 H   0  0  0  0  0  0  0  0  0  0  0  0
    0.5903   -0.0356    0.1000 C   0  0  1  0  0  0  0  0  0  0  0  0
    1.0874    0.1150   -0.8652 H   0  0  0  0  0  0  0  0  0  0  0  0
    1.8663   -0.4908    0.8507 C   0  0  0  0  0  0  0  0  0  0  0  0
    2.9198   -0.6804    0.2530 O   0  0  0  0  0  0  0  0  0  0  0  0
    1.8434   -0.5935    2.2281 N   0  0  0  0  0  0  0  0  0  0  0  0
    0.9086   -0.7166    2.6206 H   0  0  0  0  0  0  0  0  0  0  0  0
    2.9756   -1.0948    2.9960 C   0  0  0  0  0  0  0  0  0  0  0  0
    3.8600   -0.4715    2.8271 H   0  0  0  0  0  0  0  0  0  0  0  0
    2.7422   -1.0773    4.0649 H   0  0  0  0  0  0  0  0  0  0  0  0
    3.2088   -2.1248    2.7068 H   0  0  0  0  0  0  0  0  0  0  0  0
  1  2  1  0  0  0  0
  2  3  1  0  0  0  0
  2  4  1  0  0  0  0
  2  5  1  0  0  0  0
  5  6  2  0  0  0  0
  5  7  1  0  0  0  0
  7  8  1  0  0  0  0
  7 17  1  0  0  0  0
  8  9  1  0  0  0  0
  8 10  1  0  0  0  0
  8 11  1  0  0  0  0
 11 12  1  0  0  0  0
 11 13  1  0  0  0  0
 11 14  1  0  0  0  0
 14 15  1  0  0  0  0
 14 16  1  0  0  0  0
 14 17  1  0  0  0  0
 17 18  1  0  0  0  0
 17 19  1  0  0  0  0
 19 20  2  0  0  0  0
 19 21  1  0  0  0  0
 21 22  1  0  0  0  0
 21 23  1  0  0  0  0
 23 24  1  0  0  0  0
 23 25  1  0  0  0  0
 23 26  1  0  0  0  0
M  END
$$$$

  -OEChem-11182114133D

 26 26  0     1  0  0  0  0  0999 V2000
   -0.9361   -4.1458    0.3326 H   0  0  0  0  0  0  0  0  0  0  0  0
   -1.4731   -3.2767   -0.0561 C   0  0  0  0  0  0  0  0  0  0  0  0
   -2.5271   -3.3524    0.2221 H   0  0  0  0  0  0  0  0  0  0  0  0
   -1.3943   -3.2748   -1.1463 H   0  0  0  0  0  0  0  0  0  0  0  0
   -0.8756   -2.0033    0.5180 C   0  0  0  0  0  0  0  0  0  0  0  0
   -0.8317   -1.8800    1.7373 O   0  0  0  0  0  0  0  0  0  0  0  0
   -0.4577   -0.9901   -0.3462 N   0  0  0  0  0  0  0  0  0  0  0  0
   -1.6457   -0.1222   -0.4379 C   0  0  0  0  0  0  0  0  0  0  0  0
   -2.5951   -0.6169   -0.1928 H   0  0  0  0  0  0  0  0  0  0  0  0
   -1.7343    0.2172   -1.4757 H   0  0  0  0  0  0  0  0  0  0  0  0
   -1.4480    1.1127    0.4783 C   0  0  0  0  0  0  0  0  0  0  0  0
   -1.6749    0.8625    1.5202 H   0  0  0  0  0  0  0  0  0  0  0  0
   -2.0604    1.9669    0.1732 H   0  0  0  0  0  0  0  0  0  0  0  0
    0.0263    1.3582    0.2934 C   0  0  0  0  0  0  0  0  0  0  0  0
    0.4595    1.8795    1.1533 H   0  0  0  0  0  0  0  0  0  0  0  0
    0.2165    1.9504   -0.6089 H   0  0  0  0  0  0  0  0  0  0  0  0
    0.5686   -0.0601    0.1527 C   0  0  1  0  0  0  0  0  0  0  0  0
    1.0821    0.0681   -0.8072 H   0  0  0  0  0  0  0  0  0  0  0  0
    1.8347   -0.5044    0.9298 C   0  0  0  0  0  0  0  0  0  0  0  0
    2.9471   -0.4033    0.4240 O   0  0  0  0  0  0  0  0  0  0  0  0
    1.7400   -0.8985    2.2500 N   0  0  0  0  0  0  0  0  0  0  0  0
    0.7970   -1.1455    2.5604 H   0  0  0  0  0  0  0  0  0  0  0  0
    2.8759   -1.3713    3.0301 C   0  0  0  0  0  0  0  0  0  0  0  0
    3.6592   -0.6070    3.0707 H   0  0  0  0  0  0  0  0  0  0  0  0
    2.5616   -1.5950    4.0540 H   0  0  0  0  0  0  0  0  0  0  0  0
    3.2929   -2.2816    2.5869 H   0  0  0  0  0  0  0  0  0  0  0  0
  1  2  1  0  0  0  0
  2  3  1  0  0  0  0
  2  4  1  0  0  0  0
  2  5  1  0  0  0  0
  5  6  2  0  0  0  0
  5  7  1  0  0  0  0
  7  8  1  0  0  0  0
  7 17  1  0  0  0  0
  8  9  1  0  0  0  0
  8 10  1  0  0  0  0
  8 11  1  0  0  0  0
 11 12  1  0  0  0  0
 11 13  1  0  0  0  0
 11 14  1  0  0  0  0
 14 15  1  0  0  0  0
 14 16  1  0  0  0  0
 14 17  1  0  0  0  0
 17 18  1  0  0  0  0
 17 19  1  0  0  0  0
 19 20  2  0  0  0  0
 19 21  1  0  0  0  0
 21 22  1  0  0  0  0
 21 23  1  0  0  0  0
 23 24  1  0  0  0  0
 23 25  1  0  0  0  0
 23 26  1  0  0  0  0
M  END
$$$$

  -OEChem-11182114133D

 26 26  0     1  0  0  0  0  0999 V2000
   -1.8121   -3.9957    0.6644 H   0  0  0  0  0  0  0  0  0  0  0  0
   -1.4848   -3.2983   -0.1116 C   0  0  0  0  0  0  0  0  0  0  0  0
   -2.3305   -3.0772   -0.7670 H   0  0  0  0  0  0  0  0  0  0  0  0
   -0.6948   -3.7712   -0.7001 H   0  0  0  0  0  0  0  0  0  0  0  0
   -0.9601   -2.0174    0.5155 C   0  0  0  0  0  0  0  0  0  0  0  0
   -0.9633   -1.9125    1.7373 O   0  0  0  0  0  0  0  0  0  0  0  0
   -0.5234   -0.9869   -0.3168 N   0  0  0  0  0  0  0  0  0  0  0  0
   -1.6952   -0.0946   -0.3901 C   0  0  0  0  0  0  0  0  0  0  0  0
   -2.6528   -0.5753   -0.1488 H   0  0  0  0  0  0  0  0  0  0  0  0
   -1.7810    0.2627   -1.4222 H   0  0  0  0  0  0  0  0  0  0  0  0
   -1.4734    1.1211    0.5443 C   0  0  0  0  0  0  0  0  0  0  0  0
   -1.7039    0.8583    1.5824 H   0  0  0  0  0  0  0  0  0  0  0  0
   -2.0699    1.9914    0.2534 H   0  0  0  0  0  0  0  0  0  0  0  0
    0.0046    1.3422    0.3617 C   0  0  0  0  0  0  0  0  0  0  0  0
    0.4482    1.8419    1.2291 H   0  0  0  0  0  0  0  0  0  0  0  0
    0.2055    1.9445   -0.5314 H   0  0  0  0  0  0  0  0  0  0  0  0
    0.5211   -0.0830    0.1975 C   0  0  1  0  0  0  0  0  0  0  0  0
    1.0336    0.0448   -0.7630 H   0  0  0  0  0  0  0  0  0  0  0  0
    1.7924   -0.5428    0.9575 C   0  0  0  0  0  0  0  0  0  0  0  0
    2.8999   -0.1893    0.5689 O   0  0  0  0  0  0  0  0  0  0  0  0
    1.7093   -1.2414    2.1456 N   0  0  0  0  0  0  0  0  0  0  0  0
    0.7729   -1.5387    2.4312 H   0  0  0  0  0  0  0  0  0  0  0  0
    2.8621   -1.6746    2.9234 C   0  0  0  0  0  0  0  0  0  0  0  0
    3.4682   -0.8132    3.2227 H   0  0  0  0  0  0  0  0  0  0  0  0
    2.5318   -2.1949    3.8276 H   0  0  0  0  0  0  0  0  0  0  0  0
    3.4844   -2.3585    2.3370 H   0  0  0  0  0  0  0  0  0  0  0  0
  1  2  1  0  0  0  0
  2  3  1  0  0  0  0
  2  4  1  0  0  0  0
  2  5  1  0  0  0  0
  5  6  2  0  0  0  0
  5  7  1  0  0  0  0
  7  8  1  0  0  0  0
  7 17  1  0  0  0  0
  8  9  1  0  0  0  0
  8 10  1  0  0  0  0
  8 11  1  0  0  0  0
 11 12  1  0  0  0  0
 11 13  1  0  0  0  0
 11 14  1  0  0  0  0
 14 15  1  0  0  0  0
 14 16  1  0  0  0  0
 14 17  1  0  0  0  0
 17 18  1  0  0  0  0
 17 19  1  0  0  0  0
 19 20  2  0  0  0  0
 19 21  1  0  0  0  0
 21 22  1  0  0  0  0
 21 23  1  0  0  0  0
 23 24  1  0  0  0  0
 23 25  1  0  0  0  0
 23 26  1  0  0  0  0
M  END
$$$$

  -OEChem-11182114133D

 26 26  0     1  0  0  0  0  0999 V2000
   -1.9420   -4.0007    0.5825 H   0  0  0  0  0  0  0  0  0  0  0  0
   -1.5859   -3.2952   -0.1733 C   0  0  0  0  0  0  0  0  0  0  0  0
   -2.4216   -3.0229   -0.8222 H   0  0  0  0  0  0  0  0  0  0  0  0
   -0.8146   -3.7824   -0.7750 H   0  0  0  0  0  0  0  0  0  0  0  0
   -1.0113   -2.0545    0.4910 C   0  0  0  0  0  0  0  0  0  0  0  0
   -0.9988   -1.9938    1.7151 O   0  0  0  0  0  0  0  0  0  0  0  0
   -0.5416   -1.0117   -0.3070 N   0  0  0  0  0  0  0  0  0  0  0  0
   -1.6981   -0.1004   -0.3859 C   0  0  0  0  0  0  0  0  0  0  0  0
   -2.6666   -0.5667   -0.1603 H   0  0  0  0  0  0  0  0  0  0  0  0
   -1.7654    0.2686   -1.4153 H   0  0  0  0  0  0  0  0  0  0  0  0
   -1.4683    1.1012    0.5631 C   0  0  0  0  0  0  0  0  0  0  0  0
   -1.7180    0.8314    1.5950 H   0  0  0  0  0  0  0  0  0  0  0  0
   -2.0454    1.9846    0.2730 H   0  0  0  0  0  0  0  0  0  0  0  0
    0.0157    1.2986    0.4047 C   0  0  0  0  0  0  0  0  0  0  0  0
    0.4539    1.7826    1.2837 H   0  0  0  0  0  0  0  0  0  0  0  0
    0.2405    1.9069   -0.4786 H   0  0  0  0  0  0  0  0  0  0  0  0
    0.5136   -0.1329    0.2333 C   0  0  1  0  0  0  0  0  0  0  0  0
    1.0426   -0.0076   -0.7183 H   0  0  0  0  0  0  0  0  0  0  0  0
    1.7792   -0.6030    0.9971 C   0  0  0  0  0  0  0  0  0  0  0  0
    2.8491   -0.0458    0.7800 O   0  0  0  0  0  0  0  0  0  0  0  0
    1.7330   -1.5569    1.9949 N   0  0  0  0  0  0  0  0  0  0  0  0
    0.8023   -1.8946    2.2514 H   0  0  0  0  0  0  0  0  0  0  0  0
    2.8713   -1.9208    2.8279 C   0  0  0  0  0  0  0  0  0  0  0  0
    3.2064   -1.0598    3.4156 H   0  0  0  0  0  0  0  0  0  0  0  0
    2.5921   -2.7242    3.5163 H   0  0  0  0  0  0  0  0  0  0  0  0
    3.7034   -2.2715    2.2084 H   0  0  0  0  0  0  0  0  0  0  0  0
  1  2  1  0  0  0  0
  2  3  1  0  0  0  0
  2  4  1  0  0  0  0
  2  5  1  0  0  0  0
  5  6  2  0  0  0  0
  5  7  1  0  0  0  0
  7  8  1  0  0  0  0
  7 17  1  0  0  0  0
  8  9  1  0  0  0  0
  8 10  1  0  0  0  0
  8 11  1  0  0  0  0
 11 12  1  0  0  0  0
 11 13  1  0  0  0  0
 11 14  1  0  0  0  0
 14 15  1  0  0  0  0
 14 16  1  0  0  0  0
 14 17  1  0  0  0  0
 17 18  1  0  0  0  0
 17 19  1  0  0  0  0
 19 20  2  0  0  0  0
 19 21  1  0  0  0  0
 21 22  1  0  0  0  0
 21 23  1  0  0  0  0
 23 24  1  0  0  0  0
 23 25  1  0  0  0  0
 23 26  1  0  0  0  0
M  END
$$$$

  -OEChem-11182114133D

 26 26  0     1  0  0  0  0  0999 V2000
   -1.9799   -4.0323    0.5074 H   0  0  0  0  0  0  0  0  0  0  0  0
   -1.6913   -3.2709   -0.2228 C   0  0  0  0  0  0  0  0  0  0  0  0
   -2.5826   -2.9481   -0.7655 H   0  0  0  0  0  0  0  0  0  0  0  0
   -0.9863   -3.7122   -0.9314 H   0  0  0  0  0  0  0  0  0  0  0  0
   -1.0419   -2.0870    0.4766 C   0  0  0  0  0  0  0  0  0  0  0  0
   -0.9656   -2.0973    1.6988 O   0  0  0  0  0  0  0  0  0  0  0  0
   -0.5400   -1.0348   -0.2884 N   0  0  0  0  0  0  0  0  0  0  0  0
   -1.6857   -0.1128   -0.3904 C   0  0  0  0  0  0  0  0  0  0  0  0
   -2.6636   -0.5669   -0.1818 H   0  0  0  0  0  0  0  0  0  0  0  0
   -1.7293    0.2572   -1.4206 H   0  0  0  0  0  0  0  0  0  0  0  0
   -1.4615    1.0843    0.5642 C   0  0  0  0  0  0  0  0  0  0  0  0
   -1.7372    0.8162    1.5899 H   0  0  0  0  0  0  0  0  0  0  0  0
   -2.0214    1.9750    0.2626 H   0  0  0  0  0  0  0  0  0  0  0  0
    0.0278    1.2644    0.4409 C   0  0  0  0  0  0  0  0  0  0  0  0
    0.4500    1.7437    1.3303 H   0  0  0  0  0  0  0  0  0  0  0  0
    0.2798    1.8710   -0.4361 H   0  0  0  0  0  0  0  0  0  0  0  0
    0.5159   -0.1726    0.2791 C   0  0  1  0  0  0  0  0  0  0  0  0
    1.0681   -0.0531   -0.6598 H   0  0  0  0  0  0  0  0  0  0  0  0
    1.7715   -0.6471    1.0577 C   0  0  0  0  0  0  0  0  0  0  0  0
    2.7817    0.0461    1.0233 O   0  0  0  0  0  0  0  0  0  0  0  0
    1.7941   -1.7960    1.8251 N   0  0  0  0  0  0  0  0  0  0  0  0
    0.8807   -2.2134    2.0153 H   0  0  0  0  0  0  0  0  0  0  0  0
    2.9210   -2.1810    2.6648 C   0  0  0  0  0  0  0  0  0  0  0  0
    3.0934   -1.4302    3.4427 H   0  0  0  0  0  0  0  0  0  0  0  0
    2.7193   -3.1422    3.1472 H   0  0  0  0  0  0  0  0  0  0  0  0
    3.8304   -2.2824    2.0633 H   0  0  0  0  0  0  0  0  0  0  0  0
  1  2  1  0  0  0  0
  2  3  1  0  0  0  0
  2  4  1  0  0  0  0
  2  5  1  0  0  0  0
  5  6  2  0  0  0  0
  5  7  1  0  0  0  0
  7  8  1  0  0  0  0
  7 17  1  0  0  0  0
  8  9  1  0  0  0  0
  8 10  1  0  0  0  0
  8 11  1  0  0  0  0
 11 12  1  0  0  0  0
 11 13  1  0  0  0  0
 11 14  1  0  0  0  0
 14 15  1  0  0  0  0
 14 16  1  0  0  0  0
 14 17  1  0  0  0  0
 17 18  1  0  0  0  0
 17 19  1  0  0  0  0
 19 20  2  0  0  0  0
 19 21  1  0  0  0  0
 21 22  1  0  0  0  0
 21 23  1  0  0  0  0
 23 24  1  0  0  0  0
 23 25  1  0  0  0  0
 23 26  1  0  0  0  0
M  END
$$$$

  -OEChem-11182114133D

 26 26  0     1  0  0  0  0  0999 V2000
   -1.6388   -4.1911    0.0646 H   0  0  0  0  0  0  0  0  0  0  0  0
   -1.9136   -3.1852   -0.2635 C   0  0  0  0  0  0  0  0  0  0  0  0
   -2.9684   -3.0131   -0.0367 H   0  0  0  0  0  0  0  0  0  0  0  0
   -1.7670   -3.1195   -1.3446 H   0  0  0  0  0  0  0  0  0  0  0  0
   -1.0505   -2.1538    0.4494 C   0  0  0  0  0  0  0  0  0  0  0  0
   -0.8165   -2.3322    1.6359 O   0  0  0  0  0  0  0  0  0  0  0  0
   -0.5026   -1.0894   -0.2687 N   0  0  0  0  0  0  0  0  0  0  0  0
   -1.6290   -0.1565   -0.4458 C   0  0  0  0  0  0  0  0  0  0  0  0
   -2.6227   -0.5882   -0.2711 H   0  0  0  0  0  0  0  0  0  0  0  0
   -1.6186    0.1923   -1.4843 H   0  0  0  0  0  0  0  0  0  0  0  0
   -1.4285    1.0544    0.4958 C   0  0  0  0  0  0  0  0  0  0  0  0
   -1.7601    0.8113    1.5111 H   0  0  0  0  0  0  0  0  0  0  0  0
   -1.9549    1.9496    0.1506 H   0  0  0  0  0  0  0  0  0  0  0  0
    0.0685    1.2062    0.4471 C   0  0  0  0  0  0  0  0  0  0  0  0
    0.4490    1.6968    1.3493 H   0  0  0  0  0  0  0  0  0  0  0  0
    0.3771    1.7930   -0.4253 H   0  0  0  0  0  0  0  0  0  0  0  0
    0.5439   -0.2414    0.3380 C   0  0  1  0  0  0  0  0  0  0  0  0
    1.1327   -0.1471   -0.5810 H   0  0  0  0  0  0  0  0  0  0  0  0
    1.7845   -0.7019    1.1497 C   0  0  0  0  0  0  0  0  0  0  0  0
    2.6993    0.0962    1.3202 O   0  0  0  0  0  0  0  0  0  0  0  0
    1.9232   -1.9742    1.6709 N   0  0  0  0  0  0  0  0  0  0  0  0
    1.0532   -2.5055    1.7378 H   0  0  0  0  0  0  0  0  0  0  0  0
    3.0332   -2.3668    2.5295 C   0  0  0  0  0  0  0  0  0  0  0  0
    3.0217   -1.7877    3.4587 H   0  0  0  0  0  0  0  0  0  0  0  0
    2.9571   -3.4292    2.7801 H   0  0  0  0  0  0  0  0  0  0  0  0
    3.9891   -2.2016    2.0214 H   0  0  0  0  0  0  0  0  0  0  0  0
  1  2  1  0  0  0  0
  2  3  1  0  0  0  0
  2  4  1  0  0  0  0
  2  5  1  0  0  0  0
  5  6  2  0  0  0  0
  5  7  1  0  0  0  0
  7  8  1  0  0  0  0
  7 17  1  0  0  0  0
  8  9  1  0  0  0  0
  8 10  1  0  0  0  0
  8 11  1  0  0  0  0
 11 12  1  0  0  0  0
 11 13  1  0  0  0  0
 11 14  1  0  0  0  0
 14 15  1  0  0  0  0
 14 16  1  0  0  0  0
 14 17  1  0  0  0  0
 17 18  1  0  0  0  0
 17 19  1  0  0  0  0
 19 20  2  0  0  0  0
 19 21  1  0  0  0  0
 21 22  1  0  0  0  0
 21 23  1  0  0  0  0
 23 24  1  0  0  0  0
 23 25  1  0  0  0  0
 23 26  1  0  0  0  0
M  END
$$$$

  -OEChem-11182114133D

 26 26  0     1  0  0  0  0  0999 V2000
   -1.7423   -4.1778   -0.0026 H   0  0  0  0  0  0  0  0  0  0  0  0
   -2.0049   -3.1455   -0.2493 C   0  0  0  0  0  0  0  0  0  0  0  0
   -3.0312   -2.9542    0.0734 H   0  0  0  0  0  0  0  0  0  0  0  0
   -1.9426   -3.0213   -1.3335 H   0  0  0  0  0  0  0  0  0  0  0  0
   -1.0495   -2.1857    0.4488 C   0  0  0  0  0  0  0  0  0  0  0  0
   -0.6943   -2.4789    1.5803 O   0  0  0  0  0  0  0  0  0  0  0  0
   -0.4913   -1.1137   -0.2525 N   0  0  0  0  0  0  0  0  0  0  0  0
   -1.6060   -0.1713   -0.4505 C   0  0  0  0  0  0  0  0  0  0  0  0
   -2.6065   -0.5903   -0.2887 H   0  0  0  0  0  0  0  0  0  0  0  0
   -1.5761    0.1750   -1.4895 H   0  0  0  0  0  0  0  0  0  0  0  0
   -1.4081    1.0383    0.4933 C   0  0  0  0  0  0  0  0  0  0  0  0
   -1.7598    0.7998    1.5027 H   0  0  0  0  0  0  0  0  0  0  0  0
   -1.9195    1.9385    0.1386 H   0  0  0  0  0  0  0  0  0  0  0  0
    0.0911    1.1751    0.4720 C   0  0  0  0  0  0  0  0  0  0  0  0
    0.4575    1.6642    1.3809 H   0  0  0  0  0  0  0  0  0  0  0  0
    0.4220    1.7584   -0.3946 H   0  0  0  0  0  0  0  0  0  0  0  0
    0.5545   -0.2783    0.3728 C   0  0  1  0  0  0  0  0  0  0  0  0
    1.1571   -0.1868   -0.5372 H   0  0  0  0  0  0  0  0  0  0  0  0
    1.7855   -0.7568    1.1878 C   0  0  0  0  0  0  0  0  0  0  0  0
    2.6086    0.0738    1.5553 O   0  0  0  0  0  0  0  0  0  0  0  0
    2.0477   -2.0923    1.4284 N   0  0  0  0  0  0  0  0  0  0  0  0
    1.2226   -2.6918    1.3813 H   0  0  0  0  0  0  0  0  0  0  0  0
    3.1640   -2.5406    2.2509 C   0  0  0  0  0  0  0  0  0  0  0  0
    3.0656   -2.1576    3.2719 H   0  0  0  0  0  0  0  0  0  0  0  0
    3.1872   -3.6337    2.2897 H   0  0  0  0  0  0  0  0  0  0  0  0
    4.1140   -2.1914    1.8328 H   0  0  0  0  0  0  0  0  0  0  0  0
  1  2  1  0  0  0  0
  2  3  1  0  0  0  0
  2  4  1  0  0  0  0
  2  5  1  0  0  0  0
  5  6  2  0  0  0  0
  5  7  1  0  0  0  0
  7  8  1  0  0  0  0
  7 17  1  0  0  0  0
  8  9  1  0  0  0  0
  8 10  1  0  0  0  0
  8 11  1  0  0  0  0
 11 12  1  0  0  0  0
 11 13  1  0  0  0  0
 11 14  1  0  0  0  0
 14 15  1  0  0  0  0
 14 16  1  0  0  0  0
 14 17  1  0  0  0  0
 17 18  1  0  0  0  0
 17 19  1  0  0  0  0
 19 20  2  0  0  0  0
 19 21  1  0  0  0  0
 21 22  1  0  0  0  0
 21 23  1  0  0  0  0
 23 24  1  0  0  0  0
 23 25  1  0  0  0  0
 23 26  1  0  0  0  0
M  END
$$$$

  -OEChem-11182114133D

 26 26  0     1  0  0  0  0  0999 V2000
   -1.8391   -4.1661    0.0119 H   0  0  0  0  0  0  0  0  0  0  0  0
   -2.0634   -3.1186   -0.2075 C   0  0  0  0  0  0  0  0  0  0  0  0
   -3.0607   -2.8846    0.1726 H   0  0  0  0  0  0  0  0  0  0  0  0
   -2.0523   -2.9822   -1.2919 H   0  0  0  0  0  0  0  0  0  0  0  0
   -1.0268   -2.2147    0.4512 C   0  0  0  0  0  0  0  0  0  0  0  0
   -0.5616   -2.6004    1.5123 O   0  0  0  0  0  0  0  0  0  0  0  0
   -0.4713   -1.1375   -0.2477 N   0  0  0  0  0  0  0  0  0  0  0  0
   -1.5801   -0.1889   -0.4522 C   0  0  0  0  0  0  0  0  0  0  0  0
   -2.5842   -0.6007   -0.2991 H   0  0  0  0  0  0  0  0  0  0  0  0
   -1.5399    0.1608   -1.4897 H   0  0  0  0  0  0  0  0  0  0  0  0
   -1.3846    1.0163    0.4986 C   0  0  0  0  0  0  0  0  0  0  0  0
   -1.7460    0.7763    1.5043 H   0  0  0  0  0  0  0  0  0  0  0  0
   -1.8884    1.9202    0.1425 H   0  0  0  0  0  0  0  0  0  0  0  0
    0.1151    1.1468    0.4904 C   0  0  0  0  0  0  0  0  0  0  0  0
    0.4748    1.6316    1.4041 H   0  0  0  0  0  0  0  0  0  0  0  0
    0.4551    1.7323   -0.3710 H   0  0  0  0  0  0  0  0  0  0  0  0
    0.5725   -0.3088    0.3889 C   0  0  1  0  0  0  0  0  0  0  0  0
    1.1829   -0.2096   -0.5149 H   0  0  0  0  0  0  0  0  0  0  0  0
    1.7935   -0.8121    1.2020 C   0  0  0  0  0  0  0  0  0  0  0  0
    2.5093    0.0021    1.7738 O   0  0  0  0  0  0  0  0  0  0  0  0
    2.1937   -2.1348    1.1601 N   0  0  0  0  0  0  0  0  0  0  0  0
    1.4347   -2.7834    0.9537 H   0  0  0  0  0  0  0  0  0  0  0  0
    3.3109   -2.6379    1.9492 C   0  0  0  0  0  0  0  0  0  0  0  0
    3.1170   -2.5011    3.0182 H   0  0  0  0  0  0  0  0  0  0  0  0
    3.4572   -3.7047    1.7555 H   0  0  0  0  0  0  0  0  0  0  0  0
    4.2347   -2.1113    1.6877 H   0  0  0  0  0  0  0  0  0  0  0  0
  1  2  1  0  0  0  0
  2  3  1  0  0  0  0
  2  4  1  0  0  0  0
  2  5  1  0  0  0  0
  5  6  2  0  0  0  0
  5  7  1  0  0  0  0
  7  8  1  0  0  0  0
  7 17  1  0  0  0  0
  8  9  1  0  0  0  0
  8 10  1  0  0  0  0
  8 11  1  0  0  0  0
 11 12  1  0  0  0  0
 11 13  1  0  0  0  0
 11 14  1  0  0  0  0
 14 15  1  0  0  0  0
 14 16  1  0  0  0  0
 14 17  1  0  0  0  0
 17 18  1  0  0  0  0
 17 19  1  0  0  0  0
 19 20  2  0  0  0  0
 19 21  1  0  0  0  0
 21 22  1  0  0  0  0
 21 23  1  0  0  0  0
 23 24  1  0  0  0  0
 23 25  1  0  0  0  0
 23 26  1  0  0  0  0
M  END
$$$$

  -OEChem-11182114133D

 26 26  0     1  0  0  0  0  0999 V2000
   -1.8432   -4.1696    0.0425 H   0  0  0  0  0  0  0  0  0  0  0  0
   -2.0661   -3.1191   -0.1645 C   0  0  0  0  0  0  0  0  0  0  0  0
   -3.0456   -2.8782    0.2556 H   0  0  0  0  0  0  0  0  0  0  0  0
   -2.0970   -2.9795   -1.2480 H   0  0  0  0  0  0  0  0  0  0  0  0
   -0.9960   -2.2269    0.4570 C   0  0  0  0  0  0  0  0  0  0  0  0
   -0.4841   -2.6329    1.4882 O   0  0  0  0  0  0  0  0  0  0  0  0
   -0.4490   -1.1550   -0.2589 N   0  0  0  0  0  0  0  0  0  0  0  0
   -1.5586   -0.2034   -0.4463 C   0  0  0  0  0  0  0  0  0  0  0  0
   -2.5627   -0.6154   -0.2956 H   0  0  0  0  0  0  0  0  0  0  0  0
   -1.5223    0.1591   -1.4795 H   0  0  0  0  0  0  0  0  0  0  0  0
   -1.3586    0.9915    0.5184 C   0  0  0  0  0  0  0  0  0  0  0  0
   -1.7106    0.7377    1.5241 H   0  0  0  0  0  0  0  0  0  0  0  0
   -1.8673    1.8989    0.1784 H   0  0  0  0  0  0  0  0  0  0  0  0
    0.1406    1.1251    0.4986 C   0  0  0  0  0  0  0  0  0  0  0  0
    0.5073    1.6005    1.4144 H   0  0  0  0  0  0  0  0  0  0  0  0
    0.4715    1.7210   -0.3591 H   0  0  0  0  0  0  0  0  0  0  0  0
    0.5964   -0.3294    0.3761 C   0  0  1  0  0  0  0  0  0  0  0  0
    1.2067   -0.2136   -0.5258 H   0  0  0  0  0  0  0  0  0  0  0  0
    1.8042   -0.8646    1.1848 C   0  0  0  0  0  0  0  0  0  0  0  0
    2.3954   -0.1212    1.9591 O   0  0  0  0  0  0  0  0  0  0  0  0
    2.3523   -2.1009    0.8937 N   0  0  0  0  0  0  0  0  0  0  0  0
    1.7064   -2.7511    0.4534 H   0  0  0  0  0  0  0  0  0  0  0  0
    3.4571   -2.6608    1.6616 C   0  0  0  0  0  0  0  0  0  0  0  0
    3.1796   -2.7564    2.7166 H   0  0  0  0  0  0  0  0  0  0  0  0
    3.7173   -3.6523    1.2790 H   0  0  0  0  0  0  0  0  0  0  0  0
    4.3418   -2.0201    1.5859 H   0  0  0  0  0  0  0  0  0  0  0  0
  1  2  1  0  0  0  0
  2  3  1  0  0  0  0
  2  4  1  0  0  0  0
  2  5  1  0  0  0  0
  5  6  2  0  0  0  0
  5  7  1  0  0  0  0
  7  8  1  0  0  0  0
  7 17  1  0  0  0  0
  8  9  1  0  0  0  0
  8 10  1  0  0  0  0
  8 11  1  0  0  0  0
 11 12  1  0  0  0  0
 11 13  1  0  0  0  0
 11 14  1  0  0  0  0
 14 15  1  0  0  0  0
 14 16  1  0  0  0  0
 14 17  1  0  0  0  0
 17 18  1  0  0  0  0
 17 19  1  0  0  0  0
 19 20  2  0  0  0  0
 19 21  1  0  0  0  0
 21 22  1  0  0  0  0
 21 23  1  0  0  0  0
 23 24  1  0  0  0  0
 23 25  1  0  0  0  0
 23 26  1  0  0  0  0
M  END
$$$$

  -OEChem-11182114133D

 26 26  0     1  0  0  0  0  0999 V2000
   -1.8083   -4.1837    0.0536 H   0  0  0  0  0  0  0  0  0  0  0  0
   -2.0504   -3.1348   -0.1391 C   0  0  0  0  0  0  0  0  0  0  0  0
   -3.0237   -2.9106    0.3038 H   0  0  0  0  0  0  0  0  0  0  0  0
   -2.1062   -2.9858   -1.2203 H   0  0  0  0  0  0  0  0  0  0  0  0
   -0.9803   -2.2335    0.4683 C   0  0  0  0  0  0  0  0  0  0  0  0
   -0.4711   -2.6216    1.5076 O   0  0  0  0  0  0  0  0  0  0  0  0
   -0.4368   -1.1722   -0.2667 N   0  0  0  0  0  0  0  0  0  0  0  0
   -1.5462   -0.2161   -0.4299 C   0  0  0  0  0  0  0  0  0  0  0  0
   -2.5496   -0.6280   -0.2724 H   0  0  0  0  0  0  0  0  0  0  0  0
   -1.5217    0.1570   -1.4597 H   0  0  0  0  0  0  0  0  0  0  0  0
   -1.3318    0.9696    0.5445 C   0  0  0  0  0  0  0  0  0  0  0  0
   -1.6683    0.7062    1.5532 H   0  0  0  0  0  0  0  0  0  0  0  0
   -1.8455    1.8803    0.2211 H   0  0  0  0  0  0  0  0  0  0  0  0
    0.1670    1.1027    0.5018 C   0  0  0  0  0  0  0  0  0  0  0  0
    0.5507    1.5679    1.4159 H   0  0  0  0  0  0  0  0  0  0  0  0
    0.4834    1.7065   -0.3561 H   0  0  0  0  0  0  0  0  0  0  0  0
    0.6164   -0.3513    0.3575 C   0  0  1  0  0  0  0  0  0  0  0  0
    1.2197   -0.2216   -0.5470 H   0  0  0  0  0  0  0  0  0  0  0  0
    1.8128   -0.9185    1.1588 C   0  0  0  0  0  0  0  0  0  0  0  0
    2.2732   -0.2874    2.1028 O   0  0  0  0  0  0  0  0  0  0  0  0
    2.5171   -2.0055    0.6707 N   0  0  0  0  0  0  0  0  0  0  0  0
    2.0182   -2.5820   -0.0004 H   0  0  0  0  0  0  0  0  0  0  0  0
    3.6369   -2.5987    1.3898 C   0  0  0  0  0  0  0  0  0  0  0  0
    3.3128   -2.9571    2.3725 H   0  0  0  0  0  0  0  0  0  0  0  0
    4.0411   -3.4451    0.8267 H   0  0  0  0  0  0  0  0  0  0  0  0
    4.4372   -1.8642    1.5280 H   0  0  0  0  0  0  0  0  0  0  0  0
  1  2  1  0  0  0  0
  2  3  1  0  0  0  0
  2  4  1  0  0  0  0
  2  5  1  0  0  0  0
  5  6  2  0  0  0  0
  5  7  1  0  0  0  0
  7  8  1  0  0  0  0
  7 17  1  0  0  0  0
  8  9  1  0  0  0  0
  8 10  1  0  0  0  0
  8 11  1  0  0  0  0
 11 12  1  0  0  0  0
 11 13  1  0  0  0  0
 11 14  1  0  0  0  0
 14 15  1  0  0  0  0
 14 16  1  0  0  0  0
 14 17  1  0  0  0  0
 17 18  1  0  0  0  0
 17 19  1  0  0  0  0
 19 20  2  0  0  0  0
 19 21  1  0  0  0  0
 21 22  1  0  0  0  0
 21 23  1  0  0  0  0
 23 24  1  0  0  0  0
 23 25  1  0  0  0  0
 23 26  1  0  0  0  0
M  END
$$$$

  -OEChem-11182114133D

 26 26  0     1  0  0  0  0  0999 V2000
   -1.8150   -4.1921    0.0647 H   0  0  0  0  0  0  0  0  0  0  0  0
   -2.0558   -3.1436   -0.1315 C   0  0  0  0  0  0  0  0  0  0  0  0
   -3.0259   -2.9145    0.3161 H   0  0  0  0  0  0  0  0  0  0  0  0
   -2.1175   -2.9992   -1.2131 H   0  0  0  0  0  0  0  0  0  0  0  0
   -0.9795   -2.2433    0.4656 C   0  0  0  0  0  0  0  0  0  0  0  0
   -0.4714   -2.6248    1.5076 O   0  0  0  0  0  0  0  0  0  0  0  0
   -0.4361   -1.1904   -0.2819 N   0  0  0  0  0  0  0  0  0  0  0  0
   -1.5403   -0.2220   -0.4067 C   0  0  0  0  0  0  0  0  0  0  0  0
   -2.5445   -0.6270   -0.2354 H   0  0  0  0  0  0  0  0  0  0  0  0
   -1.5338    0.1660   -1.4311 H   0  0  0  0  0  0  0  0  0  0  0  0
   -1.2952    0.9492    0.5789 C   0  0  0  0  0  0  0  0  0  0  0  0
   -1.6073    0.6731    1.5920 H   0  0  0  0  0  0  0  0  0  0  0  0
   -1.8112    1.8674    0.2817 H   0  0  0  0  0  0  0  0  0  0  0  0
    0.2027    1.0726    0.4995 C   0  0  0  0  0  0  0  0  0  0  0  0
    0.6146    1.5212    1.4096 H   0  0  0  0  0  0  0  0  0  0  0  0
    0.5008    1.6864   -0.3578 H   0  0  0  0  0  0  0  0  0  0  0  0
    0.6360   -0.3823    0.3246 C   0  0  1  0  0  0  0  0  0  0  0  0
    1.2194   -0.2415   -0.5909 H   0  0  0  0  0  0  0  0  0  0  0  0
    1.8323   -0.9755    1.1076 C   0  0  0  0  0  0  0  0  0  0  0  0
    2.1660   -0.4812    2.1776 O   0  0  0  0  0  0  0  0  0  0  0  0
    2.6980   -1.8597    0.4855 N   0  0  0  0  0  0  0  0  0  0  0  0
    2.3410   -2.3232   -0.3445 H   0  0  0  0  0  0  0  0  0  0  0  0
    3.8428   -2.4483    1.1693 C   0  0  0  0  0  0  0  0  0  0  0  0
    3.5128   -3.0193    2.0436 H   0  0  0  0  0  0  0  0  0  0  0  0
    4.3794   -3.1230    0.4955 H   0  0  0  0  0  0  0  0  0  0  0  0
    4.5368   -1.6681    1.4990 H   0  0  0  0  0  0  0  0  0  0  0  0
  1  2  1  0  0  0  0
  2  3  1  0  0  0  0
  2  4  1  0  0  0  0
  2  5  1  0  0  0  0
  5  6  2  0  0  0  0
  5  7  1  0  0  0  0
  7  8  1  0  0  0  0
  7 17  1  0  0  0  0
  8  9  1  0  0  0  0
  8 10  1  0  0  0  0
  8 11  1  0  0  0  0
 11 12  1  0  0  0  0
 11 13  1  0  0  0  0
 11 14  1  0  0  0  0
 14 15  1  0  0  0  0
 14 16  1  0  0  0  0
 14 17  1  0  0  0  0
 17 18  1  0  0  0  0
 17 19  1  0  0  0  0
 19 20  2  0  0  0  0
 19 21  1  0  0  0  0
 21 22  1  0  0  0  0
 21 23  1  0  0  0  0
 23 24  1  0  0  0  0
 23 25  1  0  0  0  0
 23 26  1  0  0  0  0
M  END
$$$$

  -OEChem-11182114133D

 26 26  0     1  0  0  0  0  0999 V2000
   -1.8550   -4.2015    0.0022 H   0  0  0  0  0  0  0  0  0  0  0  0
   -2.0838   -3.1460   -0.1690 C   0  0  0  0  0  0  0  0  0  0  0  0
   -3.0449   -2.9137    0.2962 H   0  0  0  0  0  0  0  0  0  0  0  0
   -2.1576   -2.9784   -1.2464 H   0  0  0  0  0  0  0  0  0  0  0  0
   -0.9874   -2.2725    0.4321 C   0  0  0  0  0  0  0  0  0  0  0  0
   -0.4695   -2.6852    1.4566 O   0  0  0  0  0  0  0  0  0  0  0  0
   -0.4397   -1.2124   -0.3019 N   0  0  0  0  0  0  0  0  0  0  0  0
   -1.5344   -0.2287   -0.3896 C   0  0  0  0  0  0  0  0  0  0  0  0
   -2.5410   -0.6249   -0.2126 H   0  0  0  0  0  0  0  0  0  0  0  0
   -1.5379    0.1807   -1.4057 H   0  0  0  0  0  0  0  0  0  0  0  0
   -1.2620    0.9187    0.6173 C   0  0  0  0  0  0  0  0  0  0  0  0
   -1.5606    0.6229    1.6290 H   0  0  0  0  0  0  0  0  0  0  0  0
   -1.7733    1.8484    0.3488 H   0  0  0  0  0  0  0  0  0  0  0  0
    0.2355    1.0286    0.5164 C   0  0  0  0  0  0  0  0  0  0  0  0
    0.6674    1.4509    1.4300 H   0  0  0  0  0  0  0  0  0  0  0  0
    0.5270    1.6582   -0.3316 H   0  0  0  0  0  0  0  0  0  0  0  0
    0.6488   -0.4264    0.3038 C   0  0  1  0  0  0  0  0  0  0  0  0
    1.2118   -0.2711   -0.6216 H   0  0  0  0  0  0  0  0  0  0  0  0
    1.8520   -1.0396    1.0635 C   0  0  0  0  0  0  0  0  0  0  0  0
    2.0624   -0.7096    2.2242 O   0  0  0  0  0  0  0  0  0  0  0  0
    2.8750   -1.6652    0.3681 N   0  0  0  0  0  0  0  0  0  0  0  0
    2.6568   -1.9832   -0.5711 H   0  0  0  0  0  0  0  0  0  0  0  0
    4.0721   -2.1843    1.0187 C   0  0  0  0  0  0  0  0  0  0  0  0
    3.8050   -2.9436    1.7613 H   0  0  0  0  0  0  0  0  0  0  0  0
    4.7365   -2.6403    0.2787 H   0  0  0  0  0  0  0  0  0  0  0  0
    4.6176   -1.3776    1.5197 H   0  0  0  0  0  0  0  0  0  0  0  0
  1  2  1  0  0  0  0
  2  3  1  0  0  0  0
  2  4  1  0  0  0  0
  2  5  1  0  0  0  0
  5  6  2  0  0  0  0
  5  7  1  0  0  0  0
  7  8  1  0  0  0  0
  7 17  1  0  0  0  0
  8  9  1  0  0  0  0
  8 10  1  0  0  0  0
  8 11  1  0  0  0  0
 11 12  1  0  0  0  0
 11 13  1  0  0  0  0
 11 14  1  0  0  0  0
 14 15  1  0  0  0  0
 14 16  1  0  0  0  0
 14 17  1  0  0  0  0
 17 18  1  0  0  0  0
 17 19  1  0  0  0  0
 19 20  2  0  0  0  0
 19 21  1  0  0  0  0
 21 22  1  0  0  0  0
 21 23  1  0  0  0  0
 23 24  1  0  0  0  0
 23 25  1  0  0  0  0
 23 26  1  0  0  0  0
M  END
$$$$

  -OEChem-11182114133D

 26 26  0     1  0  0  0  0  0999 V2000
   -1.9005   -4.2080   -0.0682 H   0  0  0  0  0  0  0  0  0  0  0  0
   -2.1096   -3.1444   -0.2126 C   0  0  0  0  0  0  0  0  0  0  0  0
   -3.0574   -2.9030    0.2746 H   0  0  0  0  0  0  0  0  0  0  0  0
   -2.1982   -2.9520   -1.2847 H   0  0  0  0  0  0  0  0  0  0  0  0
   -0.9839   -2.3070    0.3873 C   0  0  0  0  0  0  0  0  0  0  0  0
   -0.4366   -2.7723    1.3723 O   0  0  0  0  0  0  0  0  0  0  0  0
   -0.4394   -1.2308   -0.3255 N   0  0  0  0  0  0  0  0  0  0  0  0
   -1.5276   -0.2363   -0.3719 C   0  0  0  0  0  0  0  0  0  0  0  0
   -2.5343   -0.6271   -0.1840 H   0  0  0  0  0  0  0  0  0  0  0  0
   -1.5466    0.1951   -1.3788 H   0  0  0  0  0  0  0  0  0  0  0  0
   -1.2284    0.8867    0.6546 C   0  0  0  0  0  0  0  0  0  0  0  0
   -1.5119    0.5715    1.6650 H   0  0  0  0  0  0  0  0  0  0  0  0
   -1.7372    1.8255    0.4149 H   0  0  0  0  0  0  0  0  0  0  0  0
    0.2677    0.9877    0.5292 C   0  0  0  0  0  0  0  0  0  0  0  0
    0.7202    1.3835    1.4447 H   0  0  0  0  0  0  0  0  0  0  0  0
    0.5495    1.6344   -0.3092 H   0  0  0  0  0  0  0  0  0  0  0  0
    0.6645   -0.4643    0.2776 C   0  0  1  0  0  0  0  0  0  0  0  0
    1.2005   -0.2966   -0.6610 H   0  0  0  0  0  0  0  0  0  0  0  0
    1.8862   -1.0848    1.0038 C   0  0  0  0  0  0  0  0  0  0  0  0
    1.9887   -0.9515    2.2168 O   0  0  0  0  0  0  0  0  0  0  0  0
    3.0354   -1.4140    0.2998 N   0  0  0  0  0  0  0  0  0  0  0  0
    2.9399   -1.5417   -0.7027 H   0  0  0  0  0  0  0  0  0  0  0  0
    4.2631   -1.8624    0.9465 C   0  0  0  0  0  0  0  0  0  0  0  0
    4.0784   -2.7704    1.5303 H   0  0  0  0  0  0  0  0  0  0  0  0
    5.0275   -2.0822    0.1952 H   0  0  0  0  0  0  0  0  0  0  0  0
    4.6508   -1.0863    1.6149 H   0  0  0  0  0  0  0  0  0  0  0  0
  1  2  1  0  0  0  0
  2  3  1  0  0  0  0
  2  4  1  0  0  0  0
  2  5  1  0  0  0  0
  5  6  2  0  0  0  0
  5  7  1  0  0  0  0
  7  8  1  0  0  0  0
  7 17  1  0  0  0  0
  8  9  1  0  0  0  0
  8 10  1  0  0  0  0
  8 11  1  0  0  0  0
 11 12  1  0  0  0  0
 11 13  1  0  0  0  0
 11 14  1  0  0  0  0
 14 15  1  0  0  0  0
 14 16  1  0  0  0  0
 14 17  1  0  0  0  0
 17 18  1  0  0  0  0
 17 19  1  0  0  0  0
 19 20  2  0  0  0  0
 19 21  1  0  0  0  0
 21 22  1  0  0  0  0
 21 23  1  0  0  0  0
 23 24  1  0  0  0  0
 23 25  1  0  0  0  0
 23 26  1  0  0  0  0
M  END
$$$$

  -OEChem-11182114133D

 26 26  0     1  0  0  0  0  0999 V2000
   -1.9247   -4.2139   -0.1740 H   0  0  0  0  0  0  0  0  0  0  0  0
   -2.1290   -3.1427   -0.2566 C   0  0  0  0  0  0  0  0  0  0  0  0
   -3.0533   -2.9180    0.2812 H   0  0  0  0  0  0  0  0  0  0  0  0
   -2.2594   -2.8969   -1.3134 H   0  0  0  0  0  0  0  0  0  0  0  0
   -0.9713   -2.3454    0.3377 C   0  0  0  0  0  0  0  0  0  0  0  0
   -0.3913   -2.8704    1.2714 O   0  0  0  0  0  0  0  0  0  0  0  0
   -0.4346   -1.2469   -0.3469 N   0  0  0  0  0  0  0  0  0  0  0  0
   -1.5196   -0.2476   -0.3545 C   0  0  0  0  0  0  0  0  0  0  0  0
   -2.5242   -0.6370   -0.1542 H   0  0  0  0  0  0  0  0  0  0  0  0
   -1.5558    0.2024   -1.3525 H   0  0  0  0  0  0  0  0  0  0  0  0
   -1.1974    0.8539    0.6875 C   0  0  0  0  0  0  0  0  0  0  0  0
   -1.4648    0.5199    1.6959 H   0  0  0  0  0  0  0  0  0  0  0  0
   -1.7063    1.7992    0.4750 H   0  0  0  0  0  0  0  0  0  0  0  0
    0.2965    0.9518    0.5393 C   0  0  0  0  0  0  0  0  0  0  0  0
    0.7651    1.3254    1.4560 H   0  0  0  0  0  0  0  0  0  0  0  0
    0.5680    1.6142   -0.2901 H   0  0  0  0  0  0  0  0  0  0  0  0
    0.6827   -0.4957    0.2532 C   0  0  1  0  0  0  0  0  0  0  0  0
    1.1907   -0.3196   -0.6992 H   0  0  0  0  0  0  0  0  0  0  0  0
    1.9311   -1.1106    0.9403 C   0  0  0  0  0  0  0  0  0  0  0  0
    1.9571   -1.2052    2.1605 O   0  0  0  0  0  0  0  0  0  0  0  0
    3.1576   -1.1213    0.2905 N   0  0  0  0  0  0  0  0  0  0  0  0
    3.1495   -1.0171   -0.7190 H   0  0  0  0  0  0  0  0  0  0  0  0
    4.4069   -1.4965    0.9433 C   0  0  0  0  0  0  0  0  0  0  0  0
    4.3406   -2.5149    1.3405 H   0  0  0  0  0  0  0  0  0  0  0  0
    5.2340   -1.4562    0.2283 H   0  0  0  0  0  0  0  0  0  0  0  0
    4.6302   -0.8105    1.7672 H   0  0  0  0  0  0  0  0  0  0  0  0
  1  2  1  0  0  0  0
  2  3  1  0  0  0  0
  2  4  1  0  0  0  0
  2  5  1  0  0  0  0
  5  6  2  0  0  0  0
  5  7  1  0  0  0  0
  7  8  1  0  0  0  0
  7 17  1  0  0  0  0
  8  9  1  0  0  0  0
  8 10  1  0  0  0  0
  8 11  1  0  0  0  0
 11 12  1  0  0  0  0
 11 13  1  0  0  0  0
 11 14  1  0  0  0  0
 14 15  1  0  0  0  0
 14 16  1  0  0  0  0
 14 17  1  0  0  0  0
 17 18  1  0  0  0  0
 17 19  1  0  0  0  0
 19 20  2  0  0  0  0
 19 21  1  0  0  0  0
 21 22  1  0  0  0  0
 21 23  1  0  0  0  0
 23 24  1  0  0  0  0
 23 25  1  0  0  0  0
 23 26  1  0  0  0  0
M  END
$$$$

  -OEChem-11182114133D

 26 26  0     1  0  0  0  0  0999 V2000
   -0.3798   -3.8956    0.9516 H   0  0  0  0  0  0  0  0  0  0  0  0
   -0.7182   -3.4064    0.0343 C   0  0  0  0  0  0  0  0  0  0  0  0
   -1.5028   -4.0118   -0.4259 H   0  0  0  0  0  0  0  0  0  0  0  0
    0.1241   -3.3380   -0.6580 H   0  0  0  0  0  0  0  0  0  0  0  0
   -1.2598   -2.0226    0.3596 C   0  0  0  0  0  0  0  0  0  0  0  0
   -2.1862   -1.9785    1.1633 O   0  0  0  0  0  0  0  0  0  0  0  0
   -0.7844   -0.9244   -0.3793 N   0  0  0  0  0  0  0  0  0  0  0  0
   -1.7310    0.2002   -0.2570 C   0  0  0  0  0  0  0  0  0  0  0  0
   -2.7751   -0.0859   -0.0859 H   0  0  0  0  0  0  0  0  0  0  0  0
   -1.7290    0.7353   -1.2127 H   0  0  0  0  0  0  0  0  0  0  0  0
   -1.2345    1.1691    0.8499 C   0  0  0  0  0  0  0  0  0  0  0  0
   -1.4937    0.7839    1.8423 H   0  0  0  0  0  0  0  0  0  0  0  0
   -1.6377    2.1802    0.7392 H   0  0  0  0  0  0  0  0  0  0  0  0
    0.2529    1.1003    0.6126 C   0  0  0  0  0  0  0  0  0  0  0  0
    0.8124    1.3400    1.5229 H   0  0  0  0  0  0  0  0  0  0  0  0
    0.5567    1.7918   -0.1813 H   0  0  0  0  0  0  0  0  0  0  0  0
    0.4395   -0.3565    0.1959 C   0  0  1  0  0  0  0  0  0  0  0  0
    0.8998   -0.1645   -0.7784 H   0  0  0  0  0  0  0  0  0  0  0  0
    1.6476   -1.1747    0.7137 C   0  0  0  0  0  0  0  0  0  0  0  0
    1.5135   -1.9512    1.6476 O   0  0  0  0  0  0  0  0  0  0  0  0
    2.9097   -1.0168    0.1634 N   0  0  0  0  0  0  0  0  0  0  0  0
    3.0132   -0.3642   -0.6081 H   0  0  0  0  0  0  0  0  0  0  0  0
    4.0834   -1.7482    0.6267 C   0  0  0  0  0  0  0  0  0  0  0  0
    3.9261   -2.8276    0.5284 H   0  0  0  0  0  0  0  0  0  0  0  0
    4.9599   -1.4720    0.0327 H   0  0  0  0  0  0  0  0  0  0  0  0
    4.2901   -1.5162    1.6768 H   0  0  0  0  0  0  0  0  0  0  0  0
  1  2  1  0  0  0  0
  2  3  1  0  0  0  0
  2  4  1  0  0  0  0
  2  5  1  0  0  0  0
  5  6  2  0  0  0  0
  5  7  1  0  0  0  0
  7  8  1  0  0  0  0
  7 17  1  0  0  0  0
  8  9  1  0  0  0  0
  8 10  1  0  0  0  0
  8 11  1  0  0  0  0
 11 12  1  0  0  0  0
 11 13  1  0  0  0  0
 11 14  1  0  0  0  0
 14 15  1  0  0  0  0
 14 16  1  0  0  0  0
 14 17  1  0  0  0  0
 17 18  1  0  0  0  0
 17 19  1  0  0  0  0
 19 20  2  0  0  0  0
 19 21  1  0  0  0  0
 21 22  1  0  0  0  0
 21 23  1  0  0  0  0
 23 24  1  0  0  0  0
 23 25  1  0  0  0  0
 23 26  1  0  0  0  0
M  END
$$$$

  -OEChem-11182114133D

 26 26  0     1  0  0  0  0  0999 V2000
   -0.0570   -3.8827    0.3742 H   0  0  0  0  0  0  0  0  0  0  0  0
   -0.9063   -3.4456   -0.1559 C   0  0  0  0  0  0  0  0  0  0  0  0
   -1.7839   -4.0784   -0.0011 H   0  0  0  0  0  0  0  0  0  0  0  0
   -0.6792   -3.4149   -1.2240 H   0  0  0  0  0  0  0  0  0  0  0  0
   -1.1791   -2.0436    0.3641 C   0  0  0  0  0  0  0  0  0  0  0  0
   -1.8624   -1.9360    1.3787 O   0  0  0  0  0  0  0  0  0  0  0  0
   -0.7190   -0.9511   -0.3865 N   0  0  0  0  0  0  0  0  0  0  0  0
   -1.7058    0.1387   -0.2643 C   0  0  0  0  0  0  0  0  0  0  0  0
   -2.7296   -0.1996   -0.0618 H   0  0  0  0  0  0  0  0  0  0  0  0
   -1.7470    0.6609   -1.2262 H   0  0  0  0  0  0  0  0  0  0  0  0
   -1.2353    1.1383    0.8238 C   0  0  0  0  0  0  0  0  0  0  0  0
   -1.4766    0.7623    1.8242 H   0  0  0  0  0  0  0  0  0  0  0  0
   -1.6718    2.1339    0.6997 H   0  0  0  0  0  0  0  0  0  0  0  0
    0.2516    1.1167    0.5825 C   0  0  0  0  0  0  0  0  0  0  0  0
    0.8053    1.3884    1.4872 H   0  0  0  0  0  0  0  0  0  0  0  0
    0.5279    1.8069   -0.2225 H   0  0  0  0  0  0  0  0  0  0  0  0
    0.4879   -0.3378    0.1823 C   0  0  1  0  0  0  0  0  0  0  0  0
    0.9532   -0.1515   -0.7909 H   0  0  0  0  0  0  0  0  0  0  0  0
    1.7184   -1.1073    0.7239 C   0  0  0  0  0  0  0  0  0  0  0  0
    1.5974   -2.1059    1.4178 O   0  0  0  0  0  0  0  0  0  0  0  0
    2.9984   -0.6948    0.3892 N   0  0  0  0  0  0  0  0  0  0  0  0
    3.0922    0.1391   -0.1827 H   0  0  0  0  0  0  0  0  0  0  0  0
    4.2068   -1.3642    0.8577 C   0  0  0  0  0  0  0  0  0  0  0  0
    4.2139   -2.4120    0.5393 H   0  0  0  0  0  0  0  0  0  0  0  0
    5.0943   -0.8737    0.4466 H   0  0  0  0  0  0  0  0  0  0  0  0
    4.2661   -1.3272    1.9506 H   0  0  0  0  0  0  0  0  0  0  0  0
  1  2  1  0  0  0  0
  2  3  1  0  0  0  0
  2  4  1  0  0  0  0
  2  5  1  0  0  0  0
  5  6  2  0  0  0  0
  5  7  1  0  0  0  0
  7  8  1  0  0  0  0
  7 17  1  0  0  0  0
  8  9  1  0  0  0  0
  8 10  1  0  0  0  0
  8 11  1  0  0  0  0
 11 12  1  0  0  0  0
 11 13  1  0  0  0  0
 11 14  1  0  0  0  0
 14 15  1  0  0  0  0
 14 16  1  0  0  0  0
 14 17  1  0  0  0  0
 17 18  1  0  0  0  0
 17 19  1  0  0  0  0
 19 20  2  0  0  0  0
 19 21  1  0  0  0  0
 21 22  1  0  0  0  0
 21 23  1  0  0  0  0
 23 24  1  0  0  0  0
 23 25  1  0  0  0  0
 23 26  1  0  0  0  0
M  END
$$$$

  -OEChem-11182114133D

 26 26  0     1  0  0  0  0  0999 V2000
   -0.4436   -3.6095    1.1790 H   0  0  0  0  0  0  0  0  0  0  0  0
   -1.0849   -2.7625    0.9225 C   0  0  0  0  0  0  0  0  0  0  0  0
   -0.8770   -1.9427    1.6117 H   0  0  0  0  0  0  0  0  0  0  0  0
   -2.1286   -3.0614    1.0481 H   0  0  0  0  0  0  0  0  0  0  0  0
   -0.8368   -2.3535   -0.5272 C   0  0  0  0  0  0  0  0  0  0  0  0
   -1.4063   -3.0147   -1.3855 O   0  0  0  0  0  0  0  0  0  0  0  0
   -0.3006   -1.1246   -0.9291 N   0  0  0  0  0  0  0  0  0  0  0  0
   -1.4574   -0.2124   -0.9795 C   0  0  0  0  0  0  0  0  0  0  0  0
   -2.4361   -0.7099   -1.0043 H   0  0  0  0  0  0  0  0  0  0  0  0
   -1.3852    0.3749   -1.9013 H   0  0  0  0  0  0  0  0  0  0  0  0
   -1.3912    0.7395    0.2402 C   0  0  0  0  0  0  0  0  0  0  0  0
   -1.7972    0.2550    1.1339 H   0  0  0  0  0  0  0  0  0  0  0  0
   -1.9303    1.6763    0.0680 H   0  0  0  0  0  0  0  0  0  0  0  0
    0.0981    0.9408    0.3615 C   0  0  0  0  0  0  0  0  0  0  0  0
    0.3825    1.2060    1.3850 H   0  0  0  0  0  0  0  0  0  0  0  0
    0.4403    1.7312   -0.3161 H   0  0  0  0  0  0  0  0  0  0  0  0
    0.6448   -0.4236   -0.0520 C   0  0  1  0  0  0  0  0  0  0  0  0
    1.2904   -0.0891   -0.8711 H   0  0  0  0  0  0  0  0  0  0  0  0
    1.8306   -1.0642    0.7100 C   0  0  0  0  0  0  0  0  0  0  0  0
    1.8202   -2.2351    1.0585 O   0  0  0  0  0  0  0  0  0  0  0  0
    2.9632   -0.3121    0.9744 N   0  0  0  0  0  0  0  0  0  0  0  0
    2.9905    0.6403    0.6228 H   0  0  0  0  0  0  0  0  0  0  0  0
    4.1538   -0.8551    1.6187 C   0  0  0  0  0  0  0  0  0  0  0  0
    4.9021   -0.0685    1.7552 H   0  0  0  0  0  0  0  0  0  0  0  0
    3.9041   -1.2671    2.6022 H   0  0  0  0  0  0  0  0  0  0  0  0
    4.5930   -1.6488    1.0050 H   0  0  0  0  0  0  0  0  0  0  0  0
  1  2  1  0  0  0  0
  2  3  1  0  0  0  0
  2  4  1  0  0  0  0
  2  5  1  0  0  0  0
  5  6  2  0  0  0  0
  5  7  1  0  0  0  0
  7  8  1  0  0  0  0
  7 17  1  0  0  0  0
  8  9  1  0  0  0  0
  8 10  1  0  0  0  0
  8 11  1  0  0  0  0
 11 12  1  0  0  0  0
 11 13  1  0  0  0  0
 11 14  1  0  0  0  0
 14 15  1  0  0  0  0
 14 16  1  0  0  0  0
 14 17  1  0  0  0  0
 17 18  1  0  0  0  0
 17 19  1  0  0  0  0
 19 20  2  0  0  0  0
 19 21  1  0  0  0  0
 21 22  1  0  0  0  0
 21 23  1  0  0  0  0
 23 24  1  0  0  0  0
 23 25  1  0  0  0  0
 23 26  1  0  0  0  0
M  END
$$$$

  -OEChem-11182114133D

 26 26  0     1  0  0  0  0  0999 V2000
   -0.0448   -3.6611   -0.6789 H   0  0  0  0  0  0  0  0  0  0  0  0
   -1.0384   -3.4252   -0.2899 C   0  0  0  0  0  0  0  0  0  0  0  0
   -1.3151   -4.1829    0.4482 H   0  0  0  0  0  0  0  0  0  0  0  0
   -1.7580   -3.4480   -1.1113 H   0  0  0  0  0  0  0  0  0  0  0  0
   -1.0249   -2.0476    0.3491 C   0  0  0  0  0  0  0  0  0  0  0  0
   -1.3828   -1.9330    1.5185 O   0  0  0  0  0  0  0  0  0  0  0  0
   -0.6234   -0.9511   -0.4220 N   0  0  0  0  0  0  0  0  0  0  0  0
   -1.6962    0.0526   -0.2959 C   0  0  0  0  0  0  0  0  0  0  0  0
   -2.6792   -0.3767   -0.0630 H   0  0  0  0  0  0  0  0  0  0  0  0
   -1.8005    0.5594   -1.2612 H   0  0  0  0  0  0  0  0  0  0  0  0
   -1.2985    1.0950    0.7785 C   0  0  0  0  0  0  0  0  0  0  0  0
   -1.5087    0.7173    1.7849 H   0  0  0  0  0  0  0  0  0  0  0  0
   -1.8097    2.0530    0.6436 H   0  0  0  0  0  0  0  0  0  0  0  0
    0.1848    1.1860    0.5344 C   0  0  0  0  0  0  0  0  0  0  0  0
    0.7136    1.5117    1.4357 H   0  0  0  0  0  0  0  0  0  0  0  0
    0.4035    1.8875   -0.2784 H   0  0  0  0  0  0  0  0  0  0  0  0
    0.5377   -0.2493    0.1432 C   0  0  1  0  0  0  0  0  0  0  0  0
    1.0213   -0.0346   -0.8155 H   0  0  0  0  0  0  0  0  0  0  0  0
    1.7953   -0.9555    0.7098 C   0  0  0  0  0  0  0  0  0  0  0  0
    1.8684   -2.1745    0.7946 O   0  0  0  0  0  0  0  0  0  0  0  0
    2.9486   -0.2205    0.9303 N   0  0  0  0  0  0  0  0  0  0  0  0
    2.8924    0.7879    0.8266 H   0  0  0  0  0  0  0  0  0  0  0  0
    4.2111   -0.8148    1.3549 C   0  0  0  0  0  0  0  0  0  0  0  0
    4.5632   -1.5388    0.6125 H   0  0  0  0  0  0  0  0  0  0  0  0
    4.9748   -0.0395    1.4694 H   0  0  0  0  0  0  0  0  0  0  0  0
    4.0897   -1.3258    2.3159 H   0  0  0  0  0  0  0  0  0  0  0  0
  1  2  1  0  0  0  0
  2  3  1  0  0  0  0
  2  4  1  0  0  0  0
  2  5  1  0  0  0  0
  5  6  2  0  0  0  0
  5  7  1  0  0  0  0
  7  8  1  0  0  0  0
  7 17  1  0  0  0  0
  8  9  1  0  0  0  0
  8 10  1  0  0  0  0
  8 11  1  0  0  0  0
 11 12  1  0  0  0  0
 11 13  1  0  0  0  0
 11 14  1  0  0  0  0
 14 15  1  0  0  0  0
 14 16  1  0  0  0  0
 14 17  1  0  0  0  0
 17 18  1  0  0  0  0
 17 19  1  0  0  0  0
 19 20  2  0  0  0  0
 19 21  1  0  0  0  0
 21 22  1  0  0  0  0
 21 23  1  0  0  0  0
 23 24  1  0  0  0  0
 23 25  1  0  0  0  0
 23 26  1  0  0  0  0
M  END
$$$$

  -OEChem-11182114133D

 26 26  0     1  0  0  0  0  0999 V2000
   -0.4968   -3.8143   -0.7245 H   0  0  0  0  0  0  0  0  0  0  0  0
   -1.3424   -3.3841   -0.1818 C   0  0  0  0  0  0  0  0  0  0  0  0
   -1.6509   -4.0824    0.6008 H   0  0  0  0  0  0  0  0  0  0  0  0
   -2.1734   -3.2368   -0.8750 H   0  0  0  0  0  0  0  0  0  0  0  0
   -0.9313   -2.0559    0.4284 C   0  0  0  0  0  0  0  0  0  0  0  0
   -0.9969   -1.9165    1.6469 O   0  0  0  0  0  0  0  0  0  0  0  0
   -0.4839   -1.0371   -0.4177 N   0  0  0  0  0  0  0  0  0  0  0  0
   -1.6088   -0.0834   -0.4113 C   0  0  0  0  0  0  0  0  0  0  0  0
   -2.5884   -0.5459   -0.2307 H   0  0  0  0  0  0  0  0  0  0  0  0
   -1.6646    0.3796   -1.4025 H   0  0  0  0  0  0  0  0  0  0  0  0
   -1.3402    1.0227    0.6476 C   0  0  0  0  0  0  0  0  0  0  0  0
   -1.5929    0.6726    1.6542 H   0  0  0  0  0  0  0  0  0  0  0  0
   -1.8939    1.9439    0.4419 H   0  0  0  0  0  0  0  0  0  0  0  0
    0.1488    1.1917    0.4892 C   0  0  0  0  0  0  0  0  0  0  0  0
    0.5995    1.5733    1.4104 H   0  0  0  0  0  0  0  0  0  0  0  0
    0.3832    1.8793   -0.3317 H   0  0  0  0  0  0  0  0  0  0  0  0
    0.5895   -0.2401    0.1792 C   0  0  1  0  0  0  0  0  0  0  0  0
    1.0437    0.0021   -0.7880 H   0  0  0  0  0  0  0  0  0  0  0  0
    1.9357   -0.8392    0.6439 C   0  0  0  0  0  0  0  0  0  0  0  0
    2.2055   -2.0136    0.4232 O   0  0  0  0  0  0  0  0  0  0  0  0
    2.9085   -0.0275    1.2021 N   0  0  0  0  0  0  0  0  0  0  0  0
    2.6536    0.9316    1.4149 H   0  0  0  0  0  0  0  0  0  0  0  0
    4.2042   -0.5259    1.6476 C   0  0  0  0  0  0  0  0  0  0  0  0
    4.7420   -0.9934    0.8158 H   0  0  0  0  0  0  0  0  0  0  0  0
    4.8142    0.2970    2.0325 H   0  0  0  0  0  0  0  0  0  0  0  0
    4.0765   -1.2656    2.4451 H   0  0  0  0  0  0  0  0  0  0  0  0
  1  2  1  0  0  0  0
  2  3  1  0  0  0  0
  2  4  1  0  0  0  0
  2  5  1  0  0  0  0
  5  6  2  0  0  0  0
  5  7  1  0  0  0  0
  7  8  1  0  0  0  0
  7 17  1  0  0  0  0
  8  9  1  0  0  0  0
  8 10  1  0  0  0  0
  8 11  1  0  0  0  0
 11 12  1  0  0  0  0
 11 13  1  0  0  0  0
 11 14  1  0  0  0  0
 14 15  1  0  0  0  0
 14 16  1  0  0  0  0
 14 17  1  0  0  0  0
 17 18  1  0  0  0  0
 17 19  1  0  0  0  0
 19 20  2  0  0  0  0
 19 21  1  0  0  0  0
 21 22  1  0  0  0  0
 21 23  1  0  0  0  0
 23 24  1  0  0  0  0
 23 25  1  0  0  0  0
 23 26  1  0  0  0  0
M  END
$$$$

  -OEChem-11182114133D

 26 26  0     1  0  0  0  0  0999 V2000
   -0.6181   -3.8193   -0.7093 H   0  0  0  0  0  0  0  0  0  0  0  0
   -1.3923   -3.3478   -0.0988 C   0  0  0  0  0  0  0  0  0  0  0  0
   -1.6647   -4.0288    0.7120 H   0  0  0  0  0  0  0  0  0  0  0  0
   -2.2720   -3.1646   -0.7196 H   0  0  0  0  0  0  0  0  0  0  0  0
   -0.8682   -2.0383    0.4657 C   0  0  0  0  0  0  0  0  0  0  0  0
   -0.8297   -1.8909    1.6843 O   0  0  0  0  0  0  0  0  0  0  0  0
   -0.4440   -1.0424   -0.4181 N   0  0  0  0  0  0  0  0  0  0  0  0
   -1.6006   -0.1287   -0.4461 C   0  0  0  0  0  0  0  0  0  0  0  0
   -2.5659   -0.6134   -0.2474 H   0  0  0  0  0  0  0  0  0  0  0  0
   -1.6707    0.2953   -1.4538 H   0  0  0  0  0  0  0  0  0  0  0  0
   -1.3685    1.0245    0.5706 C   0  0  0  0  0  0  0  0  0  0  0  0
   -1.6067    0.7013    1.5899 H   0  0  0  0  0  0  0  0  0  0  0  0
   -1.9540    1.9180    0.3336 H   0  0  0  0  0  0  0  0  0  0  0  0
    0.1136    1.2389    0.4012 C   0  0  0  0  0  0  0  0  0  0  0  0
    0.5523    1.6743    1.3037 H   0  0  0  0  0  0  0  0  0  0  0  0
    0.3216    1.9013   -0.4472 H   0  0  0  0  0  0  0  0  0  0  0  0
    0.6032   -0.1876    0.1439 C   0  0  1  0  0  0  0  0  0  0  0  0
    1.0523    0.0360   -0.8302 H   0  0  0  0  0  0  0  0  0  0  0  0
    1.9629   -0.7336    0.6344 C   0  0  0  0  0  0  0  0  0  0  0  0
    2.3611   -1.8319    0.2648 O   0  0  0  0  0  0  0  0  0  0  0  0
    2.7875    0.0428    1.4302 N   0  0  0  0  0  0  0  0  0  0  0  0
    2.3965    0.9015    1.8041 H   0  0  0  0  0  0  0  0  0  0  0  0
    4.0593   -0.4350    1.9588 C   0  0  0  0  0  0  0  0  0  0  0  0
    4.7426   -0.6892    1.1417 H   0  0  0  0  0  0  0  0  0  0  0  0
    4.5290    0.3396    2.5723 H   0  0  0  0  0  0  0  0  0  0  0  0
    3.9060   -1.3239    2.5798 H   0  0  0  0  0  0  0  0  0  0  0  0
  1  2  1  0  0  0  0
  2  3  1  0  0  0  0
  2  4  1  0  0  0  0
  2  5  1  0  0  0  0
  5  6  2  0  0  0  0
  5  7  1  0  0  0  0
  7  8  1  0  0  0  0
  7 17  1  0  0  0  0
  8  9  1  0  0  0  0
  8 10  1  0  0  0  0
  8 11  1  0  0  0  0
 11 12  1  0  0  0  0
 11 13  1  0  0  0  0
 11 14  1  0  0  0  0
 14 15  1  0  0  0  0
 14 16  1  0  0  0  0
 14 17  1  0  0  0  0
 17 18  1  0  0  0  0
 17 19  1  0  0  0  0
 19 20  2  0  0  0  0
 19 21  1  0  0  0  0
 21 22  1  0  0  0  0
 21 23  1  0  0  0  0
 23 24  1  0  0  0  0
 23 25  1  0  0  0  0
 23 26  1  0  0  0  0
M  END
$$$$

  -OEChem-11182114133D

 26 26  0     1  0  0  0  0  0999 V2000
   -0.6437   -3.8193   -0.6422 H   0  0  0  0  0  0  0  0  0  0  0  0
   -1.3940   -3.3180   -0.0256 C   0  0  0  0  0  0  0  0  0  0  0  0
   -1.6634   -3.9749    0.8060 H   0  0  0  0  0  0  0  0  0  0  0  0
   -2.2833   -3.1300   -0.6312 H   0  0  0  0  0  0  0  0  0  0  0  0
   -0.8287   -2.0082    0.4982 C   0  0  0  0  0  0  0  0  0  0  0  0
   -0.7302   -1.8496    1.7119 O   0  0  0  0  0  0  0  0  0  0  0  0
   -0.4183   -1.0332   -0.4146 N   0  0  0  0  0  0  0  0  0  0  0  0
   -1.5972   -0.1509   -0.4768 C   0  0  0  0  0  0  0  0  0  0  0  0
   -2.5528   -0.6512   -0.2701 H   0  0  0  0  0  0  0  0  0  0  0  0
   -1.6701    0.2405   -1.4975 H   0  0  0  0  0  0  0  0  0  0  0  0
   -1.4003    1.0384    0.5061 C   0  0  0  0  0  0  0  0  0  0  0  0
   -1.6322    0.7381    1.5337 H   0  0  0  0  0  0  0  0  0  0  0  0
   -2.0096    1.9079    0.2416 H   0  0  0  0  0  0  0  0  0  0  0  0
    0.0761    1.2878    0.3346 C   0  0  0  0  0  0  0  0  0  0  0  0
    0.5021    1.7641    1.2223 H   0  0  0  0  0  0  0  0  0  0  0  0
    0.2690    1.9281   -0.5343 H   0  0  0  0  0  0  0  0  0  0  0  0
    0.6026   -0.1328    0.1229 C   0  0  1  0  0  0  0  0  0  0  0  0
    1.0509    0.0763   -0.8550 H   0  0  0  0  0  0  0  0  0  0  0  0
    1.9682   -0.6350    0.6414 C   0  0  0  0  0  0  0  0  0  0  0  0
    2.4960   -1.6245    0.1471 O   0  0  0  0  0  0  0  0  0  0  0  0
    2.6258    0.0442    1.6517 N   0  0  0  0  0  0  0  0  0  0  0  0
    2.0927    0.7527    2.1460 H   0  0  0  0  0  0  0  0  0  0  0  0
    3.8602   -0.4428    2.2550 C   0  0  0  0  0  0  0  0  0  0  0  0
    4.6463   -0.5357    1.4983 H   0  0  0  0  0  0  0  0  0  0  0  0
    4.2048    0.2538    3.0251 H   0  0  0  0  0  0  0  0  0  0  0  0
    3.6993   -1.4219    2.7185 H   0  0  0  0  0  0  0  0  0  0  0  0
  1  2  1  0  0  0  0
  2  3  1  0  0  0  0
  2  4  1  0  0  0  0
  2  5  1  0  0  0  0
  5  6  2  0  0  0  0
  5  7  1  0  0  0  0
  7  8  1  0  0  0  0
  7 17  1  0  0  0  0
  8  9  1  0  0  0  0
  8 10  1  0  0  0  0
  8 11  1  0  0  0  0
 11 12  1  0  0  0  0
 11 13  1  0  0  0  0
 11 14  1  0  0  0  0
 14 15  1  0  0  0  0
 14 16  1  0  0  0  0
 14 17  1  0  0  0  0
 17 18  1  0  0  0  0
 17 19  1  0  0  0  0
 19 20  2  0  0  0  0
 19 21  1  0  0  0  0
 21 22  1  0  0  0  0
 21 23  1  0  0  0  0
 23 24  1  0  0  0  0
 23 25  1  0  0  0  0
 23 26  1  0  0  0  0
M  END
$$$$

  -OEChem-11182114133D

 26 26  0     1  0  0  0  0  0999 V2000
   -0.7760   -4.1380    0.2272 H   0  0  0  0  0  0  0  0  0  0  0  0
   -1.4222   -3.2846    0.0066 C   0  0  0  0  0  0  0  0  0  0  0  0
   -2.3881   -3.4287    0.4970 H   0  0  0  0  0  0  0  0  0  0  0  0
   -1.5775   -3.2334   -1.0741 H   0  0  0  0  0  0  0  0  0  0  0  0
   -0.7702   -2.0067    0.5083 C   0  0  0  0  0  0  0  0  0  0  0  0
   -0.5875   -1.8825    1.7157 O   0  0  0  0  0  0  0  0  0  0  0  0
   -0.3895   -1.0201   -0.4055 N   0  0  0  0  0  0  0  0  0  0  0  0
   -1.6023   -0.1861   -0.4727 C   0  0  0  0  0  0  0  0  0  0  0  0
   -2.5397   -0.7207   -0.2683 H   0  0  0  0  0  0  0  0  0  0  0  0
   -1.6874    0.1995   -1.4947 H   0  0  0  0  0  0  0  0  0  0  0  0
   -1.4528    1.0138    0.5075 C   0  0  0  0  0  0  0  0  0  0  0  0
   -1.6707    0.7061    1.5360 H   0  0  0  0  0  0  0  0  0  0  0  0
   -2.0971    1.8574    0.2410 H   0  0  0  0  0  0  0  0  0  0  0  0
    0.0125    1.3222    0.3328 C   0  0  0  0  0  0  0  0  0  0  0  0
    0.4237    1.8174    1.2176 H   0  0  0  0  0  0  0  0  0  0  0  0
    0.1784    1.9673   -0.5380 H   0  0  0  0  0  0  0  0  0  0  0  0
    0.5944   -0.0764    0.1257 C   0  0  1  0  0  0  0  0  0  0  0  0
    1.0278    0.1488   -0.8557 H   0  0  0  0  0  0  0  0  0  0  0  0
    1.9784   -0.5184    0.6518 C   0  0  0  0  0  0  0  0  0  0  0  0
    2.6586   -1.3249    0.0275 O   0  0  0  0  0  0  0  0  0  0  0  0
    2.4600   -0.0073    1.8436 N   0  0  0  0  0  0  0  0  0  0  0  0
    1.7838    0.4789    2.4250 H   0  0  0  0  0  0  0  0  0  0  0  0
    3.6809   -0.4977    2.4714 C   0  0  0  0  0  0  0  0  0  0  0  0
    4.5285   -0.4154    1.7827 H   0  0  0  0  0  0  0  0  0  0  0  0
    3.9080    0.0906    3.3656 H   0  0  0  0  0  0  0  0  0  0  0  0
    3.5651   -1.5465    2.7640 H   0  0  0  0  0  0  0  0  0  0  0  0
  1  2  1  0  0  0  0
  2  3  1  0  0  0  0
  2  4  1  0  0  0  0
  2  5  1  0  0  0  0
  5  6  2  0  0  0  0
  5  7  1  0  0  0  0
  7  8  1  0  0  0  0
  7 17  1  0  0  0  0
  8  9  1  0  0  0  0
  8 10  1  0  0  0  0
  8 11  1  0  0  0  0
 11 12  1  0  0  0  0
 11 13  1  0  0  0  0
 11 14  1  0  0  0  0
 14 15  1  0  0  0  0
 14 16  1  0  0  0  0
 14 17  1  0  0  0  0
 17 18  1  0  0  0  0
 17 19  1  0  0  0  0
 19 20  2  0  0  0  0
 19 21  1  0  0  0  0
 21 22  1  0  0  0  0
 21 23  1  0  0  0  0
 23 24  1  0  0  0  0
 23 25  1  0  0  0  0
 23 26  1  0  0  0  0
M  END
$$$$

  -OEChem-11182114133D

 26 26  0     1  0  0  0  0  0999 V2000
   -0.8114   -4.1209    0.3189 H   0  0  0  0  0  0  0  0  0  0  0  0
   -1.4278   -3.2617    0.0426 C   0  0  0  0  0  0  0  0  0  0  0  0
   -2.4169   -3.3687    0.4946 H   0  0  0  0  0  0  0  0  0  0  0  0
   -1.5355   -3.2436   -1.0449 H   0  0  0  0  0  0  0  0  0  0  0  0
   -0.7690   -1.9814    0.5303 C   0  0  0  0  0  0  0  0  0  0  0  0
   -0.5782   -1.8497    1.7358 O   0  0  0  0  0  0  0  0  0  0  0  0
   -0.3724   -1.0104   -0.3937 N   0  0  0  0  0  0  0  0  0  0  0  0
   -1.5920   -0.1906   -0.5048 C   0  0  0  0  0  0  0  0  0  0  0  0
   -2.5293   -0.7308   -0.3151 H   0  0  0  0  0  0  0  0  0  0  0  0
   -1.6554    0.1772   -1.5349 H   0  0  0  0  0  0  0  0  0  0  0  0
   -1.4799    1.0282    0.4586 C   0  0  0  0  0  0  0  0  0  0  0  0
   -1.7164    0.7354    1.4873 H   0  0  0  0  0  0  0  0  0  0  0  0
   -2.1284    1.8591    0.1641 H   0  0  0  0  0  0  0  0  0  0  0  0
   -0.0152    1.3518    0.3104 C   0  0  0  0  0  0  0  0  0  0  0  0
    0.3741    1.8639    1.1959 H   0  0  0  0  0  0  0  0  0  0  0  0
    0.1626    1.9847   -0.5671 H   0  0  0  0  0  0  0  0  0  0  0  0
    0.5852   -0.0425    0.1409 C   0  0  1  0  0  0  0  0  0  0  0  0
    1.0310    0.1713   -0.8378 H   0  0  0  0  0  0  0  0  0  0  0  0
    1.9602   -0.4523    0.7158 C   0  0  0  0  0  0  0  0  0  0  0  0
    2.7881   -1.0454    0.0325 O   0  0  0  0  0  0  0  0  0  0  0  0
    2.2548   -0.1541    2.0332 N   0  0  0  0  0  0  0  0  0  0  0  0
    1.4545    0.0876    2.6120 H   0  0  0  0  0  0  0  0  0  0  0  0
    3.4534   -0.6488    2.6984 C   0  0  0  0  0  0  0  0  0  0  0  0
    4.3515   -0.3492    2.1480 H   0  0  0  0  0  0  0  0  0  0  0  0
    3.5192   -0.2379    3.7103 H   0  0  0  0  0  0  0  0  0  0  0  0
    3.4292   -1.7415    2.7661 H   0  0  0  0  0  0  0  0  0  0  0  0
  1  2  1  0  0  0  0
  2  3  1  0  0  0  0
  2  4  1  0  0  0  0
  2  5  1  0  0  0  0
  5  6  2  0  0  0  0
  5  7  1  0  0  0  0
  7  8  1  0  0  0  0
  7 17  1  0  0  0  0
  8  9  1  0  0  0  0
  8 10  1  0  0  0  0
  8 11  1  0  0  0  0
 11 12  1  0  0  0  0
 11 13  1  0  0  0  0
 11 14  1  0  0  0  0
 14 15  1  0  0  0  0
 14 16  1  0  0  0  0
 14 17  1  0  0  0  0
 17 18  1  0  0  0  0
 17 19  1  0  0  0  0
 19 20  2  0  0  0  0
 19 21  1  0  0  0  0
 21 22  1  0  0  0  0
 21 23  1  0  0  0  0
 23 24  1  0  0  0  0
 23 25  1  0  0  0  0
 23 26  1  0  0  0  0
M  END
$$$$

  -OEChem-11182114133D

 26 26  0     1  0  0  0  0  0999 V2000
   -0.8975   -4.1094    0.3830 H   0  0  0  0  0  0  0  0  0  0  0  0
   -1.4693   -3.2368    0.0569 C   0  0  0  0  0  0  0  0  0  0  0  0
   -2.4821   -3.2997    0.4624 H   0  0  0  0  0  0  0  0  0  0  0  0
   -1.5234   -3.2425   -1.0347 H   0  0  0  0  0  0  0  0  0  0  0  0
   -0.7919   -1.9670    0.5469 C   0  0  0  0  0  0  0  0  0  0  0  0
   -0.6049   -1.8406    1.7539 O   0  0  0  0  0  0  0  0  0  0  0  0
   -0.3632   -1.0066   -0.3745 N   0  0  0  0  0  0  0  0  0  0  0  0
   -1.5790   -0.1885   -0.5338 C   0  0  0  0  0  0  0  0  0  0  0  0
   -2.5232   -0.7252   -0.3699 H   0  0  0  0  0  0  0  0  0  0  0  0
   -1.6084    0.1681   -1.5694 H   0  0  0  0  0  0  0  0  0  0  0  0
   -1.4981    1.0419    0.4186 C   0  0  0  0  0  0  0  0  0  0  0  0
   -1.7644    0.7603    1.4431 H   0  0  0  0  0  0  0  0  0  0  0  0
   -2.1389    1.8680    0.0953 H   0  0  0  0  0  0  0  0  0  0  0  0
   -0.0302    1.3666    0.3103 C   0  0  0  0  0  0  0  0  0  0  0  0
    0.3336    1.8870    1.2021 H   0  0  0  0  0  0  0  0  0  0  0  0
    0.1736    1.9905   -0.5678 H   0  0  0  0  0  0  0  0  0  0  0  0
    0.5751   -0.0281    0.1759 C   0  0  1  0  0  0  0  0  0  0  0  0
    1.0394    0.1718   -0.7970 H   0  0  0  0  0  0  0  0  0  0  0  0
    1.9341   -0.4189    0.8033 C   0  0  0  0  0  0  0  0  0  0  0  0
    2.9054   -0.7209    0.1174 O   0  0  0  0  0  0  0  0  0  0  0  0
    2.0591   -0.3830    2.1787 N   0  0  0  0  0  0  0  0  0  0  0  0
    1.1740   -0.4152    2.6829 H   0  0  0  0  0  0  0  0  0  0  0  0
    3.2528   -0.8555    2.8683 C   0  0  0  0  0  0  0  0  0  0  0  0
    4.1366   -0.3050    2.5290 H   0  0  0  0  0  0  0  0  0  0  0  0
    3.1483   -0.7054    3.9471 H   0  0  0  0  0  0  0  0  0  0  0  0
    3.4073   -1.9227    2.6781 H   0  0  0  0  0  0  0  0  0  0  0  0
  1  2  1  0  0  0  0
  2  3  1  0  0  0  0
  2  4  1  0  0  0  0
  2  5  1  0  0  0  0
  5  6  2  0  0  0  0
  5  7  1  0  0  0  0
  7  8  1  0  0  0  0
  7 17  1  0  0  0  0
  8  9  1  0  0  0  0
  8 10  1  0  0  0  0
  8 11  1  0  0  0  0
 11 12  1  0  0  0  0
 11 13  1  0  0  0  0
 11 14  1  0  0  0  0
 14 15  1  0  0  0  0
 14 16  1  0  0  0  0
 14 17  1  0  0  0  0
 17 18  1  0  0  0  0
 17 19  1  0  0  0  0
 19 20  2  0  0  0  0
 19 21  1  0  0  0  0
 21 22  1  0  0  0  0
 21 23  1  0  0  0  0
 23 24  1  0  0  0  0
 23 25  1  0  0  0  0
 23 26  1  0  0  0  0
M  END
$$$$

  -OEChem-11182114133D

 26 26  0     1  0  0  0  0  0999 V2000
   -1.0115   -4.1109    0.3880 H   0  0  0  0  0  0  0  0  0  0  0  0
   -1.5457   -3.2224    0.0418 C   0  0  0  0  0  0  0  0  0  0  0  0
   -2.5749   -3.2582    0.4069 H   0  0  0  0  0  0  0  0  0  0  0  0
   -1.5573   -3.2247   -1.0513 H   0  0  0  0  0  0  0  0  0  0  0  0
   -0.8536   -1.9720    0.5613 C   0  0  0  0  0  0  0  0  0  0  0  0
   -0.6902   -1.8642    1.7730 O   0  0  0  0  0  0  0  0  0  0  0  0
   -0.3761   -1.0163   -0.3403 N   0  0  0  0  0  0  0  0  0  0  0  0
   -1.5734   -0.1812   -0.5487 C   0  0  0  0  0  0  0  0  0  0  0  0
   -2.5313   -0.6990   -0.4054 H   0  0  0  0  0  0  0  0  0  0  0  0
   -1.5654    0.1600   -1.5899 H   0  0  0  0  0  0  0  0  0  0  0  0
   -1.5019    1.0617    0.3875 C   0  0  0  0  0  0  0  0  0  0  0  0
   -1.8033    0.7990    1.4074 H   0  0  0  0  0  0  0  0  0  0  0  0
   -2.1192    1.8930    0.0333 H   0  0  0  0  0  0  0  0  0  0  0  0
   -0.0267    1.3628    0.3214 C   0  0  0  0  0  0  0  0  0  0  0  0
    0.3169    1.8884    1.2182 H   0  0  0  0  0  0  0  0  0  0  0  0
    0.2168    1.9710   -0.5579 H   0  0  0  0  0  0  0  0  0  0  0  0
    0.5594   -0.0418    0.2263 C   0  0  1  0  0  0  0  0  0  0  0  0
    1.0450    0.1276   -0.7419 H   0  0  0  0  0  0  0  0  0  0  0  0
    1.9014   -0.4227    0.8979 C   0  0  0  0  0  0  0  0  0  0  0  0
    2.9662   -0.3992    0.2884 O   0  0  0  0  0  0  0  0  0  0  0  0
    1.9103   -0.6723    2.2559 N   0  0  0  0  0  0  0  0  0  0  0  0
    0.9969   -0.9091    2.6485 H   0  0  0  0  0  0  0  0  0  0  0  0
    3.1029   -1.0996    2.9752 C   0  0  0  0  0  0  0  0  0  0  0  0
    3.8848   -0.3358    2.9086 H   0  0  0  0  0  0  0  0  0  0  0  0
    2.8674   -1.2599    4.0318 H   0  0  0  0  0  0  0  0  0  0  0  0
    3.4877   -2.0362    2.5583 H   0  0  0  0  0  0  0  0  0  0  0  0
  1  2  1  0  0  0  0
  2  3  1  0  0  0  0
  2  4  1  0  0  0  0
  2  5  1  0  0  0  0
  5  6  2  0  0  0  0
  5  7  1  0  0  0  0
  7  8  1  0  0  0  0
  7 17  1  0  0  0  0
  8  9  1  0  0  0  0
  8 10  1  0  0  0  0
  8 11  1  0  0  0  0
 11 12  1  0  0  0  0
 11 13  1  0  0  0  0
 11 14  1  0  0  0  0
 14 15  1  0  0  0  0
 14 16  1  0  0  0  0
 14 17  1  0  0  0  0
 17 18  1  0  0  0  0
 17 19  1  0  0  0  0
 19 20  2  0  0  0  0
 19 21  1  0  0  0  0
 21 22  1  0  0  0  0
 21 23  1  0  0  0  0
 23 24  1  0  0  0  0
 23 25  1  0  0  0  0
 23 26  1  0  0  0  0
M  END
$$$$

  -OEChem-11182114133D

 26 26  0     1  0  0  0  0  0999 V2000
   -1.1647   -4.1271    0.3617 H   0  0  0  0  0  0  0  0  0  0  0  0
   -1.6372   -3.2134   -0.0079 C   0  0  0  0  0  0  0  0  0  0  0  0
   -2.6870   -3.2055    0.2954 H   0  0  0  0  0  0  0  0  0  0  0  0
   -1.5839   -3.2095   -1.0996 H   0  0  0  0  0  0  0  0  0  0  0  0
   -0.9225   -1.9974    0.5616 C   0  0  0  0  0  0  0  0  0  0  0  0
   -0.7822   -1.9315    1.7778 O   0  0  0  0  0  0  0  0  0  0  0  0
   -0.3982   -1.0315   -0.3015 N   0  0  0  0  0  0  0  0  0  0  0  0
   -1.5750   -0.1789   -0.5528 C   0  0  0  0  0  0  0  0  0  0  0  0
   -2.5458   -0.6779   -0.4330 H   0  0  0  0  0  0  0  0  0  0  0  0
   -1.5299    0.1527   -1.5961 H   0  0  0  0  0  0  0  0  0  0  0  0
   -1.5120    1.0700    0.3738 C   0  0  0  0  0  0  0  0  0  0  0  0
   -1.8507    0.8209    1.3853 H   0  0  0  0  0  0  0  0  0  0  0  0
   -2.1032    1.9085   -0.0071 H   0  0  0  0  0  0  0  0  0  0  0  0
   -0.0312    1.3465    0.3539 C   0  0  0  0  0  0  0  0  0  0  0  0
    0.2911    1.8744    1.2572 H   0  0  0  0  0  0  0  0  0  0  0  0
    0.2520    1.9429   -0.5214 H   0  0  0  0  0  0  0  0  0  0  0  0
    0.5366   -0.0670    0.2898 C   0  0  1  0  0  0  0  0  0  0  0  0
    1.0488    0.0757   -0.6691 H   0  0  0  0  0  0  0  0  0  0  0  0
    1.8667   -0.4342    0.9945 C   0  0  0  0  0  0  0  0  0  0  0  0
    2.9523   -0.1184    0.5179 O   0  0  0  0  0  0  0  0  0  0  0  0
    1.8347   -0.9778    2.2631 N   0  0  0  0  0  0  0  0  0  0  0  0
    0.9226   -1.3283    2.5671 H   0  0  0  0  0  0  0  0  0  0  0  0
    3.0246   -1.3736    3.0040 C   0  0  0  0  0  0  0  0  0  0  0  0
    3.6711   -0.5079    3.1820 H   0  0  0  0  0  0  0  0  0  0  0  0
    2.7409   -1.7970    3.9724 H   0  0  0  0  0  0  0  0  0  0  0  0
    3.5896   -2.1280    2.4469 H   0  0  0  0  0  0  0  0  0  0  0  0
  1  2  1  0  0  0  0
  2  3  1  0  0  0  0
  2  4  1  0  0  0  0
  2  5  1  0  0  0  0
  5  6  2  0  0  0  0
  5  7  1  0  0  0  0
  7  8  1  0  0  0  0
  7 17  1  0  0  0  0
  8  9  1  0  0  0  0
  8 10  1  0  0  0  0
  8 11  1  0  0  0  0
 11 12  1  0  0  0  0
 11 13  1  0  0  0  0
 11 14  1  0  0  0  0
 14 15  1  0  0  0  0
 14 16  1  0  0  0  0
 14 17  1  0  0  0  0
 17 18  1  0  0  0  0
 17 19  1  0  0  0  0
 19 20  2  0  0  0  0
 19 21  1  0  0  0  0
 21 22  1  0  0  0  0
 21 23  1  0  0  0  0
 23 24  1  0  0  0  0
 23 25  1  0  0  0  0
 23 26  1  0  0  0  0
M  END
$$$$

  -OEChem-11182114133D

 26 26  0     1  0  0  0  0  0999 V2000
   -1.3789   -4.1432    0.3458 H   0  0  0  0  0  0  0  0  0  0  0  0
   -1.7428   -3.2033   -0.0771 C   0  0  0  0  0  0  0  0  0  0  0  0
   -2.8125   -3.1110    0.1257 H   0  0  0  0  0  0  0  0  0  0  0  0
   -1.5871   -3.2240   -1.1588 H   0  0  0  0  0  0  0  0  0  0  0  0
   -0.9933   -2.0330    0.5420 C   0  0  0  0  0  0  0  0  0  0  0  0
   -0.8585   -2.0191    1.7597 O   0  0  0  0  0  0  0  0  0  0  0  0
   -0.4311   -1.0537   -0.2806 N   0  0  0  0  0  0  0  0  0  0  0  0
   -1.5845   -0.1732   -0.5446 C   0  0  0  0  0  0  0  0  0  0  0  0
   -2.5688   -0.6491   -0.4432 H   0  0  0  0  0  0  0  0  0  0  0  0
   -1.5152    0.1645   -1.5846 H   0  0  0  0  0  0  0  0  0  0  0  0
   -1.5087    1.0660    0.3916 C   0  0  0  0  0  0  0  0  0  0  0  0
   -1.8716    0.8167    1.3946 H   0  0  0  0  0  0  0  0  0  0  0  0
   -2.0729    1.9213    0.0074 H   0  0  0  0  0  0  0  0  0  0  0  0
   -0.0220    1.3075    0.4025 C   0  0  0  0  0  0  0  0  0  0  0  0
    0.2945    1.8219    1.3157 H   0  0  0  0  0  0  0  0  0  0  0  0
    0.2925    1.9033   -0.4622 H   0  0  0  0  0  0  0  0  0  0  0  0
    0.5171   -0.1173    0.3385 C   0  0  1  0  0  0  0  0  0  0  0  0
    1.0513    0.0133   -0.6101 H   0  0  0  0  0  0  0  0  0  0  0  0
    1.8383   -0.4958    1.0532 C   0  0  0  0  0  0  0  0  0  0  0  0
    2.8912    0.0538    0.7470 O   0  0  0  0  0  0  0  0  0  0  0  0
    1.8266   -1.3211    2.1595 N   0  0  0  0  0  0  0  0  0  0  0  0
    0.9193   -1.7183    2.4167 H   0  0  0  0  0  0  0  0  0  0  0  0
    2.9983   -1.6294    2.9676 C   0  0  0  0  0  0  0  0  0  0  0  0
    3.4032   -0.7171    3.4177 H   0  0  0  0  0  0  0  0  0  0  0  0
    2.7292   -2.3220    3.7709 H   0  0  0  0  0  0  0  0  0  0  0  0
    3.7754   -2.0963    2.3536 H   0  0  0  0  0  0  0  0  0  0  0  0
  1  2  1  0  0  0  0
  2  3  1  0  0  0  0
  2  4  1  0  0  0  0
  2  5  1  0  0  0  0
  5  6  2  0  0  0  0
  5  7  1  0  0  0  0
  7  8  1  0  0  0  0
  7 17  1  0  0  0  0
  8  9  1  0  0  0  0
  8 10  1  0  0  0  0
  8 11  1  0  0  0  0
 11 12  1  0  0  0  0
 11 13  1  0  0  0  0
 11 14  1  0  0  0  0
 14 15  1  0  0  0  0
 14 16  1  0  0  0  0
 14 17  1  0  0  0  0
 17 18  1  0  0  0  0
 17 19  1  0  0  0  0
 19 20  2  0  0  0  0
 19 21  1  0  0  0  0
 21 22  1  0  0  0  0
 21 23  1  0  0  0  0
 23 24  1  0  0  0  0
 23 25  1  0  0  0  0
 23 26  1  0  0  0  0
M  END
$$$$

  -OEChem-11182114133D

 26 26  0     1  0  0  0  0  0999 V2000
   -1.5862   -4.1397    0.3739 H   0  0  0  0  0  0  0  0  0  0  0  0
   -1.8198   -3.1938   -0.1222 C   0  0  0  0  0  0  0  0  0  0  0  0
   -2.8940   -3.0093   -0.0470 H   0  0  0  0  0  0  0  0  0  0  0  0
   -1.5464   -3.2771   -1.1773 H   0  0  0  0  0  0  0  0  0  0  0  0
   -1.0456   -2.0589    0.5334 C   0  0  0  0  0  0  0  0  0  0  0  0
   -0.8900   -2.0998    1.7474 O   0  0  0  0  0  0  0  0  0  0  0  0
   -0.4562   -1.0702   -0.2583 N   0  0  0  0  0  0  0  0  0  0  0  0
   -1.5904   -0.1696   -0.5364 C   0  0  0  0  0  0  0  0  0  0  0  0
   -2.5841   -0.6284   -0.4527 H   0  0  0  0  0  0  0  0  0  0  0  0
   -1.4985    0.1730   -1.5731 H   0  0  0  0  0  0  0  0  0  0  0  0
   -1.5094    1.0619    0.4081 C   0  0  0  0  0  0  0  0  0  0  0  0
   -1.8953    0.8134    1.4028 H   0  0  0  0  0  0  0  0  0  0  0  0
   -2.0507    1.9296    0.0185 H   0  0  0  0  0  0  0  0  0  0  0  0
   -0.0193    1.2765    0.4489 C   0  0  0  0  0  0  0  0  0  0  0  0
    0.2887    1.7807    1.3708 H   0  0  0  0  0  0  0  0  0  0  0  0
    0.3220    1.8715   -0.4061 H   0  0  0  0  0  0  0  0  0  0  0  0
    0.4993   -0.1567    0.3866 C   0  0  1  0  0  0  0  0  0  0  0  0
    1.0567   -0.0324   -0.5494 H   0  0  0  0  0  0  0  0  0  0  0  0
    1.8112   -0.5488    1.1105 C   0  0  0  0  0  0  0  0  0  0  0  0
    2.8083    0.1545    0.9871 O   0  0  0  0  0  0  0  0  0  0  0  0
    1.8554   -1.6048    1.9991 N   0  0  0  0  0  0  0  0  0  0  0  0
    0.9571   -2.0488    2.2048 H   0  0  0  0  0  0  0  0  0  0  0  0
    3.0038   -1.9112    2.8413 C   0  0  0  0  0  0  0  0  0  0  0  0
    3.2018   -1.0867    3.5340 H   0  0  0  0  0  0  0  0  0  0  0  0
    2.8114   -2.8168    3.4244 H   0  0  0  0  0  0  0  0  0  0  0  0
    3.8952   -2.0796    2.2282 H   0  0  0  0  0  0  0  0  0  0  0  0
  1  2  1  0  0  0  0
  2  3  1  0  0  0  0
  2  4  1  0  0  0  0
  2  5  1  0  0  0  0
  5  6  2  0  0  0  0
  5  7  1  0  0  0  0
  7  8  1  0  0  0  0
  7 17  1  0  0  0  0
  8  9  1  0  0  0  0
  8 10  1  0  0  0  0
  8 11  1  0  0  0  0
 11 12  1  0  0  0  0
 11 13  1  0  0  0  0
 11 14  1  0  0  0  0
 14 15  1  0  0  0  0
 14 16  1  0  0  0  0
 14 17  1  0  0  0  0
 17 18  1  0  0  0  0
 17 19  1  0  0  0  0
 19 20  2  0  0  0  0
 19 21  1  0  0  0  0
 21 22  1  0  0  0  0
 21 23  1  0  0  0  0
 23 24  1  0  0  0  0
 23 25  1  0  0  0  0
 23 26  1  0  0  0  0
M  END
$$$$

  -OEChem-11182114133D

 26 26  0     1  0  0  0  0  0999 V2000
   -1.6679   -4.1421    0.2555 H   0  0  0  0  0  0  0  0  0  0  0  0
   -1.9242   -3.1587   -0.1476 C   0  0  0  0  0  0  0  0  0  0  0  0
   -2.9853   -2.9680    0.0297 H   0  0  0  0  0  0  0  0  0  0  0  0
   -1.7381   -3.1650   -1.2246 H   0  0  0  0  0  0  0  0  0  0  0  0
   -1.0808   -2.0856    0.5277 C   0  0  0  0  0  0  0  0  0  0  0  0
   -0.8649   -2.2089    1.7260 O   0  0  0  0  0  0  0  0  0  0  0  0
   -0.4589   -1.0958   -0.2381 N   0  0  0  0  0  0  0  0  0  0  0  0
   -1.5691   -0.1769   -0.5503 C   0  0  0  0  0  0  0  0  0  0  0  0
   -2.5731   -0.6156   -0.4894 H   0  0  0  0  0  0  0  0  0  0  0  0
   -1.4442    0.1601   -1.5853 H   0  0  0  0  0  0  0  0  0  0  0  0
   -1.4899    1.0550    0.3929 C   0  0  0  0  0  0  0  0  0  0  0  0
   -1.9097    0.8167    1.3763 H   0  0  0  0  0  0  0  0  0  0  0  0
   -2.0017    1.9327   -0.0137 H   0  0  0  0  0  0  0  0  0  0  0  0
    0.0023    1.2402    0.4781 C   0  0  0  0  0  0  0  0  0  0  0  0
    0.2910    1.7416    1.4078 H   0  0  0  0  0  0  0  0  0  0  0  0
    0.3808    1.8266   -0.3672 H   0  0  0  0  0  0  0  0  0  0  0  0
    0.4980   -0.2027    0.4349 C   0  0  1  0  0  0  0  0  0  0  0  0
    1.0858   -0.0910   -0.4835 H   0  0  0  0  0  0  0  0  0  0  0  0
    1.7916   -0.6094    1.1823 C   0  0  0  0  0  0  0  0  0  0  0  0
    2.7217    0.1864    1.2522 O   0  0  0  0  0  0  0  0  0  0  0  0
    1.9109   -1.8279    1.8218 N   0  0  0  0  0  0  0  0  0  0  0  0
    1.0337   -2.3390    1.9411 H   0  0  0  0  0  0  0  0  0  0  0  0
    3.0392   -2.1777    2.6745 C   0  0  0  0  0  0  0  0  0  0  0  0
    3.0768   -1.5199    3.5488 H   0  0  0  0  0  0  0  0  0  0  0  0
    2.9430   -3.2114    3.0199 H   0  0  0  0  0  0  0  0  0  0  0  0
    3.9807   -2.0862    2.1228 H   0  0  0  0  0  0  0  0  0  0  0  0
  1  2  1  0  0  0  0
  2  3  1  0  0  0  0
  2  4  1  0  0  0  0
  2  5  1  0  0  0  0
  5  6  2  0  0  0  0
  5  7  1  0  0  0  0
  7  8  1  0  0  0  0
  7 17  1  0  0  0  0
  8  9  1  0  0  0  0
  8 10  1  0  0  0  0
  8 11  1  0  0  0  0
 11 12  1  0  0  0  0
 11 13  1  0  0  0  0
 11 14  1  0  0  0  0
 14 15  1  0  0  0  0
 14 16  1  0  0  0  0
 14 17  1  0  0  0  0
 17 18  1  0  0  0  0
 17 19  1  0  0  0  0
 19 20  2  0  0  0  0
 19 21  1  0  0  0  0
 21 22  1  0  0  0  0
 21 23  1  0  0  0  0
 23 24  1  0  0  0  0
 23 25  1  0  0  0  0
 23 26  1  0  0  0  0
M  END
$$$$

  -OEChem-11182114133D

 26 26  0     1  0  0  0  0  0999 V2000
   -1.7943   -4.1320    0.1973 H   0  0  0  0  0  0  0  0  0  0  0  0
   -2.0246   -3.1206   -0.1484 C   0  0  0  0  0  0  0  0  0  0  0  0
   -3.0658   -2.8928    0.0927 H   0  0  0  0  0  0  0  0  0  0  0  0
   -1.8936   -3.0867   -1.2330 H   0  0  0  0  0  0  0  0  0  0  0  0
   -1.0994   -2.1166    0.5291 C   0  0  0  0  0  0  0  0  0  0  0  0
   -0.7968   -2.3389    1.6931 O   0  0  0  0  0  0  0  0  0  0  0  0
   -0.4555   -1.1257   -0.2186 N   0  0  0  0  0  0  0  0  0  0  0  0
   -1.5440   -0.1913   -0.5597 C   0  0  0  0  0  0  0  0  0  0  0  0
   -2.5562   -0.6119   -0.5218 H   0  0  0  0  0  0  0  0  0  0  0  0
   -1.3884    0.1417   -1.5919 H   0  0  0  0  0  0  0  0  0  0  0  0
   -1.4685    1.0403    0.3839 C   0  0  0  0  0  0  0  0  0  0  0  0
   -1.9166    0.8103    1.3566 H   0  0  0  0  0  0  0  0  0  0  0  0
   -1.9558    1.9256   -0.0365 H   0  0  0  0  0  0  0  0  0  0  0  0
    0.0236    1.2017    0.5069 C   0  0  0  0  0  0  0  0  0  0  0  0
    0.2944    1.7006    1.4435 H   0  0  0  0  0  0  0  0  0  0  0  0
    0.4324    1.7820   -0.3284 H   0  0  0  0  0  0  0  0  0  0  0  0
    0.5000   -0.2490    0.4782 C   0  0  1  0  0  0  0  0  0  0  0  0
    1.1117   -0.1445   -0.4251 H   0  0  0  0  0  0  0  0  0  0  0  0
    1.7773   -0.6729    1.2431 C   0  0  0  0  0  0  0  0  0  0  0  0
    2.6288    0.1692    1.5054 O   0  0  0  0  0  0  0  0  0  0  0  0
    2.0002   -1.9863    1.6095 N   0  0  0  0  0  0  0  0  0  0  0  0
    1.1594   -2.5661    1.6223 H   0  0  0  0  0  0  0  0  0  0  0  0
    3.1274   -2.3971    2.4363 C   0  0  0  0  0  0  0  0  0  0  0  0
    3.0610   -1.9399    3.4290 H   0  0  0  0  0  0  0  0  0  0  0  0
    3.1310   -3.4849    2.5530 H   0  0  0  0  0  0  0  0  0  0  0  0
    4.0736   -2.0987    1.9728 H   0  0  0  0  0  0  0  0  0  0  0  0
  1  2  1  0  0  0  0
  2  3  1  0  0  0  0
  2  4  1  0  0  0  0
  2  5  1  0  0  0  0
  5  6  2  0  0  0  0
  5  7  1  0  0  0  0
  7  8  1  0  0  0  0
  7 17  1  0  0  0  0
  8  9  1  0  0  0  0
  8 10  1  0  0  0  0
  8 11  1  0  0  0  0
 11 12  1  0  0  0  0
 11 13  1  0  0  0  0
 11 14  1  0  0  0  0
 14 15  1  0  0  0  0
 14 16  1  0  0  0  0
 14 17  1  0  0  0  0
 17 18  1  0  0  0  0
 17 19  1  0  0  0  0
 19 20  2  0  0  0  0
 19 21  1  0  0  0  0
 21 22  1  0  0  0  0
 21 23  1  0  0  0  0
 23 24  1  0  0  0  0
 23 25  1  0  0  0  0
 23 26  1  0  0  0  0
M  END
$$$$

  -OEChem-11182114133D

 26 26  0     1  0  0  0  0  0999 V2000
   -1.9181   -4.1186    0.1929 H   0  0  0  0  0  0  0  0  0  0  0  0
   -2.1036   -3.0902   -0.1292 C   0  0  0  0  0  0  0  0  0  0  0  0
   -3.1231   -2.8122    0.1495 H   0  0  0  0  0  0  0  0  0  0  0  0
   -2.0049   -3.0459   -1.2169 H   0  0  0  0  0  0  0  0  0  0  0  0
   -1.1043   -2.1471    0.5336 C   0  0  0  0  0  0  0  0  0  0  0  0
   -0.7162   -2.4587    1.6502 O   0  0  0  0  0  0  0  0  0  0  0  0
   -0.4499   -1.1556   -0.2058 N   0  0  0  0  0  0  0  0  0  0  0  0
   -1.5210   -0.2047   -0.5571 C   0  0  0  0  0  0  0  0  0  0  0  0
   -2.5394   -0.6089   -0.5347 H   0  0  0  0  0  0  0  0  0  0  0  0
   -1.3464    0.1310   -1.5853 H   0  0  0  0  0  0  0  0  0  0  0  0
   -1.4428    1.0207    0.3942 C   0  0  0  0  0  0  0  0  0  0  0  0
   -1.9078    0.7923    1.3593 H   0  0  0  0  0  0  0  0  0  0  0  0
   -1.9121    1.9143   -0.0286 H   0  0  0  0  0  0  0  0  0  0  0  0
    0.0489    1.1621    0.5390 C   0  0  0  0  0  0  0  0  0  0  0  0
    0.3121    1.6539    1.4815 H   0  0  0  0  0  0  0  0  0  0  0  0
    0.4764    1.7411   -0.2877 H   0  0  0  0  0  0  0  0  0  0  0  0
    0.5070   -0.2953    0.5091 C   0  0  1  0  0  0  0  0  0  0  0  0
    1.1327   -0.1891   -0.3843 H   0  0  0  0  0  0  0  0  0  0  0  0
    1.7707   -0.7477    1.2783 C   0  0  0  0  0  0  0  0  0  0  0  0
    2.5312    0.0952    1.7404 O   0  0  0  0  0  0  0  0  0  0  0  0
    2.1174   -2.0830    1.3580 N   0  0  0  0  0  0  0  0  0  0  0  0
    1.3319   -2.7211    1.2311 H   0  0  0  0  0  0  0  0  0  0  0  0
    3.2537   -2.5507    2.1412 C   0  0  0  0  0  0  0  0  0  0  0  0
    3.1181   -2.3018    3.1989 H   0  0  0  0  0  0  0  0  0  0  0  0
    3.3539   -3.6362    2.0488 H   0  0  0  0  0  0  0  0  0  0  0  0
    4.1810   -2.0889    1.7862 H   0  0  0  0  0  0  0  0  0  0  0  0
  1  2  1  0  0  0  0
  2  3  1  0  0  0  0
  2  4  1  0  0  0  0
  2  5  1  0  0  0  0
  5  6  2  0  0  0  0
  5  7  1  0  0  0  0
  7  8  1  0  0  0  0
  7 17  1  0  0  0  0
  8  9  1  0  0  0  0
  8 10  1  0  0  0  0
  8 11  1  0  0  0  0
 11 12  1  0  0  0  0
 11 13  1  0  0  0  0
 11 14  1  0  0  0  0
 14 15  1  0  0  0  0
 14 16  1  0  0  0  0
 14 17  1  0  0  0  0
 17 18  1  0  0  0  0
 17 19  1  0  0  0  0
 19 20  2  0  0  0  0
 19 21  1  0  0  0  0
 21 22  1  0  0  0  0
 21 23  1  0  0  0  0
 23 24  1  0  0  0  0
 23 25  1  0  0  0  0
 23 26  1  0  0  0  0
M  END
$$$$

  -OEChem-11182114133D

 26 26  0     1  0  0  0  0  0999 V2000
   -1.9227   -4.1224    0.2126 H   0  0  0  0  0  0  0  0  0  0  0  0
   -2.1126   -3.0928   -0.1030 C   0  0  0  0  0  0  0  0  0  0  0  0
   -3.1266   -2.8146    0.1949 H   0  0  0  0  0  0  0  0  0  0  0  0
   -2.0332   -3.0447   -1.1922 H   0  0  0  0  0  0  0  0  0  0  0  0
   -1.1007   -2.1538    0.5458 C   0  0  0  0  0  0  0  0  0  0  0  0
   -0.7017   -2.4662    1.6578 O   0  0  0  0  0  0  0  0  0  0  0  0
   -0.4405   -1.1751   -0.2063 N   0  0  0  0  0  0  0  0  0  0  0  0
   -1.5057   -0.2118   -0.5407 C   0  0  0  0  0  0  0  0  0  0  0  0
   -2.5270   -0.6095   -0.5235 H   0  0  0  0  0  0  0  0  0  0  0  0
   -1.3310    0.1380   -1.5644 H   0  0  0  0  0  0  0  0  0  0  0  0
   -1.4152    1.0007    0.4278 C   0  0  0  0  0  0  0  0  0  0  0  0
   -1.8747    0.7615    1.3930 H   0  0  0  0  0  0  0  0  0  0  0  0
   -1.8822    1.9028    0.0209 H   0  0  0  0  0  0  0  0  0  0  0  0
    0.0785    1.1314    0.5644 C   0  0  0  0  0  0  0  0  0  0  0  0
    0.3498    1.6084    1.5120 H   0  0  0  0  0  0  0  0  0  0  0  0
    0.5035    1.7197   -0.2571 H   0  0  0  0  0  0  0  0  0  0  0  0
    0.5248   -0.3290    0.5113 C   0  0  1  0  0  0  0  0  0  0  0  0
    1.1531   -0.2085   -0.3781 H   0  0  0  0  0  0  0  0  0  0  0  0
    1.7727   -0.8254    1.2764 C   0  0  0  0  0  0  0  0  0  0  0  0
    2.4345   -0.0366    1.9406 O   0  0  0  0  0  0  0  0  0  0  0  0
    2.2450   -2.1111    1.0864 N   0  0  0  0  0  0  0  0  0  0  0  0
    1.5530   -2.7682    0.7345 H   0  0  0  0  0  0  0  0  0  0  0  0
    3.3802   -2.6445    1.8282 C   0  0  0  0  0  0  0  0  0  0  0  0
    3.1769   -2.6265    2.9041 H   0  0  0  0  0  0  0  0  0  0  0  0
    3.5743   -3.6787    1.5286 H   0  0  0  0  0  0  0  0  0  0  0  0
    4.2806   -2.0541    1.6290 H   0  0  0  0  0  0  0  0  0  0  0  0
  1  2  1  0  0  0  0
  2  3  1  0  0  0  0
  2  4  1  0  0  0  0
  2  5  1  0  0  0  0
  5  6  2  0  0  0  0
  5  7  1  0  0  0  0
  7  8  1  0  0  0  0
  7 17  1  0  0  0  0
  8  9  1  0  0  0  0
  8 10  1  0  0  0  0
  8 11  1  0  0  0  0
 11 12  1  0  0  0  0
 11 13  1  0  0  0  0
 11 14  1  0  0  0  0
 14 15  1  0  0  0  0
 14 16  1  0  0  0  0
 14 17  1  0  0  0  0
 17 18  1  0  0  0  0
 17 19  1  0  0  0  0
 19 20  2  0  0  0  0
 19 21  1  0  0  0  0
 21 22  1  0  0  0  0
 21 23  1  0  0  0  0
 23 24  1  0  0  0  0
 23 25  1  0  0  0  0
 23 26  1  0  0  0  0
M  END
$$$$

  -OEChem-11182114133D

 26 26  0     1  0  0  0  0  0999 V2000
   -1.9162   -4.1343    0.2453 H   0  0  0  0  0  0  0  0  0  0  0  0
   -2.1059   -3.1103   -0.0881 C   0  0  0  0  0  0  0  0  0  0  0  0
   -3.1235   -2.8298    0.1945 H   0  0  0  0  0  0  0  0  0  0  0  0
   -2.0153   -3.0776   -1.1768 H   0  0  0  0  0  0  0  0  0  0  0  0
   -1.1035   -2.1594    0.5568 C   0  0  0  0  0  0  0  0  0  0  0  0
   -0.7412   -2.4309    1.6917 O   0  0  0  0  0  0  0  0  0  0  0  0
   -0.4315   -1.2004   -0.2107 N   0  0  0  0  0  0  0  0  0  0  0  0
   -1.4890   -0.2233   -0.5285 C   0  0  0  0  0  0  0  0  0  0  0  0
   -2.5141   -0.6120   -0.5101 H   0  0  0  0  0  0  0  0  0  0  0  0
   -1.3170    0.1343   -1.5498 H   0  0  0  0  0  0  0  0  0  0  0  0
   -1.3808    0.9805    0.4505 C   0  0  0  0  0  0  0  0  0  0  0  0
   -1.8330    0.7368    1.4179 H   0  0  0  0  0  0  0  0  0  0  0  0
   -1.8448    1.8897    0.0558 H   0  0  0  0  0  0  0  0  0  0  0  0
    0.1154    1.0979    0.5724 C   0  0  0  0  0  0  0  0  0  0  0  0
    0.4011    1.5638    1.5215 H   0  0  0  0  0  0  0  0  0  0  0  0
    0.5360    1.6902   -0.2483 H   0  0  0  0  0  0  0  0  0  0  0  0
    0.5459   -0.3666    0.5016 C   0  0  1  0  0  0  0  0  0  0  0  0
    1.1737   -0.2366   -0.3867 H   0  0  0  0  0  0  0  0  0  0  0  0
    1.7760   -0.9046    1.2652 C   0  0  0  0  0  0  0  0  0  0  0  0
    2.3244   -0.2105    2.1125 O   0  0  0  0  0  0  0  0  0  0  0  0
    2.3879   -2.0756    0.8535 N   0  0  0  0  0  0  0  0  0  0  0  0
    1.8278   -2.6791    0.2587 H   0  0  0  0  0  0  0  0  0  0  0  0
    3.5352   -2.6507    1.5438 C   0  0  0  0  0  0  0  0  0  0  0  0
    3.2704   -2.9112    2.5739 H   0  0  0  0  0  0  0  0  0  0  0  0
    3.8694   -3.5571    1.0302 H   0  0  0  0  0  0  0  0  0  0  0  0
    4.3680   -1.9399    1.5630 H   0  0  0  0  0  0  0  0  0  0  0  0
  1  2  1  0  0  0  0
  2  3  1  0  0  0  0
  2  4  1  0  0  0  0
  2  5  1  0  0  0  0
  5  6  2  0  0  0  0
  5  7  1  0  0  0  0
  7  8  1  0  0  0  0
  7 17  1  0  0  0  0
  8  9  1  0  0  0  0
  8 10  1  0  0  0  0
  8 11  1  0  0  0  0
 11 12  1  0  0  0  0
 11 13  1  0  0  0  0
 11 14  1  0  0  0  0
 14 15  1  0  0  0  0
 14 16  1  0  0  0  0
 14 17  1  0  0  0  0
 17 18  1  0  0  0  0
 17 19  1  0  0  0  0
 19 20  2  0  0  0  0
 19 21  1  0  0  0  0
 21 22  1  0  0  0  0
 21 23  1  0  0  0  0
 23 24  1  0  0  0  0
 23 25  1  0  0  0  0
 23 26  1  0  0  0  0
M  END
$$$$

  -OEChem-11182114133D

 26 26  0     1  0  0  0  0  0999 V2000
   -1.8924   -4.1540    0.2400 H   0  0  0  0  0  0  0  0  0  0  0  0
   -2.1043   -3.1321   -0.0861 C   0  0  0  0  0  0  0  0  0  0  0  0
   -3.1237   -2.8705    0.2081 H   0  0  0  0  0  0  0  0  0  0  0  0
   -2.0256   -3.0916   -1.1755 H   0  0  0  0  0  0  0  0  0  0  0  0
   -1.1131   -2.1679    0.5552 C   0  0  0  0  0  0  0  0  0  0  0  0
   -0.7924   -2.3940    1.7121 O   0  0  0  0  0  0  0  0  0  0  0  0
   -0.4318   -1.2258   -0.2249 N   0  0  0  0  0  0  0  0  0  0  0  0
   -1.4830   -0.2301   -0.5055 C   0  0  0  0  0  0  0  0  0  0  0  0
   -2.5126   -0.6069   -0.4750 H   0  0  0  0  0  0  0  0  0  0  0  0
   -1.3268    0.1417   -1.5241 H   0  0  0  0  0  0  0  0  0  0  0  0
   -1.3416    0.9577    0.4902 C   0  0  0  0  0  0  0  0  0  0  0  0
   -1.7728    0.7013    1.4641 H   0  0  0  0  0  0  0  0  0  0  0  0
   -1.8064    1.8773    0.1215 H   0  0  0  0  0  0  0  0  0  0  0  0
    0.1583    1.0582    0.5785 C   0  0  0  0  0  0  0  0  0  0  0  0
    0.4715    1.5052    1.5279 H   0  0  0  0  0  0  0  0  0  0  0  0
    0.5660    1.6594   -0.2423 H   0  0  0  0  0  0  0  0  0  0  0  0
    0.5684   -0.4099    0.4749 C   0  0  1  0  0  0  0  0  0  0  0  0
    1.1819   -0.2671   -0.4211 H   0  0  0  0  0  0  0  0  0  0  0  0
    1.7899   -0.9878    1.2243 C   0  0  0  0  0  0  0  0  0  0  0  0
    2.2237   -0.4196    2.2186 O   0  0  0  0  0  0  0  0  0  0  0  0
    2.5511   -1.9869    0.6412 N   0  0  0  0  0  0  0  0  0  0  0  0
    2.1218   -2.4871   -0.1314 H   0  0  0  0  0  0  0  0  0  0  0  0
    3.7287   -2.5609    1.2799 C   0  0  0  0  0  0  0  0  0  0  0  0
    3.4578   -3.0250    2.2340 H   0  0  0  0  0  0  0  0  0  0  0  0
    4.1736   -3.3247    0.6352 H   0  0  0  0  0  0  0  0  0  0  0  0
    4.4807   -1.7867    1.4652 H   0  0  0  0  0  0  0  0  0  0  0  0
  1  2  1  0  0  0  0
  2  3  1  0  0  0  0
  2  4  1  0  0  0  0
  2  5  1  0  0  0  0
  5  6  2  0  0  0  0
  5  7  1  0  0  0  0
  7  8  1  0  0  0  0
  7 17  1  0  0  0  0
  8  9  1  0  0  0  0
  8 10  1  0  0  0  0
  8 11  1  0  0  0  0
 11 12  1  0  0  0  0
 11 13  1  0  0  0  0
 11 14  1  0  0  0  0
 14 15  1  0  0  0  0
 14 16  1  0  0  0  0
 14 17  1  0  0  0  0
 17 18  1  0  0  0  0
 17 19  1  0  0  0  0
 19 20  2  0  0  0  0
 19 21  1  0  0  0  0
 21 22  1  0  0  0  0
 21 23  1  0  0  0  0
 23 24  1  0  0  0  0
 23 25  1  0  0  0  0
 23 26  1  0  0  0  0
M  END
$$$$

  -OEChem-11182114133D

 26 26  0     1  0  0  0  0  0999 V2000
   -1.8979   -4.1687    0.2271 H   0  0  0  0  0  0  0  0  0  0  0  0
   -2.1209   -3.1443   -0.0828 C   0  0  0  0  0  0  0  0  0  0  0  0
   -3.1350   -2.8902    0.2351 H   0  0  0  0  0  0  0  0  0  0  0  0
   -2.0647   -3.0907   -1.1730 H   0  0  0  0  0  0  0  0  0  0  0  0
   -1.1211   -2.1834    0.5497 C   0  0  0  0  0  0  0  0  0  0  0  0
   -0.8058   -2.3971    1.7101 O   0  0  0  0  0  0  0  0  0  0  0  0
   -0.4386   -1.2522   -0.2420 N   0  0  0  0  0  0  0  0  0  0  0  0
   -1.4819   -0.2364   -0.4789 C   0  0  0  0  0  0  0  0  0  0  0  0
   -2.5165   -0.5979   -0.4256 H   0  0  0  0  0  0  0  0  0  0  0  0
   -1.3482    0.1469   -1.4965 H   0  0  0  0  0  0  0  0  0  0  0  0
   -1.2952    0.9367    0.5278 C   0  0  0  0  0  0  0  0  0  0  0  0
   -1.6993    0.6727    1.5113 H   0  0  0  0  0  0  0  0  0  0  0  0
   -1.7590    1.8671    0.1858 H   0  0  0  0  0  0  0  0  0  0  0  0
    0.2074    1.0164    0.5702 C   0  0  0  0  0  0  0  0  0  0  0  0
    0.5570    1.4454    1.5154 H   0  0  0  0  0  0  0  0  0  0  0  0
    0.5969    1.6233   -0.2553 H   0  0  0  0  0  0  0  0  0  0  0  0
    0.5918   -0.4557    0.4352 C   0  0  1  0  0  0  0  0  0  0  0  0
    1.1766   -0.3065   -0.4782 H   0  0  0  0  0  0  0  0  0  0  0  0
    1.8186   -1.0613    1.1565 C   0  0  0  0  0  0  0  0  0  0  0  0
    2.1416   -0.6412    2.2603 O   0  0  0  0  0  0  0  0  0  0  0  0
    2.7283   -1.8413    0.4601 N   0  0  0  0  0  0  0  0  0  0  0  0
    2.4175   -2.2186   -0.4300 H   0  0  0  0  0  0  0  0  0  0  0  0
    3.9368   -2.3845    1.0681 C   0  0  0  0  0  0  0  0  0  0  0  0
    3.6812   -3.0308    1.9144 H   0  0  0  0  0  0  0  0  0  0  0  0
    4.4962   -2.9750    0.3364 H   0  0  0  0  0  0  0  0  0  0  0  0
    4.5835   -1.5758    1.4244 H   0  0  0  0  0  0  0  0  0  0  0  0
  1  2  1  0  0  0  0
  2  3  1  0  0  0  0
  2  4  1  0  0  0  0
  2  5  1  0  0  0  0
  5  6  2  0  0  0  0
  5  7  1  0  0  0  0
  7  8  1  0  0  0  0
  7 17  1  0  0  0  0
  8  9  1  0  0  0  0
  8 10  1  0  0  0  0
  8 11  1  0  0  0  0
 11 12  1  0  0  0  0
 11 13  1  0  0  0  0
 11 14  1  0  0  0  0
 14 15  1  0  0  0  0
 14 16  1  0  0  0  0
 14 17  1  0  0  0  0
 17 18  1  0  0  0  0
 17 19  1  0  0  0  0
 19 20  2  0  0  0  0
 19 21  1  0  0  0  0
 21 22  1  0  0  0  0
 21 23  1  0  0  0  0
 23 24  1  0  0  0  0
 23 25  1  0  0  0  0
 23 26  1  0  0  0  0
M  END
$$$$

  -OEChem-11182114133D

 26 26  0     1  0  0  0  0  0999 V2000
   -1.9014   -4.1865    0.2401 H   0  0  0  0  0  0  0  0  0  0  0  0
   -2.0973   -3.1744   -0.1242 C   0  0  0  0  0  0  0  0  0  0  0  0
   -3.1252   -2.9006    0.1252 H   0  0  0  0  0  0  0  0  0  0  0  0
   -1.9793   -3.1660   -1.2106 H   0  0  0  0  0  0  0  0  0  0  0  0
   -1.1253   -2.1953    0.5215 C   0  0  0  0  0  0  0  0  0  0  0  0
   -0.8559   -2.3707    1.6993 O   0  0  0  0  0  0  0  0  0  0  0  0
   -0.4448   -1.2628   -0.2693 N   0  0  0  0  0  0  0  0  0  0  0  0
   -1.4830   -0.2298   -0.4512 C   0  0  0  0  0  0  0  0  0  0  0  0
   -2.5201   -0.5830   -0.3802 H   0  0  0  0  0  0  0  0  0  0  0  0
   -1.3727    0.1777   -1.4622 H   0  0  0  0  0  0  0  0  0  0  0  0
   -1.2570    0.9166    0.5785 C   0  0  0  0  0  0  0  0  0  0  0  0
   -1.6348    0.6315    1.5667 H   0  0  0  0  0  0  0  0  0  0  0  0
   -1.7217    1.8592    0.2733 H   0  0  0  0  0  0  0  0  0  0  0  0
    0.2468    0.9813    0.5779 C   0  0  0  0  0  0  0  0  0  0  0  0
    0.6291    1.3810    1.5233 H   0  0  0  0  0  0  0  0  0  0  0  0
    0.6181    1.6056   -0.2430 H   0  0  0  0  0  0  0  0  0  0  0  0
    0.6110   -0.4901    0.3954 C   0  0  1  0  0  0  0  0  0  0  0  0
    1.1662   -0.3252   -0.5331 H   0  0  0  0  0  0  0  0  0  0  0  0
    1.8460   -1.1227    1.0829 C   0  0  0  0  0  0  0  0  0  0  0  0
    2.0550   -0.9006    2.2681 O   0  0  0  0  0  0  0  0  0  0  0  0
    2.8908   -1.6409    0.3318 N   0  0  0  0  0  0  0  0  0  0  0  0
    2.6998   -1.8435   -0.6446 H   0  0  0  0  0  0  0  0  0  0  0  0
    4.1261   -2.1411    0.9234 C   0  0  0  0  0  0  0  0  0  0  0  0
    3.9135   -2.9625    1.6157 H   0  0  0  0  0  0  0  0  0  0  0  0
    4.7974   -2.5102    0.1422 H   0  0  0  0  0  0  0  0  0  0  0  0
    4.6395   -1.3431    1.4701 H   0  0  0  0  0  0  0  0  0  0  0  0
  1  2  1  0  0  0  0
  2  3  1  0  0  0  0
  2  4  1  0  0  0  0
  2  5  1  0  0  0  0
  5  6  2  0  0  0  0
  5  7  1  0  0  0  0
  7  8  1  0  0  0  0
  7 17  1  0  0  0  0
  8  9  1  0  0  0  0
  8 10  1  0  0  0  0
  8 11  1  0  0  0  0
 11 12  1  0  0  0  0
 11 13  1  0  0  0  0
 11 14  1  0  0  0  0
 14 15  1  0  0  0  0
 14 16  1  0  0  0  0
 14 17  1  0  0  0  0
 17 18  1  0  0  0  0
 17 19  1  0  0  0  0
 19 20  2  0  0  0  0
 19 21  1  0  0  0  0
 21 22  1  0  0  0  0
 21 23  1  0  0  0  0
 23 24  1  0  0  0  0
 23 25  1  0  0  0  0
 23 26  1  0  0  0  0
M  END
$$$$

  -OEChem-11182114133D

 26 26  0     1  0  0  0  0  0999 V2000
   -1.6125   -4.2408    0.1781 H   0  0  0  0  0  0  0  0  0  0  0  0
   -1.9582   -3.2614   -0.1624 C   0  0  0  0  0  0  0  0  0  0  0  0
   -3.0116   -3.1419    0.1024 H   0  0  0  0  0  0  0  0  0  0  0  0
   -1.8579   -3.2121   -1.2494 H   0  0  0  0  0  0  0  0  0  0  0  0
   -1.1321   -2.1684    0.4967 C   0  0  0  0  0  0  0  0  0  0  0  0
   -1.0701   -2.1594    1.7166 O   0  0  0  0  0  0  0  0  0  0  0  0
   -0.4635   -1.2369   -0.3034 N   0  0  0  0  0  0  0  0  0  0  0  0
   -1.4950   -0.1865   -0.4188 C   0  0  0  0  0  0  0  0  0  0  0  0
   -2.5317   -0.5381   -0.3243 H   0  0  0  0  0  0  0  0  0  0  0  0
   -1.4156    0.2488   -1.4212 H   0  0  0  0  0  0  0  0  0  0  0  0
   -1.2238    0.9293    0.6334 C   0  0  0  0  0  0  0  0  0  0  0  0
   -1.5716    0.6226    1.6262 H   0  0  0  0  0  0  0  0  0  0  0  0
   -1.6888    1.8837    0.3684 H   0  0  0  0  0  0  0  0  0  0  0  0
    0.2795    0.9790    0.5817 C   0  0  0  0  0  0  0  0  0  0  0  0
    0.6989    1.3450    1.5250 H   0  0  0  0  0  0  0  0  0  0  0  0
    0.6288    1.6229   -0.2335 H   0  0  0  0  0  0  0  0  0  0  0  0
    0.6195   -0.4899    0.3455 C   0  0  1  0  0  0  0  0  0  0  0  0
    1.1430   -0.3104   -0.5980 H   0  0  0  0  0  0  0  0  0  0  0  0
    1.8614   -1.1555    0.9902 C   0  0  0  0  0  0  0  0  0  0  0  0
    1.9486   -1.2391    2.2066 O   0  0  0  0  0  0  0  0  0  0  0  0
    3.0097   -1.3995    0.2498 N   0  0  0  0  0  0  0  0  0  0  0  0
    2.9403   -1.3228   -0.7601 H   0  0  0  0  0  0  0  0  0  0  0  0
    4.2472   -1.9057    0.8322 C   0  0  0  0  0  0  0  0  0  0  0  0
    4.0720   -2.8648    1.3309 H   0  0  0  0  0  0  0  0  0  0  0  0
    4.9996   -2.0540    0.0519 H   0  0  0  0  0  0  0  0  0  0  0  0
    4.6446   -1.1949    1.5644 H   0  0  0  0  0  0  0  0  0  0  0  0
  1  2  1  0  0  0  0
  2  3  1  0  0  0  0
  2  4  1  0  0  0  0
  2  5  1  0  0  0  0
  5  6  2  0  0  0  0
  5  7  1  0  0  0  0
  7  8  1  0  0  0  0
  7 17  1  0  0  0  0
  8  9  1  0  0  0  0
  8 10  1  0  0  0  0
  8 11  1  0  0  0  0
 11 12  1  0  0  0  0
 11 13  1  0  0  0  0
 11 14  1  0  0  0  0
 14 15  1  0  0  0  0
 14 16  1  0  0  0  0
 14 17  1  0  0  0  0
 17 18  1  0  0  0  0
 17 19  1  0  0  0  0
 19 20  2  0  0  0  0
 19 21  1  0  0  0  0
 21 22  1  0  0  0  0
 21 23  1  0  0  0  0
 23 24  1  0  0  0  0
 23 25  1  0  0  0  0
 23 26  1  0  0  0  0
M  END
$$$$

  -OEChem-11182114133D

 26 26  0     1  0  0  0  0  0999 V2000
   -0.5270   -3.7632    1.2033 H   0  0  0  0  0  0  0  0  0  0  0  0
   -0.8669   -3.4094    0.2263 C   0  0  0  0  0  0  0  0  0  0  0  0
   -1.6652   -4.0635   -0.1327 H   0  0  0  0  0  0  0  0  0  0  0  0
   -0.0313   -3.4591   -0.4759 H   0  0  0  0  0  0  0  0  0  0  0  0
   -1.3825   -1.9836    0.3463 C   0  0  0  0  0  0  0  0  0  0  0  0
   -2.3845   -1.8296    1.0386 O   0  0  0  0  0  0  0  0  0  0  0  0
   -0.7513   -0.9781   -0.4092 N   0  0  0  0  0  0  0  0  0  0  0  0
   -1.6304    0.2078   -0.4347 C   0  0  0  0  0  0  0  0  0  0  0  0
   -2.7045   -0.0114   -0.4124 H   0  0  0  0  0  0  0  0  0  0  0  0
   -1.4601    0.7237   -1.3858 H   0  0  0  0  0  0  0  0  0  0  0  0
   -1.2324    1.1698    0.7252 C   0  0  0  0  0  0  0  0  0  0  0  0
   -1.6409    0.8167    1.6786 H   0  0  0  0  0  0  0  0  0  0  0  0
   -1.5599    2.1994    0.5526 H   0  0  0  0  0  0  0  0  0  0  0  0
    0.2676    1.0163    0.6838 C   0  0  0  0  0  0  0  0  0  0  0  0
    0.7150    1.2308    1.6600 H   0  0  0  0  0  0  0  0  0  0  0  0
    0.7150    1.6825   -0.0631 H   0  0  0  0  0  0  0  0  0  0  0  0
    0.4105   -0.4569    0.3076 C   0  0  1  0  0  0  0  0  0  0  0  0
    0.9063   -0.2488   -0.6455 H   0  0  0  0  0  0  0  0  0  0  0  0
    1.6339   -1.2819    0.7751 C   0  0  0  0  0  0  0  0  0  0  0  0
    1.5286   -2.0002    1.7579 O   0  0  0  0  0  0  0  0  0  0  0  0
    2.8607   -1.2206    0.1309 N   0  0  0  0  0  0  0  0  0  0  0  0
    2.9365   -0.6287   -0.6910 H   0  0  0  0  0  0  0  0  0  0  0  0
    4.0297   -1.9798    0.5601 C   0  0  0  0  0  0  0  0  0  0  0  0
    3.8180   -3.0541    0.5414 H   0  0  0  0  0  0  0  0  0  0  0  0
    4.8743   -1.7827   -0.1071 H   0  0  0  0  0  0  0  0  0  0  0  0
    4.3190   -1.6950    1.5772 H   0  0  0  0  0  0  0  0  0  0  0  0
  1  2  1  0  0  0  0
  2  3  1  0  0  0  0
  2  4  1  0  0  0  0
  2  5  1  0  0  0  0
  5  6  2  0  0  0  0
  5  7  1  0  0  0  0
  7  8  1  0  0  0  0
  7 17  1  0  0  0  0
  8  9  1  0  0  0  0
  8 10  1  0  0  0  0
  8 11  1  0  0  0  0
 11 12  1  0  0  0  0
 11 13  1  0  0  0  0
 11 14  1  0  0  0  0
 14 15  1  0  0  0  0
 14 16  1  0  0  0  0
 14 17  1  0  0  0  0
 17 18  1  0  0  0  0
 17 19  1  0  0  0  0
 19 20  2  0  0  0  0
 19 21  1  0  0  0  0
 21 22  1  0  0  0  0
 21 23  1  0  0  0  0
 23 24  1  0  0  0  0
 23 25  1  0  0  0  0
 23 26  1  0  0  0  0
M  END
$$$$

  -OEChem-11182114133D

 26 26  0     1  0  0  0  0  0999 V2000
   -0.2433   -3.8719    0.6569 H   0  0  0  0  0  0  0  0  0  0  0  0
   -1.0214   -3.4593    0.0104 C   0  0  0  0  0  0  0  0  0  0  0  0
   -1.9325   -4.0509    0.1302 H   0  0  0  0  0  0  0  0  0  0  0  0
   -0.6916   -3.5285   -1.0287 H   0  0  0  0  0  0  0  0  0  0  0  0
   -1.2901   -2.0101    0.3817 C   0  0  0  0  0  0  0  0  0  0  0  0
   -2.0490   -1.8017    1.3245 O   0  0  0  0  0  0  0  0  0  0  0  0
   -0.6887   -1.0032   -0.3902 N   0  0  0  0  0  0  0  0  0  0  0  0
   -1.6174    0.1456   -0.4070 C   0  0  0  0  0  0  0  0  0  0  0  0
   -2.6759   -0.1330   -0.3316 H   0  0  0  0  0  0  0  0  0  0  0  0
   -1.5083    0.6504   -1.3729 H   0  0  0  0  0  0  0  0  0  0  0  0
   -1.2304    1.1428    0.7237 C   0  0  0  0  0  0  0  0  0  0  0  0
   -1.6052    0.7999    1.6941 H   0  0  0  0  0  0  0  0  0  0  0  0
   -1.5997    2.1556    0.5363 H   0  0  0  0  0  0  0  0  0  0  0  0
    0.2719    1.0459    0.6577 C   0  0  0  0  0  0  0  0  0  0  0  0
    0.7275    1.2938    1.6220 H   0  0  0  0  0  0  0  0  0  0  0  0
    0.6799    1.7149   -0.1089 H   0  0  0  0  0  0  0  0  0  0  0  0
    0.4637   -0.4268    0.3023 C   0  0  1  0  0  0  0  0  0  0  0  0
    0.9475   -0.2267   -0.6593 H   0  0  0  0  0  0  0  0  0  0  0  0
    1.7162   -1.2041    0.7730 C   0  0  0  0  0  0  0  0  0  0  0  0
    1.5994   -2.1569    1.5292 O   0  0  0  0  0  0  0  0  0  0  0  0
    2.9835   -0.8851    0.3086 N   0  0  0  0  0  0  0  0  0  0  0  0
    3.0696   -0.1060   -0.3370 H   0  0  0  0  0  0  0  0  0  0  0  0
    4.1856   -1.6173    0.6908 C   0  0  0  0  0  0  0  0  0  0  0  0
    4.1266   -2.6557    0.3481 H   0  0  0  0  0  0  0  0  0  0  0  0
    5.0695   -1.1544    0.2416 H   0  0  0  0  0  0  0  0  0  0  0  0
    4.3091   -1.6116    1.7790 H   0  0  0  0  0  0  0  0  0  0  0  0
  1  2  1  0  0  0  0
  2  3  1  0  0  0  0
  2  4  1  0  0  0  0
  2  5  1  0  0  0  0
  5  6  2  0  0  0  0
  5  7  1  0  0  0  0
  7  8  1  0  0  0  0
  7 17  1  0  0  0  0
  8  9  1  0  0  0  0
  8 10  1  0  0  0  0
  8 11  1  0  0  0  0
 11 12  1  0  0  0  0
 11 13  1  0  0  0  0
 11 14  1  0  0  0  0
 14 15  1  0  0  0  0
 14 16  1  0  0  0  0
 14 17  1  0  0  0  0
 17 18  1  0  0  0  0
 17 19  1  0  0  0  0
 19 20  2  0  0  0  0
 19 21  1  0  0  0  0
 21 22  1  0  0  0  0
 21 23  1  0  0  0  0
 23 24  1  0  0  0  0
 23 25  1  0  0  0  0
 23 26  1  0  0  0  0
M  END
$$$$

  -OEChem-11182114133D

 26 26  0     1  0  0  0  0  0999 V2000
   -0.0895   -3.7294   -0.3132 H   0  0  0  0  0  0  0  0  0  0  0  0
   -1.1325   -3.4561   -0.1355 C   0  0  0  0  0  0  0  0  0  0  0  0
   -1.5552   -4.1465    0.5991 H   0  0  0  0  0  0  0  0  0  0  0  0
   -1.6887   -3.5471   -1.0709 H   0  0  0  0  0  0  0  0  0  0  0  0
   -1.2115   -2.0280    0.3761 C   0  0  0  0  0  0  0  0  0  0  0  0
   -1.7793   -1.8236    1.4459 O   0  0  0  0  0  0  0  0  0  0  0  0
   -0.6328   -1.0154   -0.4004 N   0  0  0  0  0  0  0  0  0  0  0  0
   -1.6045    0.0977   -0.4069 C   0  0  0  0  0  0  0  0  0  0  0  0
   -2.6478   -0.2256   -0.2993 H   0  0  0  0  0  0  0  0  0  0  0  0
   -1.5380    0.5990   -1.3784 H   0  0  0  0  0  0  0  0  0  0  0  0
   -1.2369    1.1150    0.7100 C   0  0  0  0  0  0  0  0  0  0  0  0
   -1.5907    0.7724    1.6882 H   0  0  0  0  0  0  0  0  0  0  0  0
   -1.6405    2.1133    0.5164 H   0  0  0  0  0  0  0  0  0  0  0  0
    0.2664    1.0688    0.6305 C   0  0  0  0  0  0  0  0  0  0  0  0
    0.7226    1.3400    1.5882 H   0  0  0  0  0  0  0  0  0  0  0  0
    0.6427    1.7451   -0.1457 H   0  0  0  0  0  0  0  0  0  0  0  0
    0.5065   -0.3987    0.2815 C   0  0  1  0  0  0  0  0  0  0  0  0
    0.9926   -0.1935   -0.6783 H   0  0  0  0  0  0  0  0  0  0  0  0
    1.7778   -1.1419    0.7546 C   0  0  0  0  0  0  0  0  0  0  0  0
    1.7049   -2.2654    1.2322 O   0  0  0  0  0  0  0  0  0  0  0  0
    3.0354   -0.6055    0.5262 N   0  0  0  0  0  0  0  0  0  0  0  0
    3.0870    0.3186    0.1085 H   0  0  0  0  0  0  0  0  0  0  0  0
    4.2740   -1.2781    0.9012 C   0  0  0  0  0  0  0  0  0  0  0  0
    4.3643   -2.2356    0.3774 H   0  0  0  0  0  0  0  0  0  0  0  0
    5.1360   -0.6577    0.6379 H   0  0  0  0  0  0  0  0  0  0  0  0
    4.2980   -1.4630    1.9805 H   0  0  0  0  0  0  0  0  0  0  0  0
  1  2  1  0  0  0  0
  2  3  1  0  0  0  0
  2  4  1  0  0  0  0
  2  5  1  0  0  0  0
  5  6  2  0  0  0  0
  5  7  1  0  0  0  0
  7  8  1  0  0  0  0
  7 17  1  0  0  0  0
  8  9  1  0  0  0  0
  8 10  1  0  0  0  0
  8 11  1  0  0  0  0
 11 12  1  0  0  0  0
 11 13  1  0  0  0  0
 11 14  1  0  0  0  0
 14 15  1  0  0  0  0
 14 16  1  0  0  0  0
 14 17  1  0  0  0  0
 17 18  1  0  0  0  0
 17 19  1  0  0  0  0
 19 20  2  0  0  0  0
 19 21  1  0  0  0  0
 21 22  1  0  0  0  0
 21 23  1  0  0  0  0
 23 24  1  0  0  0  0
 23 25  1  0  0  0  0
 23 26  1  0  0  0  0
M  END
$$$$

  -OEChem-11182114133D

 26 26  0     1  0  0  0  0  0999 V2000
   -0.1909   -3.7929   -0.4562 H   0  0  0  0  0  0  0  0  0  0  0  0
   -1.1975   -3.4421   -0.2148 C   0  0  0  0  0  0  0  0  0  0  0  0
   -1.6497   -4.1345    0.5004 H   0  0  0  0  0  0  0  0  0  0  0  0
   -1.7990   -3.4290   -1.1263 H   0  0  0  0  0  0  0  0  0  0  0  0
   -1.1226   -2.0462    0.3775 C   0  0  0  0  0  0  0  0  0  0  0  0
   -1.5092   -1.8750    1.5306 O   0  0  0  0  0  0  0  0  0  0  0  0
   -0.5871   -1.0186   -0.4073 N   0  0  0  0  0  0  0  0  0  0  0  0
   -1.6109    0.0457   -0.3880 C   0  0  0  0  0  0  0  0  0  0  0  0
   -2.6344   -0.3282   -0.2541 H   0  0  0  0  0  0  0  0  0  0  0  0
   -1.5919    0.5516   -1.3594 H   0  0  0  0  0  0  0  0  0  0  0  0
   -1.2676    1.0761    0.7240 C   0  0  0  0  0  0  0  0  0  0  0  0
   -1.5855    0.7165    1.7083 H   0  0  0  0  0  0  0  0  0  0  0  0
   -1.7201    2.0553    0.5418 H   0  0  0  0  0  0  0  0  0  0  0  0
    0.2342    1.0998    0.6144 C   0  0  0  0  0  0  0  0  0  0  0  0
    0.6950    1.3907    1.5639 H   0  0  0  0  0  0  0  0  0  0  0  0
    0.5626    1.7946   -0.1672 H   0  0  0  0  0  0  0  0  0  0  0  0
    0.5371   -0.3541    0.2549 C   0  0  1  0  0  0  0  0  0  0  0  0
    1.0142   -0.1235   -0.7037 H   0  0  0  0  0  0  0  0  0  0  0  0
    1.8353   -1.0579    0.7112 C   0  0  0  0  0  0  0  0  0  0  0  0
    1.8627   -2.2654    0.9076 O   0  0  0  0  0  0  0  0  0  0  0  0
    3.0304   -0.3577    0.7437 N   0  0  0  0  0  0  0  0  0  0  0  0
    2.9979    0.6400    0.5582 H   0  0  0  0  0  0  0  0  0  0  0  0
    4.3073   -0.9663    1.0984 C   0  0  0  0  0  0  0  0  0  0  0  0
    4.5526   -1.7759    0.4032 H   0  0  0  0  0  0  0  0  0  0  0  0
    5.1067   -0.2204    1.0550 H   0  0  0  0  0  0  0  0  0  0  0  0
    4.2687   -1.3732    2.1144 H   0  0  0  0  0  0  0  0  0  0  0  0
  1  2  1  0  0  0  0
  2  3  1  0  0  0  0
  2  4  1  0  0  0  0
  2  5  1  0  0  0  0
  5  6  2  0  0  0  0
  5  7  1  0  0  0  0
  7  8  1  0  0  0  0
  7 17  1  0  0  0  0
  8  9  1  0  0  0  0
  8 10  1  0  0  0  0
  8 11  1  0  0  0  0
 11 12  1  0  0  0  0
 11 13  1  0  0  0  0
 11 14  1  0  0  0  0
 14 15  1  0  0  0  0
 14 16  1  0  0  0  0
 14 17  1  0  0  0  0
 17 18  1  0  0  0  0
 17 19  1  0  0  0  0
 19 20  2  0  0  0  0
 19 21  1  0  0  0  0
 21 22  1  0  0  0  0
 21 23  1  0  0  0  0
 23 24  1  0  0  0  0
 23 25  1  0  0  0  0
 23 26  1  0  0  0  0
M  END
$$$$

  -OEChem-11182114133D

 26 26  0     1  0  0  0  0  0999 V2000
   -0.3553   -3.8320   -0.6215 H   0  0  0  0  0  0  0  0  0  0  0  0
   -1.2890   -3.4142   -0.2365 C   0  0  0  0  0  0  0  0  0  0  0  0
   -1.7058   -4.1029    0.5032 H   0  0  0  0  0  0  0  0  0  0  0  0
   -1.9977   -3.3055   -1.0604 H   0  0  0  0  0  0  0  0  0  0  0  0
   -1.0162   -2.0614    0.3960 C   0  0  0  0  0  0  0  0  0  0  0  0
   -1.2147   -1.9185    1.5996 O   0  0  0  0  0  0  0  0  0  0  0  0
   -0.5298   -1.0310   -0.4144 N   0  0  0  0  0  0  0  0  0  0  0  0
   -1.6104   -0.0260   -0.3872 C   0  0  0  0  0  0  0  0  0  0  0  0
   -2.6097   -0.4515   -0.2254 H   0  0  0  0  0  0  0  0  0  0  0  0
   -1.6389    0.4671   -1.3649 H   0  0  0  0  0  0  0  0  0  0  0  0
   -1.3013    1.0362    0.7044 C   0  0  0  0  0  0  0  0  0  0  0  0
   -1.5792    0.6718    1.6990 H   0  0  0  0  0  0  0  0  0  0  0  0
   -1.8104    1.9870    0.5201 H   0  0  0  0  0  0  0  0  0  0  0  0
    0.1948    1.1406    0.5633 C   0  0  0  0  0  0  0  0  0  0  0  0
    0.6560    1.4718    1.4990 H   0  0  0  0  0  0  0  0  0  0  0  0
    0.4682    1.8403   -0.2349 H   0  0  0  0  0  0  0  0  0  0  0  0
    0.5713   -0.2998    0.2156 C   0  0  1  0  0  0  0  0  0  0  0  0
    1.0343   -0.0546   -0.7465 H   0  0  0  0  0  0  0  0  0  0  0  0
    1.8976   -0.9508    0.6673 C   0  0  0  0  0  0  0  0  0  0  0  0
    2.0459   -2.1658    0.6337 O   0  0  0  0  0  0  0  0  0  0  0  0
    2.9934   -0.1581    0.9653 N   0  0  0  0  0  0  0  0  0  0  0  0
    2.8520    0.8466    0.9969 H   0  0  0  0  0  0  0  0  0  0  0  0
    4.2875   -0.6998    1.3626 C   0  0  0  0  0  0  0  0  0  0  0  0
    4.6842   -1.3582    0.5825 H   0  0  0  0  0  0  0  0  0  0  0  0
    5.0038    0.1113    1.5250 H   0  0  0  0  0  0  0  0  0  0  0  0
    4.1937   -1.2711    2.2921 H   0  0  0  0  0  0  0  0  0  0  0  0
  1  2  1  0  0  0  0
  2  3  1  0  0  0  0
  2  4  1  0  0  0  0
  2  5  1  0  0  0  0
  5  6  2  0  0  0  0
  5  7  1  0  0  0  0
  7  8  1  0  0  0  0
  7 17  1  0  0  0  0
  8  9  1  0  0  0  0
  8 10  1  0  0  0  0
  8 11  1  0  0  0  0
 11 12  1  0  0  0  0
 11 13  1  0  0  0  0
 11 14  1  0  0  0  0
 14 15  1  0  0  0  0
 14 16  1  0  0  0  0
 14 17  1  0  0  0  0
 17 18  1  0  0  0  0
 17 19  1  0  0  0  0
 19 20  2  0  0  0  0
 19 21  1  0  0  0  0
 21 22  1  0  0  0  0
 21 23  1  0  0  0  0
 23 24  1  0  0  0  0
 23 25  1  0  0  0  0
 23 26  1  0  0  0  0
M  END
$$$$
