
  -OEChem-01062216093D

 26 26  0     1  0  0  0  0  0999 V2000
   -1.9223   -3.8137   -1.0976 H   0  0  0  0  0  0  0  0  0  0  0  0
   -2.2799   -2.7978   -0.9104 C   0  0  0  0  0  0  0  0  0  0  0  0
   -2.6864   -2.7548    0.1034 H   0  0  0  0  0  0  0  0  0  0  0  0
   -3.0745   -2.5622   -1.6223 H   0  0  0  0  0  0  0  0  0  0  0  0
   -1.1285   -1.8076   -1.0666 C   0  0  0  0  0  0  0  0  0  0  0  0
   -0.4283   -1.9581   -2.0642 O   0  0  0  0  0  0  0  0  0  0  0  0
   -0.6850   -1.0770    0.0514 N   0  0  0  0  0  0  0  0  0  0  0  0
   -1.6627   -0.0089   -0.2431 C   0  0  0  0  0  0  0  0  0  0  0  0
   -1.7836    0.5756    0.6774 H   0  0  0  0  0  0  0  0  0  0  0  0
   -2.6924   -0.3169   -0.4840 H   0  0  0  0  0  0  0  0  0  0  0  0
   -1.1008    0.9420   -1.3639 C   0  0  0  0  0  0  0  0  0  0  0  0
   -1.6285    1.8998   -1.4128 H   0  0  0  0  0  0  0  0  0  0  0  0
   -1.0780    0.4929   -2.3619 H   0  0  0  0  0  0  0  0  0  0  0  0
    0.2486    1.0474   -0.7419 C   0  0  0  0  0  0  0  0  0  0  0  0
    0.1697    1.9107   -0.0591 H   0  0  0  0  0  0  0  0  0  0  0  0
    0.9895    1.3190   -1.5010 H   0  0  0  0  0  0  0  0  0  0  0  0
    0.6233   -0.3894   -0.1338 C   0  0  1  0  0  0  0  0  0  0  0  0
    1.3996   -0.9549   -0.6592 H   0  0  0  0  0  0  0  0  0  0  0  0
    1.1190    0.3588    1.1487 C   0  0  0  0  0  0  0  0  0  0  0  0
    0.4727    0.3627    2.1915 O   0  0  0  0  0  0  0  0  0  0  0  0
    2.3264    1.0465    1.1384 N   0  0  0  0  0  0  0  0  0  0  0  0
    2.8857    0.9976    0.2919 H   0  0  0  0  0  0  0  0  0  0  0  0
    2.8707    1.7362    2.3024 C   0  0  0  0  0  0  0  0  0  0  0  0
    2.9997    1.0383    3.1364 H   0  0  0  0  0  0  0  0  0  0  0  0
    3.8458    2.1711    2.0626 H   0  0  0  0  0  0  0  0  0  0  0  0
    2.2004    2.5426    2.6178 H   0  0  0  0  0  0  0  0  0  0  0  0
  1  2  1  0  0  0  0
  2  3  1  0  0  0  0
  2  4  1  0  0  0  0
  2  5  1  0  0  0  0
  5  6  2  0  0  0  0
  5  7  1  0  0  0  0
  7  8  1  0  0  0  0
  7 17  1  0  0  0  0
  8  9  1  0  0  0  0
  8 10  1  0  0  0  0
  8 11  1  0  0  0  0
 11 12  1  0  0  0  0
 11 13  1  0  0  0  0
 11 14  1  0  0  0  0
 14 15  1  0  0  0  0
 14 16  1  0  0  0  0
 14 17  1  0  0  0  0
 17 18  1  0  0  0  0
 17 19  1  0  0  0  0
 19 20  2  0  0  0  0
 19 21  1  0  0  0  0
 21 22  1  0  0  0  0
 21 23  1  0  0  0  0
 23 24  1  0  0  0  0
 23 25  1  0  0  0  0
 23 26  1  0  0  0  0
M  END
$$$$

  -OEChem-01062216093D

 26 26  0     1  0  0  0  0  0999 V2000
   -1.9035   -3.8002   -1.1946 H   0  0  0  0  0  0  0  0  0  0  0  0
   -2.2579   -2.7958   -0.9481 C   0  0  0  0  0  0  0  0  0  0  0  0
   -2.6491   -2.8076    0.0725 H   0  0  0  0  0  0  0  0  0  0  0  0
   -3.0625   -2.5232   -1.6351 H   0  0  0  0  0  0  0  0  0  0  0  0
   -1.1092   -1.7969   -1.0666 C   0  0  0  0  0  0  0  0  0  0  0  0
   -0.3836   -1.9393   -2.0474 O   0  0  0  0  0  0  0  0  0  0  0  0
   -0.7005   -1.0708    0.0692 N   0  0  0  0  0  0  0  0  0  0  0  0
   -1.6844   -0.0173   -0.2412 C   0  0  0  0  0  0  0  0  0  0  0  0
   -1.8223    0.5649    0.6787 H   0  0  0  0  0  0  0  0  0  0  0  0
   -2.7076   -0.3360   -0.4950 H   0  0  0  0  0  0  0  0  0  0  0  0
   -1.1152    0.9376   -1.3527 C   0  0  0  0  0  0  0  0  0  0  0  0
   -1.6445    1.8944   -1.4056 H   0  0  0  0  0  0  0  0  0  0  0  0
   -1.0754    0.4933   -2.3524 H   0  0  0  0  0  0  0  0  0  0  0  0
    0.2203    1.0391   -0.7034 C   0  0  0  0  0  0  0  0  0  0  0  0
    0.0965    1.8908   -0.0141 H   0  0  0  0  0  0  0  0  0  0  0  0
    0.9733    1.3335   -1.4420 H   0  0  0  0  0  0  0  0  0  0  0  0
    0.6201   -0.3921   -0.0817 C   0  0  1  0  0  0  0  0  0  0  0  0
    1.4012   -0.9523   -0.6057 H   0  0  0  0  0  0  0  0  0  0  0  0
    1.1149    0.3642    1.2033 C   0  0  0  0  0  0  0  0  0  0  0  0
    0.5741    0.1702    2.2860 O   0  0  0  0  0  0  0  0  0  0  0  0
    2.1559    1.2901    1.1781 N   0  0  0  0  0  0  0  0  0  0  0  0
    2.6459    1.4168    0.2976 H   0  0  0  0  0  0  0  0  0  0  0  0
    2.6529    1.9797    2.3634 C   0  0  0  0  0  0  0  0  0  0  0  0
    3.0050    1.2580    3.1080 H   0  0  0  0  0  0  0  0  0  0  0  0
    3.4869    2.6357    2.0968 H   0  0  0  0  0  0  0  0  0  0  0  0
    1.8622    2.5908    2.8110 H   0  0  0  0  0  0  0  0  0  0  0  0
  1  2  1  0  0  0  0
  2  3  1  0  0  0  0
  2  4  1  0  0  0  0
  2  5  1  0  0  0  0
  5  6  2  0  0  0  0
  5  7  1  0  0  0  0
  7  8  1  0  0  0  0
  7 17  1  0  0  0  0
  8  9  1  0  0  0  0
  8 10  1  0  0  0  0
  8 11  1  0  0  0  0
 11 12  1  0  0  0  0
 11 13  1  0  0  0  0
 11 14  1  0  0  0  0
 14 15  1  0  0  0  0
 14 16  1  0  0  0  0
 14 17  1  0  0  0  0
 17 18  1  0  0  0  0
 17 19  1  0  0  0  0
 19 20  2  0  0  0  0
 19 21  1  0  0  0  0
 21 22  1  0  0  0  0
 21 23  1  0  0  0  0
 23 24  1  0  0  0  0
 23 25  1  0  0  0  0
 23 26  1  0  0  0  0
M  END
$$$$

  -OEChem-01062216093D

 26 26  0     1  0  0  0  0  0999 V2000
   -1.8461   -3.8022   -1.2208 H   0  0  0  0  0  0  0  0  0  0  0  0
   -2.2249   -2.8072   -0.9722 C   0  0  0  0  0  0  0  0  0  0  0  0
   -2.6215   -2.8327    0.0463 H   0  0  0  0  0  0  0  0  0  0  0  0
   -3.0323   -2.5505   -1.6621 H   0  0  0  0  0  0  0  0  0  0  0  0
   -1.0981   -1.7815   -1.0795 C   0  0  0  0  0  0  0  0  0  0  0  0
   -0.3672   -1.9050   -2.0591 O   0  0  0  0  0  0  0  0  0  0  0  0
   -0.7029   -1.0673    0.0701 N   0  0  0  0  0  0  0  0  0  0  0  0
   -1.7059   -0.0332   -0.2397 C   0  0  0  0  0  0  0  0  0  0  0  0
   -1.8533    0.5431    0.6825 H   0  0  0  0  0  0  0  0  0  0  0  0
   -2.7251   -0.3672   -0.4918 H   0  0  0  0  0  0  0  0  0  0  0  0
   -1.1531    0.9346   -1.3476 C   0  0  0  0  0  0  0  0  0  0  0  0
   -1.6950    1.8848   -1.3942 H   0  0  0  0  0  0  0  0  0  0  0  0
   -1.1056    0.4996   -2.3510 H   0  0  0  0  0  0  0  0  0  0  0  0
    0.1763    1.0431   -0.6899 C   0  0  0  0  0  0  0  0  0  0  0  0
   -0.0003    1.8756    0.0076 H   0  0  0  0  0  0  0  0  0  0  0  0
    0.9300    1.3738   -1.4122 H   0  0  0  0  0  0  0  0  0  0  0  0
    0.6181   -0.3798   -0.0654 C   0  0  1  0  0  0  0  0  0  0  0  0
    1.4000   -0.9253   -0.6036 H   0  0  0  0  0  0  0  0  0  0  0  0
    1.1245    0.3710    1.2279 C   0  0  0  0  0  0  0  0  0  0  0  0
    0.7620   -0.0465    2.3208 O   0  0  0  0  0  0  0  0  0  0  0  0
    1.9426    1.5031    1.2571 N   0  0  0  0  0  0  0  0  0  0  0  0
    2.3109    1.8337    0.3705 H   0  0  0  0  0  0  0  0  0  0  0  0
    2.4010    2.1415    2.4866 C   0  0  0  0  0  0  0  0  0  0  0  0
    2.9745    1.4345    3.0954 H   0  0  0  0  0  0  0  0  0  0  0  0
    3.0432    2.9958    2.2524 H   0  0  0  0  0  0  0  0  0  0  0  0
    1.5485    2.5009    3.0726 H   0  0  0  0  0  0  0  0  0  0  0  0
  1  2  1  0  0  0  0
  2  3  1  0  0  0  0
  2  4  1  0  0  0  0
  2  5  1  0  0  0  0
  5  6  2  0  0  0  0
  5  7  1  0  0  0  0
  7  8  1  0  0  0  0
  7 17  1  0  0  0  0
  8  9  1  0  0  0  0
  8 10  1  0  0  0  0
  8 11  1  0  0  0  0
 11 12  1  0  0  0  0
 11 13  1  0  0  0  0
 11 14  1  0  0  0  0
 14 15  1  0  0  0  0
 14 16  1  0  0  0  0
 14 17  1  0  0  0  0
 17 18  1  0  0  0  0
 17 19  1  0  0  0  0
 19 20  2  0  0  0  0
 19 21  1  0  0  0  0
 21 22  1  0  0  0  0
 21 23  1  0  0  0  0
 23 24  1  0  0  0  0
 23 25  1  0  0  0  0
 23 26  1  0  0  0  0
M  END
$$$$

  -OEChem-01062216093D

 26 26  0     1  0  0  0  0  0999 V2000
   -1.8095   -3.8071   -1.2259 H   0  0  0  0  0  0  0  0  0  0  0  0
   -2.2022   -2.8190   -0.9716 C   0  0  0  0  0  0  0  0  0  0  0  0
   -2.5902   -2.8543    0.0498 H   0  0  0  0  0  0  0  0  0  0  0  0
   -3.0187   -2.5739   -1.6550 H   0  0  0  0  0  0  0  0  0  0  0  0
   -1.0923   -1.7750   -1.0855 C   0  0  0  0  0  0  0  0  0  0  0  0
   -0.3681   -1.8910   -2.0713 O   0  0  0  0  0  0  0  0  0  0  0  0
   -0.6862   -1.0679    0.0659 N   0  0  0  0  0  0  0  0  0  0  0  0
   -1.7072   -0.0496   -0.2436 C   0  0  0  0  0  0  0  0  0  0  0  0
   -1.8498    0.5333    0.6754 H   0  0  0  0  0  0  0  0  0  0  0  0
   -2.7281   -0.3953   -0.4740 H   0  0  0  0  0  0  0  0  0  0  0  0
   -1.1837    0.9192   -1.3704 C   0  0  0  0  0  0  0  0  0  0  0  0
   -1.7450    1.8580   -1.4212 H   0  0  0  0  0  0  0  0  0  0  0  0
   -1.1331    0.4799   -2.3716 H   0  0  0  0  0  0  0  0  0  0  0  0
    0.1446    1.0572   -0.7189 C   0  0  0  0  0  0  0  0  0  0  0  0
   -0.0749    1.8853   -0.0355 H   0  0  0  0  0  0  0  0  0  0  0  0
    0.8943    1.4051   -1.4373 H   0  0  0  0  0  0  0  0  0  0  0  0
    0.6192   -0.3503   -0.0822 C   0  0  1  0  0  0  0  0  0  0  0  0
    1.4060   -0.8838   -0.6253 H   0  0  0  0  0  0  0  0  0  0  0  0
    1.1249    0.3860    1.2288 C   0  0  0  0  0  0  0  0  0  0  0  0
    1.0214   -0.2474    2.2715 O   0  0  0  0  0  0  0  0  0  0  0  0
    1.6691    1.6643    1.3903 N   0  0  0  0  0  0  0  0  0  0  0  0
    1.8386    2.2055    0.5484 H   0  0  0  0  0  0  0  0  0  0  0  0
    2.1124    2.2107    2.6692 C   0  0  0  0  0  0  0  0  0  0  0  0
    2.9156    1.5971    3.0905 H   0  0  0  0  0  0  0  0  0  0  0  0
    2.4896    3.2289    2.5346 H   0  0  0  0  0  0  0  0  0  0  0  0
    1.2811    2.2423    3.3814 H   0  0  0  0  0  0  0  0  0  0  0  0
  1  2  1  0  0  0  0
  2  3  1  0  0  0  0
  2  4  1  0  0  0  0
  2  5  1  0  0  0  0
  5  6  2  0  0  0  0
  5  7  1  0  0  0  0
  7  8  1  0  0  0  0
  7 17  1  0  0  0  0
  8  9  1  0  0  0  0
  8 10  1  0  0  0  0
  8 11  1  0  0  0  0
 11 12  1  0  0  0  0
 11 13  1  0  0  0  0
 11 14  1  0  0  0  0
 14 15  1  0  0  0  0
 14 16  1  0  0  0  0
 14 17  1  0  0  0  0
 17 18  1  0  0  0  0
 17 19  1  0  0  0  0
 19 20  2  0  0  0  0
 19 21  1  0  0  0  0
 21 22  1  0  0  0  0
 21 23  1  0  0  0  0
 23 24  1  0  0  0  0
 23 25  1  0  0  0  0
 23 26  1  0  0  0  0
M  END
$$$$

  -OEChem-01062216093D

 26 26  0     1  0  0  0  0  0999 V2000
   -1.7856   -3.8200   -1.1206 H   0  0  0  0  0  0  0  0  0  0  0  0
   -2.1750   -2.8324   -0.8590 C   0  0  0  0  0  0  0  0  0  0  0  0
   -2.4858   -2.8499    0.1890 H   0  0  0  0  0  0  0  0  0  0  0  0
   -3.0433   -2.6146   -1.4853 H   0  0  0  0  0  0  0  0  0  0  0  0
   -1.0939   -1.7751   -1.0769 C   0  0  0  0  0  0  0  0  0  0  0  0
   -0.4371   -1.9009   -2.1071 O   0  0  0  0  0  0  0  0  0  0  0  0
   -0.5970   -1.0577    0.0287 N   0  0  0  0  0  0  0  0  0  0  0  0
   -1.6353   -0.0396   -0.2538 C   0  0  0  0  0  0  0  0  0  0  0  0
   -1.7288    0.5660    0.6569 H   0  0  0  0  0  0  0  0  0  0  0  0
   -2.6720   -0.3844   -0.4110 H   0  0  0  0  0  0  0  0  0  0  0  0
   -1.1856    0.9137   -1.4394 C   0  0  0  0  0  0  0  0  0  0  0  0
   -1.7836    1.8290   -1.4985 H   0  0  0  0  0  0  0  0  0  0  0  0
   -1.1557    0.4467   -2.4287 H   0  0  0  0  0  0  0  0  0  0  0  0
    0.1581    1.1271   -0.8457 C   0  0  0  0  0  0  0  0  0  0  0  0
   -0.0247    1.9941   -0.2145 H   0  0  0  0  0  0  0  0  0  0  0  0
    0.8756    1.4360   -1.6127 H   0  0  0  0  0  0  0  0  0  0  0  0
    0.6444   -0.2615   -0.2030 C   0  0  1  0  0  0  0  0  0  0  0  0
    1.4489   -0.7766   -0.7379 H   0  0  0  0  0  0  0  0  0  0  0  0
    1.0890    0.4017    1.1730 C   0  0  0  0  0  0  0  0  0  0  0  0
    1.3335   -0.4070    2.0601 O   0  0  0  0  0  0  0  0  0  0  0  0
    1.2717    1.7251    1.5844 N   0  0  0  0  0  0  0  0  0  0  0  0
    1.2002    2.4453    0.8741 H   0  0  0  0  0  0  0  0  0  0  0  0
    1.7305    2.1187    2.9143 C   0  0  0  0  0  0  0  0  0  0  0  0
    2.7242    1.7050    3.1166 H   0  0  0  0  0  0  0  0  0  0  0  0
    1.7891    3.2089    2.9861 H   0  0  0  0  0  0  0  0  0  0  0  0
    1.0359    1.7604    3.6813 H   0  0  0  0  0  0  0  0  0  0  0  0
  1  2  1  0  0  0  0
  2  3  1  0  0  0  0
  2  4  1  0  0  0  0
  2  5  1  0  0  0  0
  5  6  2  0  0  0  0
  5  7  1  0  0  0  0
  7  8  1  0  0  0  0
  7 17  1  0  0  0  0
  8  9  1  0  0  0  0
  8 10  1  0  0  0  0
  8 11  1  0  0  0  0
 11 12  1  0  0  0  0
 11 13  1  0  0  0  0
 11 14  1  0  0  0  0
 14 15  1  0  0  0  0
 14 16  1  0  0  0  0
 14 17  1  0  0  0  0
 17 18  1  0  0  0  0
 17 19  1  0  0  0  0
 19 20  2  0  0  0  0
 19 21  1  0  0  0  0
 21 22  1  0  0  0  0
 21 23  1  0  0  0  0
 23 24  1  0  0  0  0
 23 25  1  0  0  0  0
 23 26  1  0  0  0  0
M  END
$$$$

  -OEChem-01062216093D

 26 26  0     1  0  0  0  0  0999 V2000
   -1.7524   -3.8275   -0.9774 H   0  0  0  0  0  0  0  0  0  0  0  0
   -2.1442   -2.8335   -0.7448 C   0  0  0  0  0  0  0  0  0  0  0  0
   -2.4090   -2.8053    0.3154 H   0  0  0  0  0  0  0  0  0  0  0  0
   -3.0423   -2.6556   -1.3412 H   0  0  0  0  0  0  0  0  0  0  0  0
   -1.0895   -1.7755   -1.0599 C   0  0  0  0  0  0  0  0  0  0  0  0
   -0.5159   -1.8987   -2.1379 O   0  0  0  0  0  0  0  0  0  0  0  0
   -0.5127   -1.0415   -0.0089 N   0  0  0  0  0  0  0  0  0  0  0  0
   -1.5598   -0.0077   -0.2518 C   0  0  0  0  0  0  0  0  0  0  0  0
   -1.6207    0.6020    0.6585 H   0  0  0  0  0  0  0  0  0  0  0  0
   -2.6049   -0.3446   -0.3695 H   0  0  0  0  0  0  0  0  0  0  0  0
   -1.1563    0.9440   -1.4623 C   0  0  0  0  0  0  0  0  0  0  0  0
   -1.7693    1.8496   -1.5108 H   0  0  0  0  0  0  0  0  0  0  0  0
   -1.1561    0.4645   -2.4460 H   0  0  0  0  0  0  0  0  0  0  0  0
    0.2080    1.1962   -0.9309 C   0  0  0  0  0  0  0  0  0  0  0  0
    0.1523    2.1035   -0.3392 H   0  0  0  0  0  0  0  0  0  0  0  0
    0.8840    1.4377   -1.7578 H   0  0  0  0  0  0  0  0  0  0  0  0
    0.6682   -0.1916   -0.3140 C   0  0  1  0  0  0  0  0  0  0  0  0
    1.4888   -0.6918   -0.8390 H   0  0  0  0  0  0  0  0  0  0  0  0
    1.0505    0.3800    1.1193 C   0  0  0  0  0  0  0  0  0  0  0  0
    1.6659   -0.4175    1.8167 O   0  0  0  0  0  0  0  0  0  0  0  0
    0.8894    1.6247    1.7334 N   0  0  0  0  0  0  0  0  0  0  0  0
    0.3591    2.3308    1.2374 H   0  0  0  0  0  0  0  0  0  0  0  0
    1.3380    1.9350    3.0884 C   0  0  0  0  0  0  0  0  0  0  0  0
    2.4225    1.8080    3.1727 H   0  0  0  0  0  0  0  0  0  0  0  0
    1.0926    2.9713    3.3394 H   0  0  0  0  0  0  0  0  0  0  0  0
    0.8478    1.2781    3.8147 H   0  0  0  0  0  0  0  0  0  0  0  0
  1  2  1  0  0  0  0
  2  3  1  0  0  0  0
  2  4  1  0  0  0  0
  2  5  1  0  0  0  0
  5  6  2  0  0  0  0
  5  7  1  0  0  0  0
  7  8  1  0  0  0  0
  7 17  1  0  0  0  0
  8  9  1  0  0  0  0
  8 10  1  0  0  0  0
  8 11  1  0  0  0  0
 11 12  1  0  0  0  0
 11 13  1  0  0  0  0
 11 14  1  0  0  0  0
 14 15  1  0  0  0  0
 14 16  1  0  0  0  0
 14 17  1  0  0  0  0
 17 18  1  0  0  0  0
 17 19  1  0  0  0  0
 19 20  2  0  0  0  0
 19 21  1  0  0  0  0
 21 22  1  0  0  0  0
 21 23  1  0  0  0  0
 23 24  1  0  0  0  0
 23 25  1  0  0  0  0
 23 26  1  0  0  0  0
M  END
$$$$

  -OEChem-01062216093D

 26 26  0     1  0  0  0  0  0999 V2000
   -1.7221   -3.8431   -1.0020 H   0  0  0  0  0  0  0  0  0  0  0  0
   -2.1273   -2.8559   -0.7640 C   0  0  0  0  0  0  0  0  0  0  0  0
   -2.3902   -2.8362    0.2969 H   0  0  0  0  0  0  0  0  0  0  0  0
   -3.0292   -2.6875   -1.3575 H   0  0  0  0  0  0  0  0  0  0  0  0
   -1.0880   -1.7827   -1.0764 C   0  0  0  0  0  0  0  0  0  0  0  0
   -0.5332   -1.8736   -2.1669 O   0  0  0  0  0  0  0  0  0  0  0  0
   -0.5069   -1.0612   -0.0197 N   0  0  0  0  0  0  0  0  0  0  0  0
   -1.5619   -0.0227   -0.2363 C   0  0  0  0  0  0  0  0  0  0  0  0
   -1.6380    0.5606    0.6886 H   0  0  0  0  0  0  0  0  0  0  0  0
   -2.6037   -0.3621   -0.3751 H   0  0  0  0  0  0  0  0  0  0  0  0
   -1.1555    0.9622   -1.4183 C   0  0  0  0  0  0  0  0  0  0  0  0
   -1.7695    1.8678   -1.4426 H   0  0  0  0  0  0  0  0  0  0  0  0
   -1.1591    0.5066   -2.4133 H   0  0  0  0  0  0  0  0  0  0  0  0
    0.2145    1.2088   -0.8933 C   0  0  0  0  0  0  0  0  0  0  0  0
    0.2080    2.1097   -0.2837 H   0  0  0  0  0  0  0  0  0  0  0  0
    0.8792    1.4508   -1.7291 H   0  0  0  0  0  0  0  0  0  0  0  0
    0.6605   -0.1945   -0.3192 C   0  0  1  0  0  0  0  0  0  0  0  0
    1.4864   -0.6795   -0.8508 H   0  0  0  0  0  0  0  0  0  0  0  0
    1.0305    0.3421    1.1266 C   0  0  0  0  0  0  0  0  0  0  0  0
    1.8846   -0.3187    1.7041 O   0  0  0  0  0  0  0  0  0  0  0  0
    0.6076    1.4641    1.8426 N   0  0  0  0  0  0  0  0  0  0  0  0
   -0.1408    2.0165    1.4392 H   0  0  0  0  0  0  0  0  0  0  0  0
    1.0645    1.7962    3.1890 C   0  0  0  0  0  0  0  0  0  0  0  0
    2.1494    1.9445    3.2005 H   0  0  0  0  0  0  0  0  0  0  0  0
    0.5875    2.7187    3.5333 H   0  0  0  0  0  0  0  0  0  0  0  0
    0.8107    0.9932    3.8891 H   0  0  0  0  0  0  0  0  0  0  0  0
  1  2  1  0  0  0  0
  2  3  1  0  0  0  0
  2  4  1  0  0  0  0
  2  5  1  0  0  0  0
  5  6  2  0  0  0  0
  5  7  1  0  0  0  0
  7  8  1  0  0  0  0
  7 17  1  0  0  0  0
  8  9  1  0  0  0  0
  8 10  1  0  0  0  0
  8 11  1  0  0  0  0
 11 12  1  0  0  0  0
 11 13  1  0  0  0  0
 11 14  1  0  0  0  0
 14 15  1  0  0  0  0
 14 16  1  0  0  0  0
 14 17  1  0  0  0  0
 17 18  1  0  0  0  0
 17 19  1  0  0  0  0
 19 20  2  0  0  0  0
 19 21  1  0  0  0  0
 21 22  1  0  0  0  0
 21 23  1  0  0  0  0
 23 24  1  0  0  0  0
 23 25  1  0  0  0  0
 23 26  1  0  0  0  0
M  END
$$$$

  -OEChem-01062216093D

 26 26  0     1  0  0  0  0  0999 V2000
   -1.6870   -3.8696   -1.0902 H   0  0  0  0  0  0  0  0  0  0  0  0
   -2.1154   -2.8926   -0.8510 C   0  0  0  0  0  0  0  0  0  0  0  0
   -2.4144   -2.8935    0.2004 H   0  0  0  0  0  0  0  0  0  0  0  0
   -2.9992   -2.7290   -1.4725 H   0  0  0  0  0  0  0  0  0  0  0  0
   -1.0828   -1.7993   -1.1124 C   0  0  0  0  0  0  0  0  0  0  0  0
   -0.5128   -1.8490   -2.1974 O   0  0  0  0  0  0  0  0  0  0  0  0
   -0.5288   -1.1030   -0.0239 N   0  0  0  0  0  0  0  0  0  0  0  0
   -1.5937   -0.0691   -0.2237 C   0  0  0  0  0  0  0  0  0  0  0  0
   -1.7016    0.4784    0.7178 H   0  0  0  0  0  0  0  0  0  0  0  0
   -2.6273   -0.4158   -0.4005 H   0  0  0  0  0  0  0  0  0  0  0  0
   -1.1723    0.9577   -1.3612 C   0  0  0  0  0  0  0  0  0  0  0  0
   -1.7873    1.8629   -1.3610 H   0  0  0  0  0  0  0  0  0  0  0  0
   -1.1648    0.5373   -2.3716 H   0  0  0  0  0  0  0  0  0  0  0  0
    0.1948    1.1904   -0.8183 C   0  0  0  0  0  0  0  0  0  0  0  0
    0.1884    2.0680   -0.1703 H   0  0  0  0  0  0  0  0  0  0  0  0
    0.8640    1.4641   -1.6407 H   0  0  0  0  0  0  0  0  0  0  0  0
    0.6423   -0.2286   -0.2878 C   0  0  1  0  0  0  0  0  0  0  0  0
    1.4683   -0.6967   -0.8344 H   0  0  0  0  0  0  0  0  0  0  0  0
    1.0262    0.3064    1.1500 C   0  0  0  0  0  0  0  0  0  0  0  0
    2.0592   -0.1571    1.6150 O   0  0  0  0  0  0  0  0  0  0  0  0
    0.4052    1.2648    1.9532 N   0  0  0  0  0  0  0  0  0  0  0  0
   -0.4763    1.6429    1.6248 H   0  0  0  0  0  0  0  0  0  0  0  0
    0.8810    1.6538    3.2768 C   0  0  0  0  0  0  0  0  0  0  0  0
    1.8874    2.0806    3.2124 H   0  0  0  0  0  0  0  0  0  0  0  0
    0.2152    2.4053    3.7117 H   0  0  0  0  0  0  0  0  0  0  0  0
    0.9075    0.7867    3.9451 H   0  0  0  0  0  0  0  0  0  0  0  0
  1  2  1  0  0  0  0
  2  3  1  0  0  0  0
  2  4  1  0  0  0  0
  2  5  1  0  0  0  0
  5  6  2  0  0  0  0
  5  7  1  0  0  0  0
  7  8  1  0  0  0  0
  7 17  1  0  0  0  0
  8  9  1  0  0  0  0
  8 10  1  0  0  0  0
  8 11  1  0  0  0  0
 11 12  1  0  0  0  0
 11 13  1  0  0  0  0
 11 14  1  0  0  0  0
 14 15  1  0  0  0  0
 14 16  1  0  0  0  0
 14 17  1  0  0  0  0
 17 18  1  0  0  0  0
 17 19  1  0  0  0  0
 19 20  2  0  0  0  0
 19 21  1  0  0  0  0
 21 22  1  0  0  0  0
 21 23  1  0  0  0  0
 23 24  1  0  0  0  0
 23 25  1  0  0  0  0
 23 26  1  0  0  0  0
M  END
$$$$

  -OEChem-01062216093D

 26 26  0     1  0  0  0  0  0999 V2000
   -1.6671   -3.8927   -1.1904 H   0  0  0  0  0  0  0  0  0  0  0  0
   -2.1161   -2.9225   -0.9617 C   0  0  0  0  0  0  0  0  0  0  0  0
   -2.4702   -2.9394    0.0722 H   0  0  0  0  0  0  0  0  0  0  0  0
   -2.9675   -2.7579   -1.6267 H   0  0  0  0  0  0  0  0  0  0  0  0
   -1.0808   -1.8181   -1.1565 C   0  0  0  0  0  0  0  0  0  0  0  0
   -0.4799   -1.8346   -2.2256 O   0  0  0  0  0  0  0  0  0  0  0  0
   -0.5645   -1.1524   -0.0296 N   0  0  0  0  0  0  0  0  0  0  0  0
   -1.6325   -0.1207   -0.2218 C   0  0  0  0  0  0  0  0  0  0  0  0
   -1.7741    0.3948    0.7318 H   0  0  0  0  0  0  0  0  0  0  0  0
   -2.6571   -0.4690   -0.4417 H   0  0  0  0  0  0  0  0  0  0  0  0
   -1.1865    0.9420   -1.3107 C   0  0  0  0  0  0  0  0  0  0  0  0
   -1.7970    1.8501   -1.2893 H   0  0  0  0  0  0  0  0  0  0  0  0
   -1.1645    0.5564   -2.3348 H   0  0  0  0  0  0  0  0  0  0  0  0
    0.1744    1.1496   -0.7407 C   0  0  0  0  0  0  0  0  0  0  0  0
    0.1458    1.9975   -0.0495 H   0  0  0  0  0  0  0  0  0  0  0  0
    0.8573    1.4619   -1.5378 H   0  0  0  0  0  0  0  0  0  0  0  0
    0.6235   -0.2852   -0.2481 C   0  0  1  0  0  0  0  0  0  0  0  0
    1.4440   -0.7420   -0.8124 H   0  0  0  0  0  0  0  0  0  0  0  0
    1.0360    0.2660    1.1699 C   0  0  0  0  0  0  0  0  0  0  0  0
    2.1910    0.0476    1.5107 O   0  0  0  0  0  0  0  0  0  0  0  0
    0.2834    1.0329    2.0597 N   0  0  0  0  0  0  0  0  0  0  0  0
   -0.6934    1.1781    1.8327 H   0  0  0  0  0  0  0  0  0  0  0  0
    0.7735    1.4861    3.3572 C   0  0  0  0  0  0  0  0  0  0  0  0
    1.6540    2.1252    3.2330 H   0  0  0  0  0  0  0  0  0  0  0  0
   -0.0002    2.0628    3.8730 H   0  0  0  0  0  0  0  0  0  0  0  0
    1.0441    0.6306    3.9850 H   0  0  0  0  0  0  0  0  0  0  0  0
  1  2  1  0  0  0  0
  2  3  1  0  0  0  0
  2  4  1  0  0  0  0
  2  5  1  0  0  0  0
  5  6  2  0  0  0  0
  5  7  1  0  0  0  0
  7  8  1  0  0  0  0
  7 17  1  0  0  0  0
  8  9  1  0  0  0  0
  8 10  1  0  0  0  0
  8 11  1  0  0  0  0
 11 12  1  0  0  0  0
 11 13  1  0  0  0  0
 11 14  1  0  0  0  0
 14 15  1  0  0  0  0
 14 16  1  0  0  0  0
 14 17  1  0  0  0  0
 17 18  1  0  0  0  0
 17 19  1  0  0  0  0
 19 20  2  0  0  0  0
 19 21  1  0  0  0  0
 21 22  1  0  0  0  0
 21 23  1  0  0  0  0
 23 24  1  0  0  0  0
 23 25  1  0  0  0  0
 23 26  1  0  0  0  0
M  END
$$$$

  -OEChem-01062216093D

 26 26  0     1  0  0  0  0  0999 V2000
   -1.6854   -3.8985   -1.3311 H   0  0  0  0  0  0  0  0  0  0  0  0
   -2.1247   -2.9356   -1.0572 C   0  0  0  0  0  0  0  0  0  0  0  0
   -2.4793   -2.9976   -0.0252 H   0  0  0  0  0  0  0  0  0  0  0  0
   -2.9737   -2.7318   -1.7143 H   0  0  0  0  0  0  0  0  0  0  0  0
   -1.0784   -1.8333   -1.1990 C   0  0  0  0  0  0  0  0  0  0  0  0
   -0.4508   -1.8298   -2.2525 O   0  0  0  0  0  0  0  0  0  0  0  0
   -0.5921   -1.1932   -0.0430 N   0  0  0  0  0  0  0  0  0  0  0  0
   -1.6569   -0.1582   -0.2268 C   0  0  0  0  0  0  0  0  0  0  0  0
   -1.8171    0.3374    0.7339 H   0  0  0  0  0  0  0  0  0  0  0  0
   -2.6750   -0.5038   -0.4761 H   0  0  0  0  0  0  0  0  0  0  0  0
   -1.1908    0.9291   -1.2754 C   0  0  0  0  0  0  0  0  0  0  0  0
   -1.7928    1.8425   -1.2341 H   0  0  0  0  0  0  0  0  0  0  0  0
   -1.1614    0.5720   -2.3097 H   0  0  0  0  0  0  0  0  0  0  0  0
    0.1670    1.1060   -0.6864 C   0  0  0  0  0  0  0  0  0  0  0  0
    0.1141    1.9233    0.0444 H   0  0  0  0  0  0  0  0  0  0  0  0
    0.8618    1.4529   -1.4587 H   0  0  0  0  0  0  0  0  0  0  0  0
    0.6166   -0.3433   -0.2255 C   0  0  1  0  0  0  0  0  0  0  0  0
    1.4291   -0.7936   -0.8063 H   0  0  0  0  0  0  0  0  0  0  0  0
    1.0602    0.2250    1.1692 C   0  0  0  0  0  0  0  0  0  0  0  0
    2.2633    0.2744    1.3898 O   0  0  0  0  0  0  0  0  0  0  0  0
    0.2282    0.7714    2.1432 N   0  0  0  0  0  0  0  0  0  0  0  0
   -0.7659    0.6079    2.0323 H   0  0  0  0  0  0  0  0  0  0  0  0
    0.7124    1.2695    3.4259 C   0  0  0  0  0  0  0  0  0  0  0  0
    1.4190    2.0924    3.2750 H   0  0  0  0  0  0  0  0  0  0  0  0
   -0.1232    1.6400    4.0273 H   0  0  0  0  0  0  0  0  0  0  0  0
    1.2144    0.4714    3.9829 H   0  0  0  0  0  0  0  0  0  0  0  0
  1  2  1  0  0  0  0
  2  3  1  0  0  0  0
  2  4  1  0  0  0  0
  2  5  1  0  0  0  0
  5  6  2  0  0  0  0
  5  7  1  0  0  0  0
  7  8  1  0  0  0  0
  7 17  1  0  0  0  0
  8  9  1  0  0  0  0
  8 10  1  0  0  0  0
  8 11  1  0  0  0  0
 11 12  1  0  0  0  0
 11 13  1  0  0  0  0
 11 14  1  0  0  0  0
 14 15  1  0  0  0  0
 14 16  1  0  0  0  0
 14 17  1  0  0  0  0
 17 18  1  0  0  0  0
 17 19  1  0  0  0  0
 19 20  2  0  0  0  0
 19 21  1  0  0  0  0
 21 22  1  0  0  0  0
 21 23  1  0  0  0  0
 23 24  1  0  0  0  0
 23 25  1  0  0  0  0
 23 26  1  0  0  0  0
M  END
$$$$

  -OEChem-01062216093D

 26 26  0     1  0  0  0  0  0999 V2000
   -1.6978   -3.8991   -1.4122 H   0  0  0  0  0  0  0  0  0  0  0  0
   -2.1304   -2.9384   -1.1199 C   0  0  0  0  0  0  0  0  0  0  0  0
   -2.4905   -3.0190   -0.0911 H   0  0  0  0  0  0  0  0  0  0  0  0
   -2.9749   -2.7137   -1.7760 H   0  0  0  0  0  0  0  0  0  0  0  0
   -1.0750   -1.8415   -1.2346 C   0  0  0  0  0  0  0  0  0  0  0  0
   -0.4391   -1.8257   -2.2828 O   0  0  0  0  0  0  0  0  0  0  0  0
   -0.6003   -1.2163   -0.0652 N   0  0  0  0  0  0  0  0  0  0  0  0
   -1.6657   -0.1820   -0.2242 C   0  0  0  0  0  0  0  0  0  0  0  0
   -1.8202    0.2975    0.7467 H   0  0  0  0  0  0  0  0  0  0  0  0
   -2.6820   -0.5267   -0.4790 H   0  0  0  0  0  0  0  0  0  0  0  0
   -1.2038    0.9232   -1.2493 C   0  0  0  0  0  0  0  0  0  0  0  0
   -1.7997    1.8388   -1.1835 H   0  0  0  0  0  0  0  0  0  0  0  0
   -1.1844    0.5867   -2.2908 H   0  0  0  0  0  0  0  0  0  0  0  0
    0.1599    1.0772   -0.6670 C   0  0  0  0  0  0  0  0  0  0  0  0
    0.0918    1.8689    0.0949 H   0  0  0  0  0  0  0  0  0  0  0  0
    0.8519    1.4549   -1.4272 H   0  0  0  0  0  0  0  0  0  0  0  0
    0.6235   -0.3826   -0.2367 C   0  0  1  0  0  0  0  0  0  0  0  0
    1.4247   -0.8258   -0.8384 H   0  0  0  0  0  0  0  0  0  0  0  0
    1.0987    0.2001    1.1349 C   0  0  0  0  0  0  0  0  0  0  0  0
    2.2842    0.4770    1.2704 O   0  0  0  0  0  0  0  0  0  0  0  0
    0.2463    0.4937    2.1918 N   0  0  0  0  0  0  0  0  0  0  0  0
   -0.6881    0.1028    2.1286 H   0  0  0  0  0  0  0  0  0  0  0  0
    0.7121    0.9848    3.4833 C   0  0  0  0  0  0  0  0  0  0  0  0
    1.2525    1.9294    3.3617 H   0  0  0  0  0  0  0  0  0  0  0  0
   -0.1377    1.1584    4.1503 H   0  0  0  0  0  0  0  0  0  0  0  0
    1.3795    0.2548    3.9534 H   0  0  0  0  0  0  0  0  0  0  0  0
  1  2  1  0  0  0  0
  2  3  1  0  0  0  0
  2  4  1  0  0  0  0
  2  5  1  0  0  0  0
  5  6  2  0  0  0  0
  5  7  1  0  0  0  0
  7  8  1  0  0  0  0
  7 17  1  0  0  0  0
  8  9  1  0  0  0  0
  8 10  1  0  0  0  0
  8 11  1  0  0  0  0
 11 12  1  0  0  0  0
 11 13  1  0  0  0  0
 11 14  1  0  0  0  0
 14 15  1  0  0  0  0
 14 16  1  0  0  0  0
 14 17  1  0  0  0  0
 17 18  1  0  0  0  0
 17 19  1  0  0  0  0
 19 20  2  0  0  0  0
 19 21  1  0  0  0  0
 21 22  1  0  0  0  0
 21 23  1  0  0  0  0
 23 24  1  0  0  0  0
 23 25  1  0  0  0  0
 23 26  1  0  0  0  0
M  END
$$$$

  -OEChem-01062216093D

 26 26  0     1  0  0  0  0  0999 V2000
   -1.7458   -3.8824   -1.5097 H   0  0  0  0  0  0  0  0  0  0  0  0
   -2.1454   -2.9303   -1.1500 C   0  0  0  0  0  0  0  0  0  0  0  0
   -2.4577   -3.0564   -0.1101 H   0  0  0  0  0  0  0  0  0  0  0  0
   -3.0156   -2.6594   -1.7530 H   0  0  0  0  0  0  0  0  0  0  0  0
   -1.0763   -1.8458   -1.2603 C   0  0  0  0  0  0  0  0  0  0  0  0
   -0.4401   -1.8321   -2.3082 O   0  0  0  0  0  0  0  0  0  0  0  0
   -0.6011   -1.2219   -0.0901 N   0  0  0  0  0  0  0  0  0  0  0  0
   -1.6621   -0.1867   -0.2291 C   0  0  0  0  0  0  0  0  0  0  0  0
   -1.7951    0.2882    0.7486 H   0  0  0  0  0  0  0  0  0  0  0  0
   -2.6813   -0.5294   -0.4720 H   0  0  0  0  0  0  0  0  0  0  0  0
   -1.2104    0.9216   -1.2519 C   0  0  0  0  0  0  0  0  0  0  0  0
   -1.8007    1.8401   -1.1718 H   0  0  0  0  0  0  0  0  0  0  0  0
   -1.2057    0.5907   -2.2955 H   0  0  0  0  0  0  0  0  0  0  0  0
    0.1604    1.0608   -0.6836 C   0  0  0  0  0  0  0  0  0  0  0  0
    0.0883    1.8413    0.0918 H   0  0  0  0  0  0  0  0  0  0  0  0
    0.8468    1.4510   -1.4428 H   0  0  0  0  0  0  0  0  0  0  0  0
    0.6339   -0.4037   -0.2662 C   0  0  1  0  0  0  0  0  0  0  0  0
    1.4261   -0.8472   -0.8792 H   0  0  0  0  0  0  0  0  0  0  0  0
    1.1277    0.1918    1.0899 C   0  0  0  0  0  0  0  0  0  0  0  0
    2.2623    0.6484    1.1761 O   0  0  0  0  0  0  0  0  0  0  0  0
    0.3234    0.2195    2.2190 N   0  0  0  0  0  0  0  0  0  0  0  0
   -0.5323   -0.3251    2.1628 H   0  0  0  0  0  0  0  0  0  0  0  0
    0.7916    0.6614    3.5268 C   0  0  0  0  0  0  0  0  0  0  0  0
    1.1704    1.6873    3.4722 H   0  0  0  0  0  0  0  0  0  0  0  0
   -0.0289    0.6368    4.2501 H   0  0  0  0  0  0  0  0  0  0  0  0
    1.5933    0.0085    3.8874 H   0  0  0  0  0  0  0  0  0  0  0  0
  1  2  1  0  0  0  0
  2  3  1  0  0  0  0
  2  4  1  0  0  0  0
  2  5  1  0  0  0  0
  5  6  2  0  0  0  0
  5  7  1  0  0  0  0
  7  8  1  0  0  0  0
  7 17  1  0  0  0  0
  8  9  1  0  0  0  0
  8 10  1  0  0  0  0
  8 11  1  0  0  0  0
 11 12  1  0  0  0  0
 11 13  1  0  0  0  0
 11 14  1  0  0  0  0
 14 15  1  0  0  0  0
 14 16  1  0  0  0  0
 14 17  1  0  0  0  0
 17 18  1  0  0  0  0
 17 19  1  0  0  0  0
 19 20  2  0  0  0  0
 19 21  1  0  0  0  0
 21 22  1  0  0  0  0
 21 23  1  0  0  0  0
 23 24  1  0  0  0  0
 23 25  1  0  0  0  0
 23 26  1  0  0  0  0
M  END
$$$$

  -OEChem-01062216093D

 26 26  0     1  0  0  0  0  0999 V2000
   -1.7555   -3.8817   -1.4609 H   0  0  0  0  0  0  0  0  0  0  0  0
   -2.1638   -2.9126   -1.1614 C   0  0  0  0  0  0  0  0  0  0  0  0
   -2.5189   -2.9901   -0.1306 H   0  0  0  0  0  0  0  0  0  0  0  0
   -3.0075   -2.6654   -1.8107 H   0  0  0  0  0  0  0  0  0  0  0  0
   -1.0843   -1.8392   -1.2788 C   0  0  0  0  0  0  0  0  0  0  0  0
   -0.4500   -1.8377   -2.3279 O   0  0  0  0  0  0  0  0  0  0  0  0
   -0.6002   -1.2114   -0.1142 N   0  0  0  0  0  0  0  0  0  0  0  0
   -1.6570   -0.1759   -0.2368 C   0  0  0  0  0  0  0  0  0  0  0  0
   -1.7626    0.3005    0.7448 H   0  0  0  0  0  0  0  0  0  0  0  0
   -2.6809   -0.5179   -0.4580 H   0  0  0  0  0  0  0  0  0  0  0  0
   -1.2213    0.9276   -1.2710 C   0  0  0  0  0  0  0  0  0  0  0  0
   -1.8078    1.8479   -1.1855 H   0  0  0  0  0  0  0  0  0  0  0  0
   -1.2320    0.5921   -2.3130 H   0  0  0  0  0  0  0  0  0  0  0  0
    0.1567    1.0615   -0.7209 C   0  0  0  0  0  0  0  0  0  0  0  0
    0.0886    1.8410    0.0565 H   0  0  0  0  0  0  0  0  0  0  0  0
    0.8342    1.4536   -1.4869 H   0  0  0  0  0  0  0  0  0  0  0  0
    0.6399   -0.4035   -0.3047 C   0  0  1  0  0  0  0  0  0  0  0  0
    1.4256   -0.8505   -0.9234 H   0  0  0  0  0  0  0  0  0  0  0  0
    1.1426    0.1983    1.0453 C   0  0  0  0  0  0  0  0  0  0  0  0
    2.2120    0.7974    1.1060 O   0  0  0  0  0  0  0  0  0  0  0  0
    0.4580   -0.0414    2.2252 N   0  0  0  0  0  0  0  0  0  0  0  0
   -0.3177   -0.6952    2.1592 H   0  0  0  0  0  0  0  0  0  0  0  0
    0.9665    0.3238    3.5416 C   0  0  0  0  0  0  0  0  0  0  0  0
    1.1780    1.3974    3.5871 H   0  0  0  0  0  0  0  0  0  0  0  0
    0.2262    0.0865    4.3115 H   0  0  0  0  0  0  0  0  0  0  0  0
    1.8871   -0.2265    3.7625 H   0  0  0  0  0  0  0  0  0  0  0  0
  1  2  1  0  0  0  0
  2  3  1  0  0  0  0
  2  4  1  0  0  0  0
  2  5  1  0  0  0  0
  5  6  2  0  0  0  0
  5  7  1  0  0  0  0
  7  8  1  0  0  0  0
  7 17  1  0  0  0  0
  8  9  1  0  0  0  0
  8 10  1  0  0  0  0
  8 11  1  0  0  0  0
 11 12  1  0  0  0  0
 11 13  1  0  0  0  0
 11 14  1  0  0  0  0
 14 15  1  0  0  0  0
 14 16  1  0  0  0  0
 14 17  1  0  0  0  0
 17 18  1  0  0  0  0
 17 19  1  0  0  0  0
 19 20  2  0  0  0  0
 19 21  1  0  0  0  0
 21 22  1  0  0  0  0
 21 23  1  0  0  0  0
 23 24  1  0  0  0  0
 23 25  1  0  0  0  0
 23 26  1  0  0  0  0
M  END
$$$$

  -OEChem-01062216093D

 26 26  0     1  0  0  0  0  0999 V2000
   -1.7932   -3.8597   -1.4888 H   0  0  0  0  0  0  0  0  0  0  0  0
   -2.1807   -2.8936   -1.1546 C   0  0  0  0  0  0  0  0  0  0  0  0
   -2.4987   -2.9892   -0.1133 H   0  0  0  0  0  0  0  0  0  0  0  0
   -3.0449   -2.6255   -1.7673 H   0  0  0  0  0  0  0  0  0  0  0  0
   -1.0960   -1.8275   -1.2880 C   0  0  0  0  0  0  0  0  0  0  0  0
   -0.4665   -1.8407   -2.3399 O   0  0  0  0  0  0  0  0  0  0  0  0
   -0.6010   -1.1924   -0.1319 N   0  0  0  0  0  0  0  0  0  0  0  0
   -1.6543   -0.1571   -0.2490 C   0  0  0  0  0  0  0  0  0  0  0  0
   -1.7380    0.3272    0.7316 H   0  0  0  0  0  0  0  0  0  0  0  0
   -2.6826   -0.4987   -0.4486 H   0  0  0  0  0  0  0  0  0  0  0  0
   -1.2314    0.9352   -1.3015 C   0  0  0  0  0  0  0  0  0  0  0  0
   -1.8143    1.8579   -1.2181 H   0  0  0  0  0  0  0  0  0  0  0  0
   -1.2541    0.5895   -2.3400 H   0  0  0  0  0  0  0  0  0  0  0  0
    0.1513    1.0684   -0.7653 C   0  0  0  0  0  0  0  0  0  0  0  0
    0.0841    1.8519    0.0075 H   0  0  0  0  0  0  0  0  0  0  0  0
    0.8230    1.4572   -1.5382 H   0  0  0  0  0  0  0  0  0  0  0  0
    0.6424   -0.3932   -0.3383 C   0  0  1  0  0  0  0  0  0  0  0  0
    1.4236   -0.8468   -0.9576 H   0  0  0  0  0  0  0  0  0  0  0  0
    1.1481    0.2132    1.0106 C   0  0  0  0  0  0  0  0  0  0  0  0
    2.1433    0.9323    1.0628 O   0  0  0  0  0  0  0  0  0  0  0  0
    0.6427   -0.2720    2.2046 N   0  0  0  0  0  0  0  0  0  0  0  0
   -0.0517   -1.0105    2.1236 H   0  0  0  0  0  0  0  0  0  0  0  0
    1.2168    0.0238    3.5115 C   0  0  0  0  0  0  0  0  0  0  0  0
    1.2835    1.1059    3.6658 H   0  0  0  0  0  0  0  0  0  0  0  0
    0.5904   -0.3975    4.3035 H   0  0  0  0  0  0  0  0  0  0  0  0
    2.2202   -0.4067    3.5950 H   0  0  0  0  0  0  0  0  0  0  0  0
  1  2  1  0  0  0  0
  2  3  1  0  0  0  0
  2  4  1  0  0  0  0
  2  5  1  0  0  0  0
  5  6  2  0  0  0  0
  5  7  1  0  0  0  0
  7  8  1  0  0  0  0
  7 17  1  0  0  0  0
  8  9  1  0  0  0  0
  8 10  1  0  0  0  0
  8 11  1  0  0  0  0
 11 12  1  0  0  0  0
 11 13  1  0  0  0  0
 11 14  1  0  0  0  0
 14 15  1  0  0  0  0
 14 16  1  0  0  0  0
 14 17  1  0  0  0  0
 17 18  1  0  0  0  0
 17 19  1  0  0  0  0
 19 20  2  0  0  0  0
 19 21  1  0  0  0  0
 21 22  1  0  0  0  0
 21 23  1  0  0  0  0
 23 24  1  0  0  0  0
 23 25  1  0  0  0  0
 23 26  1  0  0  0  0
M  END
$$$$

  -OEChem-01062216093D

 26 26  0     1  0  0  0  0  0999 V2000
   -1.8277   -3.8380   -1.4862 H   0  0  0  0  0  0  0  0  0  0  0  0
   -2.2033   -2.8694   -1.1452 C   0  0  0  0  0  0  0  0  0  0  0  0
   -2.5114   -2.9660   -0.1010 H   0  0  0  0  0  0  0  0  0  0  0  0
   -3.0713   -2.5923   -1.7486 H   0  0  0  0  0  0  0  0  0  0  0  0
   -1.1112   -1.8114   -1.2866 C   0  0  0  0  0  0  0  0  0  0  0  0
   -0.4763   -1.8470   -2.3347 O   0  0  0  0  0  0  0  0  0  0  0  0
   -0.6109   -1.1686   -0.1363 N   0  0  0  0  0  0  0  0  0  0  0  0
   -1.6610   -0.1333   -0.2625 C   0  0  0  0  0  0  0  0  0  0  0  0
   -1.7342    0.3654    0.7121 H   0  0  0  0  0  0  0  0  0  0  0  0
   -2.6922   -0.4743   -0.4475 H   0  0  0  0  0  0  0  0  0  0  0  0
   -1.2426    0.9420   -1.3350 C   0  0  0  0  0  0  0  0  0  0  0  0
   -1.8223    1.8677   -1.2613 H   0  0  0  0  0  0  0  0  0  0  0  0
   -1.2705    0.5822   -2.3686 H   0  0  0  0  0  0  0  0  0  0  0  0
    0.1412    1.0756   -0.8038 C   0  0  0  0  0  0  0  0  0  0  0  0
    0.0675    1.8662   -0.0397 H   0  0  0  0  0  0  0  0  0  0  0  0
    0.8128    1.4575   -1.5800 H   0  0  0  0  0  0  0  0  0  0  0  0
    0.6379   -0.3803   -0.3546 C   0  0  1  0  0  0  0  0  0  0  0  0
    1.4158   -0.8455   -0.9693 H   0  0  0  0  0  0  0  0  0  0  0  0
    1.1473    0.2339    0.9925 C   0  0  0  0  0  0  0  0  0  0  0  0
    2.0601    1.0577    1.0443 O   0  0  0  0  0  0  0  0  0  0  0  0
    0.8694   -0.4535    2.1614 N   0  0  0  0  0  0  0  0  0  0  0  0
    0.2606   -1.2625    2.0671 H   0  0  0  0  0  0  0  0  0  0  0  0
    1.5396   -0.2123    3.4338 C   0  0  0  0  0  0  0  0  0  0  0  0
    1.4683    0.8445    3.7119 H   0  0  0  0  0  0  0  0  0  0  0  0
    1.0734   -0.8071    4.2249 H   0  0  0  0  0  0  0  0  0  0  0  0
    2.5969   -0.4889    3.3667 H   0  0  0  0  0  0  0  0  0  0  0  0
  1  2  1  0  0  0  0
  2  3  1  0  0  0  0
  2  4  1  0  0  0  0
  2  5  1  0  0  0  0
  5  6  2  0  0  0  0
  5  7  1  0  0  0  0
  7  8  1  0  0  0  0
  7 17  1  0  0  0  0
  8  9  1  0  0  0  0
  8 10  1  0  0  0  0
  8 11  1  0  0  0  0
 11 12  1  0  0  0  0
 11 13  1  0  0  0  0
 11 14  1  0  0  0  0
 14 15  1  0  0  0  0
 14 16  1  0  0  0  0
 14 17  1  0  0  0  0
 17 18  1  0  0  0  0
 17 19  1  0  0  0  0
 19 20  2  0  0  0  0
 19 21  1  0  0  0  0
 21 22  1  0  0  0  0
 21 23  1  0  0  0  0
 23 24  1  0  0  0  0
 23 25  1  0  0  0  0
 23 26  1  0  0  0  0
M  END
$$$$

  -OEChem-01062216093D

 26 26  0     1  0  0  0  0  0999 V2000
   -1.8452   -3.8172   -1.4545 H   0  0  0  0  0  0  0  0  0  0  0  0
   -2.2183   -2.8436   -1.1251 C   0  0  0  0  0  0  0  0  0  0  0  0
   -2.5276   -2.9268   -0.0799 H   0  0  0  0  0  0  0  0  0  0  0  0
   -3.0853   -2.5716   -1.7324 H   0  0  0  0  0  0  0  0  0  0  0  0
   -1.1228   -1.7901   -1.2789 C   0  0  0  0  0  0  0  0  0  0  0  0
   -0.4858   -1.8456   -2.3251 O   0  0  0  0  0  0  0  0  0  0  0  0
   -0.6120   -1.1431   -0.1353 N   0  0  0  0  0  0  0  0  0  0  0  0
   -1.6652   -0.1122   -0.2676 C   0  0  0  0  0  0  0  0  0  0  0  0
   -1.7298    0.3992    0.7010 H   0  0  0  0  0  0  0  0  0  0  0  0
   -2.6988   -0.4552   -0.4356 H   0  0  0  0  0  0  0  0  0  0  0  0
   -1.2595    0.9502   -1.3591 C   0  0  0  0  0  0  0  0  0  0  0  0
   -1.8413    1.8753   -1.2932 H   0  0  0  0  0  0  0  0  0  0  0  0
   -1.2920    0.5784   -2.3883 H   0  0  0  0  0  0  0  0  0  0  0  0
    0.1247    1.0915   -0.8341 C   0  0  0  0  0  0  0  0  0  0  0  0
    0.0357    1.8854   -0.0770 H   0  0  0  0  0  0  0  0  0  0  0  0
    0.7940    1.4742   -1.6119 H   0  0  0  0  0  0  0  0  0  0  0  0
    0.6358   -0.3560   -0.3660 C   0  0  1  0  0  0  0  0  0  0  0  0
    1.4109   -0.8254   -0.9810 H   0  0  0  0  0  0  0  0  0  0  0  0
    1.1484    0.2566    0.9852 C   0  0  0  0  0  0  0  0  0  0  0  0
    1.9482    1.1908    1.0633 O   0  0  0  0  0  0  0  0  0  0  0  0
    1.1415   -0.5965    2.0754 N   0  0  0  0  0  0  0  0  0  0  0  0
    0.6331   -1.4688    1.9560 H   0  0  0  0  0  0  0  0  0  0  0  0
    1.8894   -0.3742    3.3079 C   0  0  0  0  0  0  0  0  0  0  0  0
    1.6499    0.6069    3.7312 H   0  0  0  0  0  0  0  0  0  0  0  0
    1.6337   -1.1392    4.0473 H   0  0  0  0  0  0  0  0  0  0  0  0
    2.9663   -0.4228    3.1159 H   0  0  0  0  0  0  0  0  0  0  0  0
  1  2  1  0  0  0  0
  2  3  1  0  0  0  0
  2  4  1  0  0  0  0
  2  5  1  0  0  0  0
  5  6  2  0  0  0  0
  5  7  1  0  0  0  0
  7  8  1  0  0  0  0
  7 17  1  0  0  0  0
  8  9  1  0  0  0  0
  8 10  1  0  0  0  0
  8 11  1  0  0  0  0
 11 12  1  0  0  0  0
 11 13  1  0  0  0  0
 11 14  1  0  0  0  0
 14 15  1  0  0  0  0
 14 16  1  0  0  0  0
 14 17  1  0  0  0  0
 17 18  1  0  0  0  0
 17 19  1  0  0  0  0
 19 20  2  0  0  0  0
 19 21  1  0  0  0  0
 21 22  1  0  0  0  0
 21 23  1  0  0  0  0
 23 24  1  0  0  0  0
 23 25  1  0  0  0  0
 23 26  1  0  0  0  0
M  END
$$$$

  -OEChem-01062216093D

 26 26  0     1  0  0  0  0  0999 V2000
   -1.8566   -3.8028   -1.3962 H   0  0  0  0  0  0  0  0  0  0  0  0
   -2.2298   -2.8240   -1.0825 C   0  0  0  0  0  0  0  0  0  0  0  0
   -2.5363   -2.8899   -0.0354 H   0  0  0  0  0  0  0  0  0  0  0  0
   -3.0988   -2.5635   -1.6918 H   0  0  0  0  0  0  0  0  0  0  0  0
   -1.1354   -1.7717   -1.2575 C   0  0  0  0  0  0  0  0  0  0  0  0
   -0.5005   -1.8489   -2.3039 O   0  0  0  0  0  0  0  0  0  0  0  0
   -0.6067   -1.1186   -0.1252 N   0  0  0  0  0  0  0  0  0  0  0  0
   -1.6622   -0.0908   -0.2698 C   0  0  0  0  0  0  0  0  0  0  0  0
   -1.7156    0.4400    0.6892 H   0  0  0  0  0  0  0  0  0  0  0  0
   -2.6997   -0.4344   -0.4142 H   0  0  0  0  0  0  0  0  0  0  0  0
   -1.2714    0.9528   -1.3883 C   0  0  0  0  0  0  0  0  0  0  0  0
   -1.8593    1.8750   -1.3377 H   0  0  0  0  0  0  0  0  0  0  0  0
   -1.3045    0.5624   -2.4104 H   0  0  0  0  0  0  0  0  0  0  0  0
    0.1111    1.1104   -0.8677 C   0  0  0  0  0  0  0  0  0  0  0  0
   -0.0011    1.9133   -0.1270 H   0  0  0  0  0  0  0  0  0  0  0  0
    0.7800    1.4898   -1.6471 H   0  0  0  0  0  0  0  0  0  0  0  0
    0.6344   -0.3256   -0.3717 C   0  0  1  0  0  0  0  0  0  0  0  0
    1.4079   -0.8006   -0.9843 H   0  0  0  0  0  0  0  0  0  0  0  0
    1.1461    0.2791    0.9902 C   0  0  0  0  0  0  0  0  0  0  0  0
    1.7790    1.3268    1.1395 O   0  0  0  0  0  0  0  0  0  0  0  0
    1.4396   -0.6753    1.9501 N   0  0  0  0  0  0  0  0  0  0  0  0
    1.0730   -1.6080    1.7802 H   0  0  0  0  0  0  0  0  0  0  0  0
    2.2358   -0.4380    3.1503 C   0  0  0  0  0  0  0  0  0  0  0  0
    1.8261    0.4002    3.7236 H   0  0  0  0  0  0  0  0  0  0  0  0
    2.2300   -1.3266    3.7887 H   0  0  0  0  0  0  0  0  0  0  0  0
    3.2730   -0.2101    2.8831 H   0  0  0  0  0  0  0  0  0  0  0  0
  1  2  1  0  0  0  0
  2  3  1  0  0  0  0
  2  4  1  0  0  0  0
  2  5  1  0  0  0  0
  5  6  2  0  0  0  0
  5  7  1  0  0  0  0
  7  8  1  0  0  0  0
  7 17  1  0  0  0  0
  8  9  1  0  0  0  0
  8 10  1  0  0  0  0
  8 11  1  0  0  0  0
 11 12  1  0  0  0  0
 11 13  1  0  0  0  0
 11 14  1  0  0  0  0
 14 15  1  0  0  0  0
 14 16  1  0  0  0  0
 14 17  1  0  0  0  0
 17 18  1  0  0  0  0
 17 19  1  0  0  0  0
 19 20  2  0  0  0  0
 19 21  1  0  0  0  0
 21 22  1  0  0  0  0
 21 23  1  0  0  0  0
 23 24  1  0  0  0  0
 23 25  1  0  0  0  0
 23 26  1  0  0  0  0
M  END
$$$$

  -OEChem-01062216093D

 26 26  0     1  0  0  0  0  0999 V2000
   -1.8384   -3.7981   -1.0577 H   0  0  0  0  0  0  0  0  0  0  0  0
   -2.1933   -2.8016   -0.7816 C   0  0  0  0  0  0  0  0  0  0  0  0
   -2.3805   -2.7861    0.2953 H   0  0  0  0  0  0  0  0  0  0  0  0
   -3.1292   -2.5979   -1.3077 H   0  0  0  0  0  0  0  0  0  0  0  0
   -1.1455   -1.7560   -1.1577 C   0  0  0  0  0  0  0  0  0  0  0  0
   -0.6513   -1.8738   -2.2742 O   0  0  0  0  0  0  0  0  0  0  0  0
   -0.4547   -1.0688   -0.1456 N   0  0  0  0  0  0  0  0  0  0  0  0
   -1.5126   -0.0171   -0.2287 C   0  0  0  0  0  0  0  0  0  0  0  0
   -1.4769    0.5528    0.7082 H   0  0  0  0  0  0  0  0  0  0  0  0
   -2.5671   -0.3422   -0.2543 H   0  0  0  0  0  0  0  0  0  0  0  0
   -1.2289    0.9865   -1.4305 C   0  0  0  0  0  0  0  0  0  0  0  0
   -1.8356    1.8957   -1.3740 H   0  0  0  0  0  0  0  0  0  0  0  0
   -1.3360    0.5458   -2.4266 H   0  0  0  0  0  0  0  0  0  0  0  0
    0.1873    1.2166   -1.0414 C   0  0  0  0  0  0  0  0  0  0  0  0
    0.2230    2.0976   -0.3984 H   0  0  0  0  0  0  0  0  0  0  0  0
    0.7699    1.4915   -1.9263 H   0  0  0  0  0  0  0  0  0  0  0  0
    0.6859   -0.2042   -0.5417 C   0  0  1  0  0  0  0  0  0  0  0  0
    1.4439   -0.6788   -1.1733 H   0  0  0  0  0  0  0  0  0  0  0  0
    1.2128    0.2975    0.8679 C   0  0  0  0  0  0  0  0  0  0  0  0
    0.9296    1.2957    1.5318 O   0  0  0  0  0  0  0  0  0  0  0  0
    1.9192   -0.6660    1.5710 N   0  0  0  0  0  0  0  0  0  0  0  0
    1.9894   -1.5781    1.1288 H   0  0  0  0  0  0  0  0  0  0  0  0
    2.3221   -0.5396    2.9682 C   0  0  0  0  0  0  0  0  0  0  0  0
    1.4419   -0.4736    3.6163 H   0  0  0  0  0  0  0  0  0  0  0  0
    2.9116   -1.4102    3.2708 H   0  0  0  0  0  0  0  0  0  0  0  0
    2.9351    0.3564    3.1120 H   0  0  0  0  0  0  0  0  0  0  0  0
  1  2  1  0  0  0  0
  2  3  1  0  0  0  0
  2  4  1  0  0  0  0
  2  5  1  0  0  0  0
  5  6  2  0  0  0  0
  5  7  1  0  0  0  0
  7  8  1  0  0  0  0
  7 17  1  0  0  0  0
  8  9  1  0  0  0  0
  8 10  1  0  0  0  0
  8 11  1  0  0  0  0
 11 12  1  0  0  0  0
 11 13  1  0  0  0  0
 11 14  1  0  0  0  0
 14 15  1  0  0  0  0
 14 16  1  0  0  0  0
 14 17  1  0  0  0  0
 17 18  1  0  0  0  0
 17 19  1  0  0  0  0
 19 20  2  0  0  0  0
 19 21  1  0  0  0  0
 21 22  1  0  0  0  0
 21 23  1  0  0  0  0
 23 24  1  0  0  0  0
 23 25  1  0  0  0  0
 23 26  1  0  0  0  0
M  END
$$$$

  -OEChem-01062216093D

 26 26  0     1  0  0  0  0  0999 V2000
   -1.8584   -3.8042   -1.0477 H   0  0  0  0  0  0  0  0  0  0  0  0
   -2.2144   -2.8066   -0.7770 C   0  0  0  0  0  0  0  0  0  0  0  0
   -2.4111   -2.7885    0.2982 H   0  0  0  0  0  0  0  0  0  0  0  0
   -3.1451   -2.6022   -1.3120 H   0  0  0  0  0  0  0  0  0  0  0  0
   -1.1612   -1.7639   -1.1451 C   0  0  0  0  0  0  0  0  0  0  0  0
   -0.6580   -1.8831   -2.2580 O   0  0  0  0  0  0  0  0  0  0  0  0
   -0.4884   -1.0680   -0.1267 N   0  0  0  0  0  0  0  0  0  0  0  0
   -1.5431   -0.0129   -0.2276 C   0  0  0  0  0  0  0  0  0  0  0  0
   -1.5318    0.5562    0.7087 H   0  0  0  0  0  0  0  0  0  0  0  0
   -2.5966   -0.3370   -0.2806 H   0  0  0  0  0  0  0  0  0  0  0  0
   -1.2276    0.9845   -1.4232 C   0  0  0  0  0  0  0  0  0  0  0  0
   -1.8204    1.9032   -1.3734 H   0  0  0  0  0  0  0  0  0  0  0  0
   -1.3352    0.5436   -2.4192 H   0  0  0  0  0  0  0  0  0  0  0  0
    0.1928    1.1953   -1.0294 C   0  0  0  0  0  0  0  0  0  0  0  0
    0.2510    2.0741   -0.3803 H   0  0  0  0  0  0  0  0  0  0  0  0
    0.7805    1.4594   -1.9142 H   0  0  0  0  0  0  0  0  0  0  0  0
    0.6695   -0.2281   -0.5232 C   0  0  1  0  0  0  0  0  0  0  0  0
    1.4160   -0.7192   -1.1559 H   0  0  0  0  0  0  0  0  0  0  0  0
    1.2247    0.3324    0.8471 C   0  0  0  0  0  0  0  0  0  0  0  0
    0.7128    1.1520    1.6136 O   0  0  0  0  0  0  0  0  0  0  0  0
    2.1907   -0.4686    1.4354 N   0  0  0  0  0  0  0  0  0  0  0  0
    2.4592   -1.3020    0.9204 H   0  0  0  0  0  0  0  0  0  0  0  0
    2.6342   -0.3393    2.8199 C   0  0  0  0  0  0  0  0  0  0  0  0
    1.8077   -0.5472    3.5074 H   0  0  0  0  0  0  0  0  0  0  0  0
    3.4425   -1.0478    3.0244 H   0  0  0  0  0  0  0  0  0  0  0  0
    3.0077    0.6722    3.0116 H   0  0  0  0  0  0  0  0  0  0  0  0
  1  2  1  0  0  0  0
  2  3  1  0  0  0  0
  2  4  1  0  0  0  0
  2  5  1  0  0  0  0
  5  6  2  0  0  0  0
  5  7  1  0  0  0  0
  7  8  1  0  0  0  0
  7 17  1  0  0  0  0
  8  9  1  0  0  0  0
  8 10  1  0  0  0  0
  8 11  1  0  0  0  0
 11 12  1  0  0  0  0
 11 13  1  0  0  0  0
 11 14  1  0  0  0  0
 14 15  1  0  0  0  0
 14 16  1  0  0  0  0
 14 17  1  0  0  0  0
 17 18  1  0  0  0  0
 17 19  1  0  0  0  0
 19 20  2  0  0  0  0
 19 21  1  0  0  0  0
 21 22  1  0  0  0  0
 21 23  1  0  0  0  0
 23 24  1  0  0  0  0
 23 25  1  0  0  0  0
 23 26  1  0  0  0  0
M  END
$$$$

  -OEChem-01062216093D

 26 26  0     1  0  0  0  0  0999 V2000
   -1.9014   -3.8084   -1.0770 H   0  0  0  0  0  0  0  0  0  0  0  0
   -2.2439   -2.8099   -0.7929 C   0  0  0  0  0  0  0  0  0  0  0  0
   -2.4482   -2.8060    0.2810 H   0  0  0  0  0  0  0  0  0  0  0  0
   -3.1672   -2.5829   -1.3313 H   0  0  0  0  0  0  0  0  0  0  0  0
   -1.1724   -1.7775   -1.1355 C   0  0  0  0  0  0  0  0  0  0  0  0
   -0.6383   -1.9065   -2.2331 O   0  0  0  0  0  0  0  0  0  0  0  0
   -0.5348   -1.0725   -0.1003 N   0  0  0  0  0  0  0  0  0  0  0  0
   -1.5787   -0.0130   -0.2381 C   0  0  0  0  0  0  0  0  0  0  0  0
   -1.5960    0.5609    0.6947 H   0  0  0  0  0  0  0  0  0  0  0  0
   -2.6304   -0.3336   -0.3273 H   0  0  0  0  0  0  0  0  0  0  0  0
   -1.2153    0.9721   -1.4260 C   0  0  0  0  0  0  0  0  0  0  0  0
   -1.7924    1.9015   -1.3947 H   0  0  0  0  0  0  0  0  0  0  0  0
   -1.3077    0.5280   -2.4220 H   0  0  0  0  0  0  0  0  0  0  0  0
    0.2008    1.1597   -1.0017 C   0  0  0  0  0  0  0  0  0  0  0  0
    0.2482    2.0359   -0.3441 H   0  0  0  0  0  0  0  0  0  0  0  0
    0.8127    1.4198   -1.8713 H   0  0  0  0  0  0  0  0  0  0  0  0
    0.6544   -0.2661   -0.4755 C   0  0  1  0  0  0  0  0  0  0  0  0
    1.3967   -0.7780   -1.0963 H   0  0  0  0  0  0  0  0  0  0  0  0
    1.2193    0.3529    0.8599 C   0  0  0  0  0  0  0  0  0  0  0  0
    0.6064    1.0353    1.6843 O   0  0  0  0  0  0  0  0  0  0  0  0
    2.3771   -0.2389    1.3384 N   0  0  0  0  0  0  0  0  0  0  0  0
    2.7789   -0.9788    0.7702 H   0  0  0  0  0  0  0  0  0  0  0  0
    2.8987   -0.0406    2.6869 C   0  0  0  0  0  0  0  0  0  0  0  0
    2.1891   -0.4163    3.4315 H   0  0  0  0  0  0  0  0  0  0  0  0
    3.8445   -0.5771    2.8083 H   0  0  0  0  0  0  0  0  0  0  0  0
    3.0798    1.0227    2.8762 H   0  0  0  0  0  0  0  0  0  0  0  0
  1  2  1  0  0  0  0
  2  3  1  0  0  0  0
  2  4  1  0  0  0  0
  2  5  1  0  0  0  0
  5  6  2  0  0  0  0
  5  7  1  0  0  0  0
  7  8  1  0  0  0  0
  7 17  1  0  0  0  0
  8  9  1  0  0  0  0
  8 10  1  0  0  0  0
  8 11  1  0  0  0  0
 11 12  1  0  0  0  0
 11 13  1  0  0  0  0
 11 14  1  0  0  0  0
 14 15  1  0  0  0  0
 14 16  1  0  0  0  0
 14 17  1  0  0  0  0
 17 18  1  0  0  0  0
 17 19  1  0  0  0  0
 19 20  2  0  0  0  0
 19 21  1  0  0  0  0
 21 22  1  0  0  0  0
 21 23  1  0  0  0  0
 23 24  1  0  0  0  0
 23 25  1  0  0  0  0
 23 26  1  0  0  0  0
M  END
$$$$

  -OEChem-01062216093D

 26 26  0     1  0  0  0  0  0999 V2000
   -1.9254   -3.8168   -1.0657 H   0  0  0  0  0  0  0  0  0  0  0  0
   -2.2707   -2.8113   -0.8115 C   0  0  0  0  0  0  0  0  0  0  0  0
   -2.5223   -2.7898    0.2522 H   0  0  0  0  0  0  0  0  0  0  0  0
   -3.1669   -2.5839   -1.3937 H   0  0  0  0  0  0  0  0  0  0  0  0
   -1.1753   -1.7937   -1.1208 C   0  0  0  0  0  0  0  0  0  0  0  0
   -0.6055   -1.9331   -2.1991 O   0  0  0  0  0  0  0  0  0  0  0  0
   -0.5785   -1.0782   -0.0683 N   0  0  0  0  0  0  0  0  0  0  0  0
   -1.6086   -0.0149   -0.2473 C   0  0  0  0  0  0  0  0  0  0  0  0
   -1.6536    0.5648    0.6810 H   0  0  0  0  0  0  0  0  0  0  0  0
   -2.6571   -0.3314   -0.3746 H   0  0  0  0  0  0  0  0  0  0  0  0
   -1.1950    0.9578   -1.4246 C   0  0  0  0  0  0  0  0  0  0  0  0
   -1.7596    1.8953   -1.4153 H   0  0  0  0  0  0  0  0  0  0  0  0
   -1.2641    0.5091   -2.4205 H   0  0  0  0  0  0  0  0  0  0  0  0
    0.2112    1.1255   -0.9594 C   0  0  0  0  0  0  0  0  0  0  0  0
    0.2347    2.0001   -0.2942 H   0  0  0  0  0  0  0  0  0  0  0  0
    0.8537    1.3837   -1.8074 H   0  0  0  0  0  0  0  0  0  0  0  0
    0.6413   -0.3020   -0.4110 C   0  0  1  0  0  0  0  0  0  0  0  0
    1.3862   -0.8320   -1.0132 H   0  0  0  0  0  0  0  0  0  0  0  0
    1.2031    0.3653    0.8966 C   0  0  0  0  0  0  0  0  0  0  0  0
    0.5331    0.9208    1.7690 O   0  0  0  0  0  0  0  0  0  0  0  0
    2.4925    0.0120    1.2590 N   0  0  0  0  0  0  0  0  0  0  0  0
    2.9949   -0.6070    0.6296 H   0  0  0  0  0  0  0  0  0  0  0  0
    3.0847    0.3143    2.5577 C   0  0  0  0  0  0  0  0  0  0  0  0
    2.5246   -0.1793    3.3589 H   0  0  0  0  0  0  0  0  0  0  0  0
    4.1200   -0.0381    2.5912 H   0  0  0  0  0  0  0  0  0  0  0  0
    3.0826    1.3944    2.7385 H   0  0  0  0  0  0  0  0  0  0  0  0
  1  2  1  0  0  0  0
  2  3  1  0  0  0  0
  2  4  1  0  0  0  0
  2  5  1  0  0  0  0
  5  6  2  0  0  0  0
  5  7  1  0  0  0  0
  7  8  1  0  0  0  0
  7 17  1  0  0  0  0
  8  9  1  0  0  0  0
  8 10  1  0  0  0  0
  8 11  1  0  0  0  0
 11 12  1  0  0  0  0
 11 13  1  0  0  0  0
 11 14  1  0  0  0  0
 14 15  1  0  0  0  0
 14 16  1  0  0  0  0
 14 17  1  0  0  0  0
 17 18  1  0  0  0  0
 17 19  1  0  0  0  0
 19 20  2  0  0  0  0
 19 21  1  0  0  0  0
 21 22  1  0  0  0  0
 21 23  1  0  0  0  0
 23 24  1  0  0  0  0
 23 25  1  0  0  0  0
 23 26  1  0  0  0  0
M  END
$$$$

  -OEChem-01062216093D

 26 26  0     1  0  0  0  0  0999 V2000
   -1.9515   -3.8189   -1.0825 H   0  0  0  0  0  0  0  0  0  0  0  0
   -2.2886   -2.8097   -0.8315 C   0  0  0  0  0  0  0  0  0  0  0  0
   -2.5698   -2.7911    0.2248 H   0  0  0  0  0  0  0  0  0  0  0  0
   -3.1647   -2.5653   -1.4372 H   0  0  0  0  0  0  0  0  0  0  0  0
   -1.1700   -1.8065   -1.1023 C   0  0  0  0  0  0  0  0  0  0  0  0
   -0.5608   -1.9573   -2.1576 O   0  0  0  0  0  0  0  0  0  0  0  0
   -0.6163   -1.0806   -0.0328 N   0  0  0  0  0  0  0  0  0  0  0  0
   -1.6290   -0.0131   -0.2529 C   0  0  0  0  0  0  0  0  0  0  0  0
   -1.6973    0.5738    0.6698 H   0  0  0  0  0  0  0  0  0  0  0  0
   -2.6736   -0.3252   -0.4146 H   0  0  0  0  0  0  0  0  0  0  0  0
   -1.1662    0.9459   -1.4194 C   0  0  0  0  0  0  0  0  0  0  0  0
   -1.7177    1.8913   -1.4328 H   0  0  0  0  0  0  0  0  0  0  0  0
   -1.2103    0.4918   -2.4143 H   0  0  0  0  0  0  0  0  0  0  0  0
    0.2272    1.0948   -0.9103 C   0  0  0  0  0  0  0  0  0  0  0  0
    0.2253    1.9698   -0.2420 H   0  0  0  0  0  0  0  0  0  0  0  0
    0.9006    1.3500   -1.7350 H   0  0  0  0  0  0  0  0  0  0  0  0
    0.6327   -0.3345   -0.3382 C   0  0  1  0  0  0  0  0  0  0  0  0
    1.3838   -0.8824   -0.9161 H   0  0  0  0  0  0  0  0  0  0  0  0
    1.1818    0.3708    0.9500 C   0  0  0  0  0  0  0  0  0  0  0  0
    0.4822    0.8102    1.8626 O   0  0  0  0  0  0  0  0  0  0  0  0
    2.5406    0.2715    1.1987 N   0  0  0  0  0  0  0  0  0  0  0  0
    3.1035   -0.2241    0.5138 H   0  0  0  0  0  0  0  0  0  0  0  0
    3.1687    0.6970    2.4444 C   0  0  0  0  0  0  0  0  0  0  0  0
    2.7800    0.1163    3.2876 H   0  0  0  0  0  0  0  0  0  0  0  0
    4.2515    0.5489    2.3914 H   0  0  0  0  0  0  0  0  0  0  0  0
    2.9750    1.7590    2.6282 H   0  0  0  0  0  0  0  0  0  0  0  0
  1  2  1  0  0  0  0
  2  3  1  0  0  0  0
  2  4  1  0  0  0  0
  2  5  1  0  0  0  0
  5  6  2  0  0  0  0
  5  7  1  0  0  0  0
  7  8  1  0  0  0  0
  7 17  1  0  0  0  0
  8  9  1  0  0  0  0
  8 10  1  0  0  0  0
  8 11  1  0  0  0  0
 11 12  1  0  0  0  0
 11 13  1  0  0  0  0
 11 14  1  0  0  0  0
 14 15  1  0  0  0  0
 14 16  1  0  0  0  0
 14 17  1  0  0  0  0
 17 18  1  0  0  0  0
 17 19  1  0  0  0  0
 19 20  2  0  0  0  0
 19 21  1  0  0  0  0
 21 22  1  0  0  0  0
 21 23  1  0  0  0  0
 23 24  1  0  0  0  0
 23 25  1  0  0  0  0
 23 26  1  0  0  0  0
M  END
$$$$

  -OEChem-01062216093D

 26 26  0     1  0  0  0  0  0999 V2000
   -1.9497   -3.8216   -1.0775 H   0  0  0  0  0  0  0  0  0  0  0  0
   -2.2915   -2.8082   -0.8504 C   0  0  0  0  0  0  0  0  0  0  0  0
   -2.6175   -2.7780    0.1928 H   0  0  0  0  0  0  0  0  0  0  0  0
   -3.1394   -2.5646   -1.4951 H   0  0  0  0  0  0  0  0  0  0  0  0
   -1.1567   -1.8140   -1.0837 C   0  0  0  0  0  0  0  0  0  0  0  0
   -0.5135   -1.9702   -2.1179 O   0  0  0  0  0  0  0  0  0  0  0  0
   -0.6435   -1.0796    0.0003 N   0  0  0  0  0  0  0  0  0  0  0  0
   -1.6425   -0.0110   -0.2526 C   0  0  0  0  0  0  0  0  0  0  0  0
   -1.7323    0.5783    0.6673 H   0  0  0  0  0  0  0  0  0  0  0  0
   -2.6819   -0.3217   -0.4456 H   0  0  0  0  0  0  0  0  0  0  0  0
   -1.1390    0.9405   -1.4056 C   0  0  0  0  0  0  0  0  0  0  0  0
   -1.6810    1.8907   -1.4373 H   0  0  0  0  0  0  0  0  0  0  0  0
   -1.1585    0.4838   -2.4002 H   0  0  0  0  0  0  0  0  0  0  0  0
    0.2402    1.0762   -0.8556 C   0  0  0  0  0  0  0  0  0  0  0  0
    0.2127    1.9505   -0.1843 H   0  0  0  0  0  0  0  0  0  0  0  0
    0.9401    1.3322   -1.6577 H   0  0  0  0  0  0  0  0  0  0  0  0
    0.6273   -0.3547   -0.2663 C   0  0  1  0  0  0  0  0  0  0  0  0
    1.3883   -0.9131   -0.8210 H   0  0  0  0  0  0  0  0  0  0  0  0
    1.1559    0.3758    1.0123 C   0  0  0  0  0  0  0  0  0  0  0  0
    0.4472    0.6857    1.9679 O   0  0  0  0  0  0  0  0  0  0  0  0
    2.5241    0.5429    1.1514 N   0  0  0  0  0  0  0  0  0  0  0  0
    3.1158    0.1856    0.4071 H   0  0  0  0  0  0  0  0  0  0  0  0
    3.1536    1.0706    2.3565 C   0  0  0  0  0  0  0  0  0  0  0  0
    2.9458    0.4202    3.2128 H   0  0  0  0  0  0  0  0  0  0  0  0
    4.2379    1.1297    2.2216 H   0  0  0  0  0  0  0  0  0  0  0  0
    2.7785    2.0756    2.5772 H   0  0  0  0  0  0  0  0  0  0  0  0
  1  2  1  0  0  0  0
  2  3  1  0  0  0  0
  2  4  1  0  0  0  0
  2  5  1  0  0  0  0
  5  6  2  0  0  0  0
  5  7  1  0  0  0  0
  7  8  1  0  0  0  0
  7 17  1  0  0  0  0
  8  9  1  0  0  0  0
  8 10  1  0  0  0  0
  8 11  1  0  0  0  0
 11 12  1  0  0  0  0
 11 13  1  0  0  0  0
 11 14  1  0  0  0  0
 14 15  1  0  0  0  0
 14 16  1  0  0  0  0
 14 17  1  0  0  0  0
 17 18  1  0  0  0  0
 17 19  1  0  0  0  0
 19 20  2  0  0  0  0
 19 21  1  0  0  0  0
 21 22  1  0  0  0  0
 21 23  1  0  0  0  0
 23 24  1  0  0  0  0
 23 25  1  0  0  0  0
 23 26  1  0  0  0  0
M  END
$$$$

  -OEChem-01062216093D

 26 26  0     1  0  0  0  0  0999 V2000
   -1.9444   -3.8182   -1.0784 H   0  0  0  0  0  0  0  0  0  0  0  0
   -2.2927   -2.8011   -0.8802 C   0  0  0  0  0  0  0  0  0  0  0  0
   -2.6683   -2.7570    0.1454 H   0  0  0  0  0  0  0  0  0  0  0  0
   -3.1075   -2.5624   -1.5680 H   0  0  0  0  0  0  0  0  0  0  0  0
   -1.1436   -1.8144   -1.0703 C   0  0  0  0  0  0  0  0  0  0  0  0
   -0.4666   -1.9727   -2.0824 O   0  0  0  0  0  0  0  0  0  0  0  0
   -0.6693   -1.0791    0.0312 N   0  0  0  0  0  0  0  0  0  0  0  0
   -1.6524   -0.0076   -0.2489 C   0  0  0  0  0  0  0  0  0  0  0  0
   -1.7593    0.5817    0.6697 H   0  0  0  0  0  0  0  0  0  0  0  0
   -2.6868   -0.3143   -0.4704 H   0  0  0  0  0  0  0  0  0  0  0  0
   -1.1109    0.9395   -1.3854 C   0  0  0  0  0  0  0  0  0  0  0  0
   -1.6423    1.8954   -1.4304 H   0  0  0  0  0  0  0  0  0  0  0  0
   -1.1067    0.4843   -2.3809 H   0  0  0  0  0  0  0  0  0  0  0  0
    0.2526    1.0576   -0.7944 C   0  0  0  0  0  0  0  0  0  0  0  0
    0.2018    1.9292   -0.1195 H   0  0  0  0  0  0  0  0  0  0  0  0
    0.9776    1.3159   -1.5733 H   0  0  0  0  0  0  0  0  0  0  0  0
    0.6233   -0.3770   -0.1923 C   0  0  1  0  0  0  0  0  0  0  0  0
    1.3927   -0.9435   -0.7267 H   0  0  0  0  0  0  0  0  0  0  0  0
    1.1324    0.3674    1.0847 C   0  0  0  0  0  0  0  0  0  0  0  0
    0.4373    0.5421    2.0820 O   0  0  0  0  0  0  0  0  0  0  0  0
    2.4504    0.7958    1.1326 N   0  0  0  0  0  0  0  0  0  0  0  0
    3.0423    0.5800    0.3358 H   0  0  0  0  0  0  0  0  0  0  0  0
    3.0486    1.4281    2.3024 C   0  0  0  0  0  0  0  0  0  0  0  0
    3.0357    0.7430    3.1566 H   0  0  0  0  0  0  0  0  0  0  0  0
    4.0871    1.7025    2.0943 H   0  0  0  0  0  0  0  0  0  0  0  0
    2.4988    2.3365    2.5702 H   0  0  0  0  0  0  0  0  0  0  0  0
  1  2  1  0  0  0  0
  2  3  1  0  0  0  0
  2  4  1  0  0  0  0
  2  5  1  0  0  0  0
  5  6  2  0  0  0  0
  5  7  1  0  0  0  0
  7  8  1  0  0  0  0
  7 17  1  0  0  0  0
  8  9  1  0  0  0  0
  8 10  1  0  0  0  0
  8 11  1  0  0  0  0
 11 12  1  0  0  0  0
 11 13  1  0  0  0  0
 11 14  1  0  0  0  0
 14 15  1  0  0  0  0
 14 16  1  0  0  0  0
 14 17  1  0  0  0  0
 17 18  1  0  0  0  0
 17 19  1  0  0  0  0
 19 20  2  0  0  0  0
 19 21  1  0  0  0  0
 21 22  1  0  0  0  0
 21 23  1  0  0  0  0
 23 24  1  0  0  0  0
 23 25  1  0  0  0  0
 23 26  1  0  0  0  0
M  END
$$$$

  -OEChem-01062216093D

 26 26  0     1  0  0  0  0  0999 V2000
   -1.8160   -3.8694   -0.9226 H   0  0  0  0  0  0  0  0  0  0  0  0
   -2.2027   -2.8542   -0.8017 C   0  0  0  0  0  0  0  0  0  0  0  0
   -2.6095   -2.7558    0.2082 H   0  0  0  0  0  0  0  0  0  0  0  0
   -3.0039   -2.6884   -1.5258 H   0  0  0  0  0  0  0  0  0  0  0  0
   -1.0824   -1.8447   -1.0232 C   0  0  0  0  0  0  0  0  0  0  0  0
   -0.3861   -2.0067   -2.0206 O   0  0  0  0  0  0  0  0  0  0  0  0
   -0.7326   -0.9611    0.0100 N   0  0  0  0  0  0  0  0  0  0  0  0
   -1.7310    0.0611   -0.3378 C   0  0  0  0  0  0  0  0  0  0  0  0
   -1.9297    0.6449    0.5690 H   0  0  0  0  0  0  0  0  0  0  0  0
   -2.7169   -0.3050   -0.6580 H   0  0  0  0  0  0  0  0  0  0  0  0
   -1.1301    1.0060   -1.4215 C   0  0  0  0  0  0  0  0  0  0  0  0
   -1.6621    1.9594   -1.4993 H   0  0  0  0  0  0  0  0  0  0  0  0
   -1.0799    0.5366   -2.4094 H   0  0  0  0  0  0  0  0  0  0  0  0
    0.2177    1.1358   -0.7856 C   0  0  0  0  0  0  0  0  0  0  0  0
    0.1389    1.9655   -0.0669 H   0  0  0  0  0  0  0  0  0  0  0  0
    0.9673    1.4223   -1.5302 H   0  0  0  0  0  0  0  0  0  0  0  0
    0.5732   -0.2783   -0.1769 C   0  0  1  0  0  0  0  0  0  0  0  0
    1.3341   -0.8463   -0.7219 H   0  0  0  0  0  0  0  0  0  0  0  0
    1.1119    0.3472    1.1472 C   0  0  0  0  0  0  0  0  0  0  0  0
    0.4805    0.2953    2.1973 O   0  0  0  0  0  0  0  0  0  0  0  0
    2.3246    1.0218    1.1539 N   0  0  0  0  0  0  0  0  0  0  0  0
    2.8599    1.0318    0.2909 H   0  0  0  0  0  0  0  0  0  0  0  0
    2.9034    1.6263    2.3480 C   0  0  0  0  0  0  0  0  0  0  0  0
    3.0390    0.8742    3.1324 H   0  0  0  0  0  0  0  0  0  0  0  0
    3.8798    2.0618    2.1155 H   0  0  0  0  0  0  0  0  0  0  0  0
    2.2525    2.4200    2.7290 H   0  0  0  0  0  0  0  0  0  0  0  0
  1  2  1  0  0  0  0
  2  3  1  0  0  0  0
  2  4  1  0  0  0  0
  2  5  1  0  0  0  0
  5  6  2  0  0  0  0
  5  7  1  0  0  0  0
  7  8  1  0  0  0  0
  7 17  1  0  0  0  0
  8  9  1  0  0  0  0
  8 10  1  0  0  0  0
  8 11  1  0  0  0  0
 11 12  1  0  0  0  0
 11 13  1  0  0  0  0
 11 14  1  0  0  0  0
 14 15  1  0  0  0  0
 14 16  1  0  0  0  0
 14 17  1  0  0  0  0
 17 18  1  0  0  0  0
 17 19  1  0  0  0  0
 19 20  2  0  0  0  0
 19 21  1  0  0  0  0
 21 22  1  0  0  0  0
 21 23  1  0  0  0  0
 23 24  1  0  0  0  0
 23 25  1  0  0  0  0
 23 26  1  0  0  0  0
M  END
$$$$

  -OEChem-01062216093D

 26 26  0     1  0  0  0  0  0999 V2000
   -1.8173   -3.8596   -1.0286 H   0  0  0  0  0  0  0  0  0  0  0  0
   -2.1870   -2.8534   -0.8137 C   0  0  0  0  0  0  0  0  0  0  0  0
   -2.5396   -2.8265    0.2207 H   0  0  0  0  0  0  0  0  0  0  0  0
   -3.0227   -2.6307   -1.4812 H   0  0  0  0  0  0  0  0  0  0  0  0
   -1.0699   -1.8363   -1.0177 C   0  0  0  0  0  0  0  0  0  0  0  0
   -0.3593   -1.9933   -2.0059 O   0  0  0  0  0  0  0  0  0  0  0  0
   -0.7411   -0.9525    0.0234 N   0  0  0  0  0  0  0  0  0  0  0  0
   -1.7408    0.0587   -0.3468 C   0  0  0  0  0  0  0  0  0  0  0  0
   -1.9528    0.6497    0.5523 H   0  0  0  0  0  0  0  0  0  0  0  0
   -2.7219   -0.3149   -0.6735 H   0  0  0  0  0  0  0  0  0  0  0  0
   -1.1318    0.9974   -1.4300 C   0  0  0  0  0  0  0  0  0  0  0  0
   -1.6658    1.9485   -1.5207 H   0  0  0  0  0  0  0  0  0  0  0  0
   -1.0658    0.5229   -2.4146 H   0  0  0  0  0  0  0  0  0  0  0  0
    0.2038    1.1314   -0.7723 C   0  0  0  0  0  0  0  0  0  0  0  0
    0.0916    1.9600   -0.0582 H   0  0  0  0  0  0  0  0  0  0  0  0
    0.9641    1.4265   -1.5026 H   0  0  0  0  0  0  0  0  0  0  0  0
    0.5720   -0.2745   -0.1421 C   0  0  1  0  0  0  0  0  0  0  0  0
    1.3407   -0.8421   -0.6766 H   0  0  0  0  0  0  0  0  0  0  0  0
    1.0973    0.3549    1.1911 C   0  0  0  0  0  0  0  0  0  0  0  0
    0.5924    0.0636    2.2691 O   0  0  0  0  0  0  0  0  0  0  0  0
    2.1361    1.2795    1.2078 N   0  0  0  0  0  0  0  0  0  0  0  0
    2.5923    1.4862    0.3244 H   0  0  0  0  0  0  0  0  0  0  0  0
    2.6733    1.8667    2.4299 C   0  0  0  0  0  0  0  0  0  0  0  0
    3.0641    1.0855    3.0903 H   0  0  0  0  0  0  0  0  0  0  0  0
    3.4877    2.5575    2.1917 H   0  0  0  0  0  0  0  0  0  0  0  0
    1.8943    2.4220    2.9630 H   0  0  0  0  0  0  0  0  0  0  0  0
  1  2  1  0  0  0  0
  2  3  1  0  0  0  0
  2  4  1  0  0  0  0
  2  5  1  0  0  0  0
  5  6  2  0  0  0  0
  5  7  1  0  0  0  0
  7  8  1  0  0  0  0
  7 17  1  0  0  0  0
  8  9  1  0  0  0  0
  8 10  1  0  0  0  0
  8 11  1  0  0  0  0
 11 12  1  0  0  0  0
 11 13  1  0  0  0  0
 11 14  1  0  0  0  0
 14 15  1  0  0  0  0
 14 16  1  0  0  0  0
 14 17  1  0  0  0  0
 17 18  1  0  0  0  0
 17 19  1  0  0  0  0
 19 20  2  0  0  0  0
 19 21  1  0  0  0  0
 21 22  1  0  0  0  0
 21 23  1  0  0  0  0
 23 24  1  0  0  0  0
 23 25  1  0  0  0  0
 23 26  1  0  0  0  0
M  END
$$$$

  -OEChem-01062216093D

 26 26  0     1  0  0  0  0  0999 V2000
   -1.7700   -3.8589   -1.0338 H   0  0  0  0  0  0  0  0  0  0  0  0
   -2.1621   -2.8587   -0.8317 C   0  0  0  0  0  0  0  0  0  0  0  0
   -2.5340   -2.8330    0.1959 H   0  0  0  0  0  0  0  0  0  0  0  0
   -2.9897   -2.6554   -1.5153 H   0  0  0  0  0  0  0  0  0  0  0  0
   -1.0600   -1.8224   -1.0223 C   0  0  0  0  0  0  0  0  0  0  0  0
   -0.3431   -1.9654   -2.0085 O   0  0  0  0  0  0  0  0  0  0  0  0
   -0.7451   -0.9465    0.0316 N   0  0  0  0  0  0  0  0  0  0  0  0
   -1.7573    0.0478   -0.3500 C   0  0  0  0  0  0  0  0  0  0  0  0
   -1.9798    0.6420    0.5445 H   0  0  0  0  0  0  0  0  0  0  0  0
   -2.7347   -0.3381   -0.6748 H   0  0  0  0  0  0  0  0  0  0  0  0
   -1.1577    0.9874   -1.4380 C   0  0  0  0  0  0  0  0  0  0  0  0
   -1.7018    1.9324   -1.5345 H   0  0  0  0  0  0  0  0  0  0  0  0
   -1.0810    0.5115   -2.4211 H   0  0  0  0  0  0  0  0  0  0  0  0
    0.1703    1.1356   -0.7705 C   0  0  0  0  0  0  0  0  0  0  0  0
    0.0142    1.9597   -0.0624 H   0  0  0  0  0  0  0  0  0  0  0  0
    0.9341    1.4494   -1.4894 H   0  0  0  0  0  0  0  0  0  0  0  0
    0.5672   -0.2599   -0.1243 C   0  0  1  0  0  0  0  0  0  0  0  0
    1.3404   -0.8199   -0.6603 H   0  0  0  0  0  0  0  0  0  0  0  0
    1.0928    0.3623    1.2195 C   0  0  0  0  0  0  0  0  0  0  0  0
    0.7856   -0.1623    2.2829 O   0  0  0  0  0  0  0  0  0  0  0  0
    1.9030    1.4927    1.3053 N   0  0  0  0  0  0  0  0  0  0  0  0
    2.2209    1.9044    0.4334 H   0  0  0  0  0  0  0  0  0  0  0  0
    2.4197    2.0267    2.5608 C   0  0  0  0  0  0  0  0  0  0  0  0
    3.0378    1.2794    3.0695 H   0  0  0  0  0  0  0  0  0  0  0  0
    3.0340    2.9121    2.3712 H   0  0  0  0  0  0  0  0  0  0  0  0
    1.5963    2.3137    3.2232 H   0  0  0  0  0  0  0  0  0  0  0  0
  1  2  1  0  0  0  0
  2  3  1  0  0  0  0
  2  4  1  0  0  0  0
  2  5  1  0  0  0  0
  5  6  2  0  0  0  0
  5  7  1  0  0  0  0
  7  8  1  0  0  0  0
  7 17  1  0  0  0  0
  8  9  1  0  0  0  0
  8 10  1  0  0  0  0
  8 11  1  0  0  0  0
 11 12  1  0  0  0  0
 11 13  1  0  0  0  0
 11 14  1  0  0  0  0
 14 15  1  0  0  0  0
 14 16  1  0  0  0  0
 14 17  1  0  0  0  0
 17 18  1  0  0  0  0
 17 19  1  0  0  0  0
 19 20  2  0  0  0  0
 19 21  1  0  0  0  0
 21 22  1  0  0  0  0
 21 23  1  0  0  0  0
 23 24  1  0  0  0  0
 23 25  1  0  0  0  0
 23 26  1  0  0  0  0
M  END
$$$$

  -OEChem-01062216093D

 26 26  0     1  0  0  0  0  0999 V2000
   -1.7042   -3.8638   -0.9574 H   0  0  0  0  0  0  0  0  0  0  0  0
   -2.1331   -2.8678   -0.8197 C   0  0  0  0  0  0  0  0  0  0  0  0
   -2.5385   -2.8016    0.1933 H   0  0  0  0  0  0  0  0  0  0  0  0
   -2.9440   -2.7260   -1.5381 H   0  0  0  0  0  0  0  0  0  0  0  0
   -1.0562   -1.8088   -1.0310 C   0  0  0  0  0  0  0  0  0  0  0  0
   -0.3580   -1.9388   -2.0322 O   0  0  0  0  0  0  0  0  0  0  0  0
   -0.7238   -0.9432    0.0269 N   0  0  0  0  0  0  0  0  0  0  0  0
   -1.7532    0.0390   -0.3453 C   0  0  0  0  0  0  0  0  0  0  0  0
   -1.9619    0.6391    0.5485 H   0  0  0  0  0  0  0  0  0  0  0  0
   -2.7364   -0.3563   -0.6422 H   0  0  0  0  0  0  0  0  0  0  0  0
   -1.1882    0.9786   -1.4566 C   0  0  0  0  0  0  0  0  0  0  0  0
   -1.7508    1.9127   -1.5529 H   0  0  0  0  0  0  0  0  0  0  0  0
   -1.1174    0.4974   -2.4374 H   0  0  0  0  0  0  0  0  0  0  0  0
    0.1442    1.1557   -0.8071 C   0  0  0  0  0  0  0  0  0  0  0  0
   -0.0345    1.9849   -0.1163 H   0  0  0  0  0  0  0  0  0  0  0  0
    0.8972    1.4770   -1.5341 H   0  0  0  0  0  0  0  0  0  0  0  0
    0.5708   -0.2289   -0.1529 C   0  0  1  0  0  0  0  0  0  0  0  0
    1.3457   -0.7778   -0.6979 H   0  0  0  0  0  0  0  0  0  0  0  0
    1.0951    0.3654    1.2103 C   0  0  0  0  0  0  0  0  0  0  0  0
    1.0480   -0.3630    2.1939 O   0  0  0  0  0  0  0  0  0  0  0  0
    1.6273    1.6330    1.4434 N   0  0  0  0  0  0  0  0  0  0  0  0
    1.7483    2.2415    0.6401 H   0  0  0  0  0  0  0  0  0  0  0  0
    2.1165    2.0865    2.7416 C   0  0  0  0  0  0  0  0  0  0  0  0
    2.9200    1.4337    3.0989 H   0  0  0  0  0  0  0  0  0  0  0  0
    2.5088    3.1048    2.6627 H   0  0  0  0  0  0  0  0  0  0  0  0
    1.3061    2.0849    3.4781 H   0  0  0  0  0  0  0  0  0  0  0  0
  1  2  1  0  0  0  0
  2  3  1  0  0  0  0
  2  4  1  0  0  0  0
  2  5  1  0  0  0  0
  5  6  2  0  0  0  0
  5  7  1  0  0  0  0
  7  8  1  0  0  0  0
  7 17  1  0  0  0  0
  8  9  1  0  0  0  0
  8 10  1  0  0  0  0
  8 11  1  0  0  0  0
 11 12  1  0  0  0  0
 11 13  1  0  0  0  0
 11 14  1  0  0  0  0
 14 15  1  0  0  0  0
 14 16  1  0  0  0  0
 14 17  1  0  0  0  0
 17 18  1  0  0  0  0
 17 19  1  0  0  0  0
 19 20  2  0  0  0  0
 19 21  1  0  0  0  0
 21 22  1  0  0  0  0
 21 23  1  0  0  0  0
 23 24  1  0  0  0  0
 23 25  1  0  0  0  0
 23 26  1  0  0  0  0
M  END
$$$$

  -OEChem-01062216093D

 26 26  0     1  0  0  0  0  0999 V2000
   -1.6620   -3.8655   -0.8875 H   0  0  0  0  0  0  0  0  0  0  0  0
   -2.1104   -2.8730   -0.7924 C   0  0  0  0  0  0  0  0  0  0  0  0
   -2.5313   -2.7776    0.2120 H   0  0  0  0  0  0  0  0  0  0  0  0
   -2.9136   -2.7718   -1.5262 H   0  0  0  0  0  0  0  0  0  0  0  0
   -1.0495   -1.8038   -1.0299 C   0  0  0  0  0  0  0  0  0  0  0  0
   -0.3696   -1.9318   -2.0437 O   0  0  0  0  0  0  0  0  0  0  0  0
   -0.6955   -0.9394    0.0215 N   0  0  0  0  0  0  0  0  0  0  0  0
   -1.7365    0.0357   -0.3464 C   0  0  0  0  0  0  0  0  0  0  0  0
   -1.9291    0.6487    0.5425 H   0  0  0  0  0  0  0  0  0  0  0  0
   -2.7263   -0.3659   -0.6132 H   0  0  0  0  0  0  0  0  0  0  0  0
   -1.2024    0.9668   -1.4875 C   0  0  0  0  0  0  0  0  0  0  0  0
   -1.7843    1.8879   -1.5940 H   0  0  0  0  0  0  0  0  0  0  0  0
   -1.1349    0.4713   -2.4614 H   0  0  0  0  0  0  0  0  0  0  0  0
    0.1334    1.1831   -0.8577 C   0  0  0  0  0  0  0  0  0  0  0  0
   -0.0408    2.0339   -0.1998 H   0  0  0  0  0  0  0  0  0  0  0  0
    0.8753    1.4878   -1.6030 H   0  0  0  0  0  0  0  0  0  0  0  0
    0.5713   -0.1893   -0.1904 C   0  0  1  0  0  0  0  0  0  0  0  0
    1.3549   -0.7305   -0.7316 H   0  0  0  0  0  0  0  0  0  0  0  0
    1.0708    0.3717    1.1983 C   0  0  0  0  0  0  0  0  0  0  0  0
    1.3097   -0.4715    2.0542 O   0  0  0  0  0  0  0  0  0  0  0  0
    1.3006    1.6834    1.6111 N   0  0  0  0  0  0  0  0  0  0  0  0
    1.2077    2.4148    0.9148 H   0  0  0  0  0  0  0  0  0  0  0  0
    1.7937    2.0492    2.9358 C   0  0  0  0  0  0  0  0  0  0  0  0
    2.7765    1.6014    3.1172 H   0  0  0  0  0  0  0  0  0  0  0  0
    1.8892    3.1362    3.0164 H   0  0  0  0  0  0  0  0  0  0  0  0
    1.1005    1.7060    3.7112 H   0  0  0  0  0  0  0  0  0  0  0  0
  1  2  1  0  0  0  0
  2  3  1  0  0  0  0
  2  4  1  0  0  0  0
  2  5  1  0  0  0  0
  5  6  2  0  0  0  0
  5  7  1  0  0  0  0
  7  8  1  0  0  0  0
  7 17  1  0  0  0  0
  8  9  1  0  0  0  0
  8 10  1  0  0  0  0
  8 11  1  0  0  0  0
 11 12  1  0  0  0  0
 11 13  1  0  0  0  0
 11 14  1  0  0  0  0
 14 15  1  0  0  0  0
 14 16  1  0  0  0  0
 14 17  1  0  0  0  0
 17 18  1  0  0  0  0
 17 19  1  0  0  0  0
 19 20  2  0  0  0  0
 19 21  1  0  0  0  0
 21 22  1  0  0  0  0
 21 23  1  0  0  0  0
 23 24  1  0  0  0  0
 23 25  1  0  0  0  0
 23 26  1  0  0  0  0
M  END
$$$$

  -OEChem-01062216093D

 26 26  0     1  0  0  0  0  0999 V2000
   -1.6505   -3.8702   -0.9152 H   0  0  0  0  0  0  0  0  0  0  0  0
   -2.0857   -2.8805   -0.7530 C   0  0  0  0  0  0  0  0  0  0  0  0
   -2.4315   -2.8188    0.2821 H   0  0  0  0  0  0  0  0  0  0  0  0
   -2.9396   -2.7518   -1.4222 H   0  0  0  0  0  0  0  0  0  0  0  0
   -1.0395   -1.8062   -1.0289 C   0  0  0  0  0  0  0  0  0  0  0  0
   -0.3912   -1.9298   -2.0632 O   0  0  0  0  0  0  0  0  0  0  0  0
   -0.6544   -0.9391    0.0082 N   0  0  0  0  0  0  0  0  0  0  0  0
   -1.7017    0.0413   -0.3428 C   0  0  0  0  0  0  0  0  0  0  0  0
   -1.8752    0.6591    0.5466 H   0  0  0  0  0  0  0  0  0  0  0  0
   -2.6979   -0.3600   -0.5858 H   0  0  0  0  0  0  0  0  0  0  0  0
   -1.1940    0.9703   -1.5042 C   0  0  0  0  0  0  0  0  0  0  0  0
   -1.7894    1.8827   -1.6100 H   0  0  0  0  0  0  0  0  0  0  0  0
   -1.1367    0.4668   -2.4747 H   0  0  0  0  0  0  0  0  0  0  0  0
    0.1502    1.2150   -0.9024 C   0  0  0  0  0  0  0  0  0  0  0  0
    0.0339    2.0923   -0.2727 H   0  0  0  0  0  0  0  0  0  0  0  0
    0.8745    1.4826   -1.6784 H   0  0  0  0  0  0  0  0  0  0  0  0
    0.5795   -0.1540   -0.2413 C   0  0  1  0  0  0  0  0  0  0  0  0
    1.3721   -0.6868   -0.7782 H   0  0  0  0  0  0  0  0  0  0  0  0
    1.0428    0.3616    1.1759 C   0  0  0  0  0  0  0  0  0  0  0  0
    1.6013   -0.4793    1.8696 O   0  0  0  0  0  0  0  0  0  0  0  0
    0.9667    1.6232    1.7647 N   0  0  0  0  0  0  0  0  0  0  0  0
    0.4946    2.3579    1.2518 H   0  0  0  0  0  0  0  0  0  0  0  0
    1.4560    1.9276    3.1066 C   0  0  0  0  0  0  0  0  0  0  0  0
    2.5261    1.7085    3.1852 H   0  0  0  0  0  0  0  0  0  0  0  0
    1.3052    2.9875    3.3326 H   0  0  0  0  0  0  0  0  0  0  0  0
    0.9186    1.3345    3.8540 H   0  0  0  0  0  0  0  0  0  0  0  0
  1  2  1  0  0  0  0
  2  3  1  0  0  0  0
  2  4  1  0  0  0  0
  2  5  1  0  0  0  0
  5  6  2  0  0  0  0
  5  7  1  0  0  0  0
  7  8  1  0  0  0  0
  7 17  1  0  0  0  0
  8  9  1  0  0  0  0
  8 10  1  0  0  0  0
  8 11  1  0  0  0  0
 11 12  1  0  0  0  0
 11 13  1  0  0  0  0
 11 14  1  0  0  0  0
 14 15  1  0  0  0  0
 14 16  1  0  0  0  0
 14 17  1  0  0  0  0
 17 18  1  0  0  0  0
 17 19  1  0  0  0  0
 19 20  2  0  0  0  0
 19 21  1  0  0  0  0
 21 22  1  0  0  0  0
 21 23  1  0  0  0  0
 23 24  1  0  0  0  0
 23 25  1  0  0  0  0
 23 26  1  0  0  0  0
M  END
$$$$

  -OEChem-01062216093D

 26 26  0     1  0  0  0  0  0999 V2000
   -1.5836   -3.8726   -0.7567 H   0  0  0  0  0  0  0  0  0  0  0  0
   -2.0740   -2.8957   -0.7708 C   0  0  0  0  0  0  0  0  0  0  0  0
   -2.5529   -2.7336    0.1982 H   0  0  0  0  0  0  0  0  0  0  0  0
   -2.8398   -2.8906   -1.5505 H   0  0  0  0  0  0  0  0  0  0  0  0
   -1.0418   -1.8089   -1.0476 C   0  0  0  0  0  0  0  0  0  0  0  0
   -0.4203   -1.9015   -2.1008 O   0  0  0  0  0  0  0  0  0  0  0  0
   -0.6401   -0.9579   -0.0042 N   0  0  0  0  0  0  0  0  0  0  0  0
   -1.6915    0.0353   -0.3170 C   0  0  0  0  0  0  0  0  0  0  0  0
   -1.8583    0.6299    0.5890 H   0  0  0  0  0  0  0  0  0  0  0  0
   -2.6888   -0.3612   -0.5632 H   0  0  0  0  0  0  0  0  0  0  0  0
   -1.1959    0.9932   -1.4618 C   0  0  0  0  0  0  0  0  0  0  0  0
   -1.7944    1.9062   -1.5402 H   0  0  0  0  0  0  0  0  0  0  0  0
   -1.1515    0.5105   -2.4434 H   0  0  0  0  0  0  0  0  0  0  0  0
    0.1588    1.2324   -0.8785 C   0  0  0  0  0  0  0  0  0  0  0  0
    0.0979    2.1086   -0.2366 H   0  0  0  0  0  0  0  0  0  0  0  0
    0.8671    1.4931   -1.6717 H   0  0  0  0  0  0  0  0  0  0  0  0
    0.5771   -0.1544   -0.2618 C   0  0  1  0  0  0  0  0  0  0  0  0
    1.3700   -0.6730   -0.8125 H   0  0  0  0  0  0  0  0  0  0  0  0
    1.0313    0.3175    1.1695 C   0  0  0  0  0  0  0  0  0  0  0  0
    1.8508   -0.4036    1.7239 O   0  0  0  0  0  0  0  0  0  0  0  0
    0.6820    1.4626    1.8820 N   0  0  0  0  0  0  0  0  0  0  0  0
   -0.0517    2.0447    1.4942 H   0  0  0  0  0  0  0  0  0  0  0  0
    1.1800    1.7730    3.2185 C   0  0  0  0  0  0  0  0  0  0  0  0
    2.2719    1.8570    3.2115 H   0  0  0  0  0  0  0  0  0  0  0  0
    0.7646    2.7238    3.5655 H   0  0  0  0  0  0  0  0  0  0  0  0
    0.8910    0.9895    3.9268 H   0  0  0  0  0  0  0  0  0  0  0  0
  1  2  1  0  0  0  0
  2  3  1  0  0  0  0
  2  4  1  0  0  0  0
  2  5  1  0  0  0  0
  5  6  2  0  0  0  0
  5  7  1  0  0  0  0
  7  8  1  0  0  0  0
  7 17  1  0  0  0  0
  8  9  1  0  0  0  0
  8 10  1  0  0  0  0
  8 11  1  0  0  0  0
 11 12  1  0  0  0  0
 11 13  1  0  0  0  0
 11 14  1  0  0  0  0
 14 15  1  0  0  0  0
 14 16  1  0  0  0  0
 14 17  1  0  0  0  0
 17 18  1  0  0  0  0
 17 19  1  0  0  0  0
 19 20  2  0  0  0  0
 19 21  1  0  0  0  0
 21 22  1  0  0  0  0
 21 23  1  0  0  0  0
 23 24  1  0  0  0  0
 23 25  1  0  0  0  0
 23 26  1  0  0  0  0
M  END
$$$$

  -OEChem-01062216093D

 26 26  0     1  0  0  0  0  0999 V2000
   -1.5607   -3.8953   -0.8092 H   0  0  0  0  0  0  0  0  0  0  0  0
   -2.0618   -2.9238   -0.8194 C   0  0  0  0  0  0  0  0  0  0  0  0
   -2.5532   -2.7761    0.1455 H   0  0  0  0  0  0  0  0  0  0  0  0
   -2.8189   -2.9197   -1.6075 H   0  0  0  0  0  0  0  0  0  0  0  0
   -1.0390   -1.8235   -1.0753 C   0  0  0  0  0  0  0  0  0  0  0  0
   -0.4232   -1.8847   -2.1336 O   0  0  0  0  0  0  0  0  0  0  0  0
   -0.6434   -0.9906   -0.0153 N   0  0  0  0  0  0  0  0  0  0  0  0
   -1.6995    0.0082   -0.3017 C   0  0  0  0  0  0  0  0  0  0  0  0
   -1.8791    0.5732    0.6198 H   0  0  0  0  0  0  0  0  0  0  0  0
   -2.6915   -0.3867   -0.5707 H   0  0  0  0  0  0  0  0  0  0  0  0
   -1.1994    1.0009   -1.4125 C   0  0  0  0  0  0  0  0  0  0  0  0
   -1.7967    1.9167   -1.4631 H   0  0  0  0  0  0  0  0  0  0  0  0
   -1.1567    0.5476   -2.4083 H   0  0  0  0  0  0  0  0  0  0  0  0
    0.1591    1.2244   -0.8283 C   0  0  0  0  0  0  0  0  0  0  0  0
    0.1189    2.0801   -0.1533 H   0  0  0  0  0  0  0  0  0  0  0  0
    0.8631    1.5044   -1.6188 H   0  0  0  0  0  0  0  0  0  0  0  0
    0.5718   -0.1795   -0.2570 C   0  0  1  0  0  0  0  0  0  0  0  0
    1.3640   -0.6835   -0.8223 H   0  0  0  0  0  0  0  0  0  0  0  0
    1.0339    0.2780    1.1714 C   0  0  0  0  0  0  0  0  0  0  0  0
    2.0468   -0.2511    1.6097 O   0  0  0  0  0  0  0  0  0  0  0  0
    0.4616    1.2559    1.9811 N   0  0  0  0  0  0  0  0  0  0  0  0
   -0.4203    1.6505    1.6729 H   0  0  0  0  0  0  0  0  0  0  0  0
    0.9546    1.5988    3.3107 C   0  0  0  0  0  0  0  0  0  0  0  0
    1.9929    1.9430    3.2582 H   0  0  0  0  0  0  0  0  0  0  0  0
    0.3485    2.4002    3.7437 H   0  0  0  0  0  0  0  0  0  0  0  0
    0.9043    0.7288    3.9738 H   0  0  0  0  0  0  0  0  0  0  0  0
  1  2  1  0  0  0  0
  2  3  1  0  0  0  0
  2  4  1  0  0  0  0
  2  5  1  0  0  0  0
  5  6  2  0  0  0  0
  5  7  1  0  0  0  0
  7  8  1  0  0  0  0
  7 17  1  0  0  0  0
  8  9  1  0  0  0  0
  8 10  1  0  0  0  0
  8 11  1  0  0  0  0
 11 12  1  0  0  0  0
 11 13  1  0  0  0  0
 11 14  1  0  0  0  0
 14 15  1  0  0  0  0
 14 16  1  0  0  0  0
 14 17  1  0  0  0  0
 17 18  1  0  0  0  0
 17 19  1  0  0  0  0
 19 20  2  0  0  0  0
 19 21  1  0  0  0  0
 21 22  1  0  0  0  0
 21 23  1  0  0  0  0
 23 24  1  0  0  0  0
 23 25  1  0  0  0  0
 23 26  1  0  0  0  0
M  END
$$$$

  -OEChem-01062216093D

 26 26  0     1  0  0  0  0  0999 V2000
   -1.5547   -3.9207   -0.8991 H   0  0  0  0  0  0  0  0  0  0  0  0
   -2.0579   -2.9504   -0.8928 C   0  0  0  0  0  0  0  0  0  0  0  0
   -2.5597   -2.8252    0.0700 H   0  0  0  0  0  0  0  0  0  0  0  0
   -2.8073   -2.9308   -1.6881 H   0  0  0  0  0  0  0  0  0  0  0  0
   -1.0354   -1.8421   -1.1135 C   0  0  0  0  0  0  0  0  0  0  0  0
   -0.4115   -1.8750   -2.1679 O   0  0  0  0  0  0  0  0  0  0  0  0
   -0.6572   -1.0292   -0.0315 N   0  0  0  0  0  0  0  0  0  0  0  0
   -1.7188   -0.0296   -0.2989 C   0  0  0  0  0  0  0  0  0  0  0  0
   -1.9222    0.5024    0.6364 H   0  0  0  0  0  0  0  0  0  0  0  0
   -2.7015   -0.4229   -0.6016 H   0  0  0  0  0  0  0  0  0  0  0  0
   -1.2074    0.9998   -1.3651 C   0  0  0  0  0  0  0  0  0  0  0  0
   -1.8022    1.9183   -1.3885 H   0  0  0  0  0  0  0  0  0  0  0  0
   -1.1593    0.5800   -2.3753 H   0  0  0  0  0  0  0  0  0  0  0  0
    0.1501    1.2021   -0.7690 C   0  0  0  0  0  0  0  0  0  0  0  0
    0.1028    2.0248   -0.0500 H   0  0  0  0  0  0  0  0  0  0  0  0
    0.8573    1.5185   -1.5428 H   0  0  0  0  0  0  0  0  0  0  0  0
    0.5649   -0.2175   -0.2436 C   0  0  1  0  0  0  0  0  0  0  0  0
    1.3538   -0.7053   -0.8273 H   0  0  0  0  0  0  0  0  0  0  0  0
    1.0500    0.2439    1.1706 C   0  0  0  0  0  0  0  0  0  0  0  0
    2.1972   -0.0379    1.4899 O   0  0  0  0  0  0  0  0  0  0  0  0
    0.3201    1.0108    2.0736 N   0  0  0  0  0  0  0  0  0  0  0  0
   -0.6580    1.1656    1.8555 H   0  0  0  0  0  0  0  0  0  0  0  0
    0.8129    1.3909    3.3927 C   0  0  0  0  0  0  0  0  0  0  0  0
    1.7421    1.9640    3.3049 H   0  0  0  0  0  0  0  0  0  0  0  0
    0.0738    2.0116    3.9078 H   0  0  0  0  0  0  0  0  0  0  0  0
    1.0038    0.5009    4.0014 H   0  0  0  0  0  0  0  0  0  0  0  0
  1  2  1  0  0  0  0
  2  3  1  0  0  0  0
  2  4  1  0  0  0  0
  2  5  1  0  0  0  0
  5  6  2  0  0  0  0
  5  7  1  0  0  0  0
  7  8  1  0  0  0  0
  7 17  1  0  0  0  0
  8  9  1  0  0  0  0
  8 10  1  0  0  0  0
  8 11  1  0  0  0  0
 11 12  1  0  0  0  0
 11 13  1  0  0  0  0
 11 14  1  0  0  0  0
 14 15  1  0  0  0  0
 14 16  1  0  0  0  0
 14 17  1  0  0  0  0
 17 18  1  0  0  0  0
 17 19  1  0  0  0  0
 19 20  2  0  0  0  0
 19 21  1  0  0  0  0
 21 22  1  0  0  0  0
 21 23  1  0  0  0  0
 23 24  1  0  0  0  0
 23 25  1  0  0  0  0
 23 26  1  0  0  0  0
M  END
$$$$

  -OEChem-01062216093D

 26 26  0     1  0  0  0  0  0999 V2000
   -1.6445   -3.9315   -1.2205 H   0  0  0  0  0  0  0  0  0  0  0  0
   -2.0750   -2.9599   -0.9642 C   0  0  0  0  0  0  0  0  0  0  0  0
   -2.4167   -2.9941    0.0734 H   0  0  0  0  0  0  0  0  0  0  0  0
   -2.9313   -2.7668   -1.6148 H   0  0  0  0  0  0  0  0  0  0  0  0
   -1.0268   -1.8680   -1.1444 C   0  0  0  0  0  0  0  0  0  0  0  0
   -0.3791   -1.8963   -2.1842 O   0  0  0  0  0  0  0  0  0  0  0  0
   -0.6690   -1.0666   -0.0463 N   0  0  0  0  0  0  0  0  0  0  0  0
   -1.7280   -0.0631   -0.3064 C   0  0  0  0  0  0  0  0  0  0  0  0
   -1.9483    0.4504    0.6351 H   0  0  0  0  0  0  0  0  0  0  0  0
   -2.7041   -0.4507   -0.6351 H   0  0  0  0  0  0  0  0  0  0  0  0
   -1.1986    0.9870   -1.3373 C   0  0  0  0  0  0  0  0  0  0  0  0
   -1.7862    1.9103   -1.3438 H   0  0  0  0  0  0  0  0  0  0  0  0
   -1.1437    0.5901   -2.3564 H   0  0  0  0  0  0  0  0  0  0  0  0
    0.1566    1.1637   -0.7263 C   0  0  0  0  0  0  0  0  0  0  0  0
    0.0958    1.9574    0.0278 H   0  0  0  0  0  0  0  0  0  0  0  0
    0.8728    1.5077   -1.4798 H   0  0  0  0  0  0  0  0  0  0  0  0
    0.5685   -0.2676   -0.2301 C   0  0  1  0  0  0  0  0  0  0  0  0
    1.3547   -0.7489   -0.8228 H   0  0  0  0  0  0  0  0  0  0  0  0
    1.0723    0.2101    1.1662 C   0  0  0  0  0  0  0  0  0  0  0  0
    2.2770    0.2033    1.3813 O   0  0  0  0  0  0  0  0  0  0  0  0
    0.2459    0.7407    2.1490 N   0  0  0  0  0  0  0  0  0  0  0  0
   -0.7517    0.6204    2.0107 H   0  0  0  0  0  0  0  0  0  0  0  0
    0.7267    1.1591    3.4603 C   0  0  0  0  0  0  0  0  0  0  0  0
    1.4711    1.9558    3.3587 H   0  0  0  0  0  0  0  0  0  0  0  0
   -0.1030    1.5387    4.0641 H   0  0  0  0  0  0  0  0  0  0  0  0
    1.1829    0.3152    3.9886 H   0  0  0  0  0  0  0  0  0  0  0  0
  1  2  1  0  0  0  0
  2  3  1  0  0  0  0
  2  4  1  0  0  0  0
  2  5  1  0  0  0  0
  5  6  2  0  0  0  0
  5  7  1  0  0  0  0
  7  8  1  0  0  0  0
  7 17  1  0  0  0  0
  8  9  1  0  0  0  0
  8 10  1  0  0  0  0
  8 11  1  0  0  0  0
 11 12  1  0  0  0  0
 11 13  1  0  0  0  0
 11 14  1  0  0  0  0
 14 15  1  0  0  0  0
 14 16  1  0  0  0  0
 14 17  1  0  0  0  0
 17 18  1  0  0  0  0
 17 19  1  0  0  0  0
 19 20  2  0  0  0  0
 19 21  1  0  0  0  0
 21 22  1  0  0  0  0
 21 23  1  0  0  0  0
 23 24  1  0  0  0  0
 23 25  1  0  0  0  0
 23 26  1  0  0  0  0
M  END
$$$$

  -OEChem-01062216093D

 26 26  0     1  0  0  0  0  0999 V2000
   -1.6875   -3.9284   -1.3355 H   0  0  0  0  0  0  0  0  0  0  0  0
   -2.0903   -2.9631   -1.0172 C   0  0  0  0  0  0  0  0  0  0  0  0
   -2.3973   -3.0426    0.0286 H   0  0  0  0  0  0  0  0  0  0  0  0
   -2.9642   -2.7236   -1.6278 H   0  0  0  0  0  0  0  0  0  0  0  0
   -1.0284   -1.8814   -1.1785 C   0  0  0  0  0  0  0  0  0  0  0  0
   -0.3749   -1.9053   -2.2145 O   0  0  0  0  0  0  0  0  0  0  0  0
   -0.6728   -1.0902   -0.0720 N   0  0  0  0  0  0  0  0  0  0  0  0
   -1.7297   -0.0818   -0.3080 C   0  0  0  0  0  0  0  0  0  0  0  0
   -1.9440    0.4138    0.6450 H   0  0  0  0  0  0  0  0  0  0  0  0
   -2.7060   -0.4622   -0.6430 H   0  0  0  0  0  0  0  0  0  0  0  0
   -1.2004    0.9859   -1.3155 C   0  0  0  0  0  0  0  0  0  0  0  0
   -1.7814    1.9133   -1.2985 H   0  0  0  0  0  0  0  0  0  0  0  0
   -1.1535    0.6094   -2.3428 H   0  0  0  0  0  0  0  0  0  0  0  0
    0.1598    1.1387   -0.7093 C   0  0  0  0  0  0  0  0  0  0  0  0
    0.0927    1.9065    0.0739 H   0  0  0  0  0  0  0  0  0  0  0  0
    0.8745    1.5081   -1.4522 H   0  0  0  0  0  0  0  0  0  0  0  0
    0.5768   -0.3036   -0.2449 C   0  0  1  0  0  0  0  0  0  0  0  0
    1.3549   -0.7780   -0.8534 H   0  0  0  0  0  0  0  0  0  0  0  0
    1.1043    0.1808    1.1362 C   0  0  0  0  0  0  0  0  0  0  0  0
    2.2963    0.4257    1.2698 O   0  0  0  0  0  0  0  0  0  0  0  0
    0.2554    0.4414    2.2015 N   0  0  0  0  0  0  0  0  0  0  0  0
   -0.6954    0.0983    2.1057 H   0  0  0  0  0  0  0  0  0  0  0  0
    0.7221    0.8691    3.5144 C   0  0  0  0  0  0  0  0  0  0  0  0
    1.2750    1.8112    3.4363 H   0  0  0  0  0  0  0  0  0  0  0  0
   -0.1284    1.0245    4.1852 H   0  0  0  0  0  0  0  0  0  0  0  0
    1.3781    0.1107    3.9544 H   0  0  0  0  0  0  0  0  0  0  0  0
  1  2  1  0  0  0  0
  2  3  1  0  0  0  0
  2  4  1  0  0  0  0
  2  5  1  0  0  0  0
  5  6  2  0  0  0  0
  5  7  1  0  0  0  0
  7  8  1  0  0  0  0
  7 17  1  0  0  0  0
  8  9  1  0  0  0  0
  8 10  1  0  0  0  0
  8 11  1  0  0  0  0
 11 12  1  0  0  0  0
 11 13  1  0  0  0  0
 11 14  1  0  0  0  0
 14 15  1  0  0  0  0
 14 16  1  0  0  0  0
 14 17  1  0  0  0  0
 17 18  1  0  0  0  0
 17 19  1  0  0  0  0
 19 20  2  0  0  0  0
 19 21  1  0  0  0  0
 21 22  1  0  0  0  0
 21 23  1  0  0  0  0
 23 24  1  0  0  0  0
 23 25  1  0  0  0  0
 23 26  1  0  0  0  0
M  END
$$$$

  -OEChem-01062216093D

 26 26  0     1  0  0  0  0  0999 V2000
   -1.6936   -3.9317   -1.3231 H   0  0  0  0  0  0  0  0  0  0  0  0
   -2.1022   -2.9582   -1.0392 C   0  0  0  0  0  0  0  0  0  0  0  0
   -2.4364   -3.0111    0.0000 H   0  0  0  0  0  0  0  0  0  0  0  0
   -2.9595   -2.7320   -1.6780 H   0  0  0  0  0  0  0  0  0  0  0  0
   -1.0341   -1.8830   -1.2018 C   0  0  0  0  0  0  0  0  0  0  0  0
   -0.3807   -1.9132   -2.2375 O   0  0  0  0  0  0  0  0  0  0  0  0
   -0.6743   -1.0910   -0.0976 N   0  0  0  0  0  0  0  0  0  0  0  0
   -1.7307   -0.0820   -0.3170 C   0  0  0  0  0  0  0  0  0  0  0  0
   -1.9312    0.4077    0.6425 H   0  0  0  0  0  0  0  0  0  0  0  0
   -2.7101   -0.4599   -0.6448 H   0  0  0  0  0  0  0  0  0  0  0  0
   -1.2095    0.9895   -1.3222 C   0  0  0  0  0  0  0  0  0  0  0  0
   -1.7865    1.9191   -1.2931 H   0  0  0  0  0  0  0  0  0  0  0  0
   -1.1740    0.6185   -2.3520 H   0  0  0  0  0  0  0  0  0  0  0  0
    0.1566    1.1308   -0.7279 C   0  0  0  0  0  0  0  0  0  0  0  0
    0.0890    1.8889    0.0660 H   0  0  0  0  0  0  0  0  0  0  0  0
    0.8661    1.5105   -1.4706 H   0  0  0  0  0  0  0  0  0  0  0  0
    0.5824   -0.3147   -0.2751 C   0  0  1  0  0  0  0  0  0  0  0  0
    1.3538   -0.7878   -0.8926 H   0  0  0  0  0  0  0  0  0  0  0  0
    1.1256    0.1795    1.0951 C   0  0  0  0  0  0  0  0  0  0  0  0
    2.2672    0.6155    1.1819 O   0  0  0  0  0  0  0  0  0  0  0  0
    0.3313    0.1633    2.2298 N   0  0  0  0  0  0  0  0  0  0  0  0
   -0.5529   -0.3299    2.1436 H   0  0  0  0  0  0  0  0  0  0  0  0
    0.8145    0.5278    3.5555 C   0  0  0  0  0  0  0  0  0  0  0  0
    1.2224    1.5440    3.5497 H   0  0  0  0  0  0  0  0  0  0  0  0
   -0.0052    0.4910    4.2794 H   0  0  0  0  0  0  0  0  0  0  0  0
    1.5979   -0.1648    3.8803 H   0  0  0  0  0  0  0  0  0  0  0  0
  1  2  1  0  0  0  0
  2  3  1  0  0  0  0
  2  4  1  0  0  0  0
  2  5  1  0  0  0  0
  5  6  2  0  0  0  0
  5  7  1  0  0  0  0
  7  8  1  0  0  0  0
  7 17  1  0  0  0  0
  8  9  1  0  0  0  0
  8 10  1  0  0  0  0
  8 11  1  0  0  0  0
 11 12  1  0  0  0  0
 11 13  1  0  0  0  0
 11 14  1  0  0  0  0
 14 15  1  0  0  0  0
 14 16  1  0  0  0  0
 14 17  1  0  0  0  0
 17 18  1  0  0  0  0
 17 19  1  0  0  0  0
 19 20  2  0  0  0  0
 19 21  1  0  0  0  0
 21 22  1  0  0  0  0
 21 23  1  0  0  0  0
 23 24  1  0  0  0  0
 23 25  1  0  0  0  0
 23 26  1  0  0  0  0
M  END
$$$$

  -OEChem-01062216093D

 26 26  0     1  0  0  0  0  0999 V2000
   -1.7386   -3.9110   -1.3870 H   0  0  0  0  0  0  0  0  0  0  0  0
   -2.1206   -2.9437   -1.0495 C   0  0  0  0  0  0  0  0  0  0  0  0
   -2.4077   -3.0315    0.0013 H   0  0  0  0  0  0  0  0  0  0  0  0
   -3.0028   -2.6846   -1.6401 H   0  0  0  0  0  0  0  0  0  0  0  0
   -1.0461   -1.8757   -1.2202 C   0  0  0  0  0  0  0  0  0  0  0  0
   -0.3920   -1.9193   -2.2549 O   0  0  0  0  0  0  0  0  0  0  0  0
   -0.6764   -1.0825   -0.1199 N   0  0  0  0  0  0  0  0  0  0  0  0
   -1.7280   -0.0699   -0.3305 C   0  0  0  0  0  0  0  0  0  0  0  0
   -1.9109    0.4232    0.6314 H   0  0  0  0  0  0  0  0  0  0  0  0
   -2.7134   -0.4437   -0.6443 H   0  0  0  0  0  0  0  0  0  0  0  0
   -1.2129    0.9959   -1.3445 C   0  0  0  0  0  0  0  0  0  0  0  0
   -1.7840    1.9292   -1.3126 H   0  0  0  0  0  0  0  0  0  0  0  0
   -1.1885    0.6212   -2.3733 H   0  0  0  0  0  0  0  0  0  0  0  0
    0.1579    1.1289   -0.7607 C   0  0  0  0  0  0  0  0  0  0  0  0
    0.0943    1.8867    0.0342 H   0  0  0  0  0  0  0  0  0  0  0  0
    0.8637    1.5078   -1.5074 H   0  0  0  0  0  0  0  0  0  0  0  0
    0.5866   -0.3175   -0.3061 C   0  0  1  0  0  0  0  0  0  0  0  0
    1.3517   -0.7956   -0.9274 H   0  0  0  0  0  0  0  0  0  0  0  0
    1.1396    0.1787    1.0609 C   0  0  0  0  0  0  0  0  0  0  0  0
    2.2097    0.7739    1.1270 O   0  0  0  0  0  0  0  0  0  0  0  0
    0.4671   -0.1084    2.2363 N   0  0  0  0  0  0  0  0  0  0  0  0
   -0.3432   -0.7157    2.1474 H   0  0  0  0  0  0  0  0  0  0  0  0
    0.9873    0.1982    3.5625 C   0  0  0  0  0  0  0  0  0  0  0  0
    1.1949    1.2694    3.6552 H   0  0  0  0  0  0  0  0  0  0  0  0
    0.2560   -0.0777    4.3282 H   0  0  0  0  0  0  0  0  0  0  0  0
    1.9122   -0.3575    3.7486 H   0  0  0  0  0  0  0  0  0  0  0  0
  1  2  1  0  0  0  0
  2  3  1  0  0  0  0
  2  4  1  0  0  0  0
  2  5  1  0  0  0  0
  5  6  2  0  0  0  0
  5  7  1  0  0  0  0
  7  8  1  0  0  0  0
  7 17  1  0  0  0  0
  8  9  1  0  0  0  0
  8 10  1  0  0  0  0
  8 11  1  0  0  0  0
 11 12  1  0  0  0  0
 11 13  1  0  0  0  0
 11 14  1  0  0  0  0
 14 15  1  0  0  0  0
 14 16  1  0  0  0  0
 14 17  1  0  0  0  0
 17 18  1  0  0  0  0
 17 19  1  0  0  0  0
 19 20  2  0  0  0  0
 19 21  1  0  0  0  0
 21 22  1  0  0  0  0
 21 23  1  0  0  0  0
 23 24  1  0  0  0  0
 23 25  1  0  0  0  0
 23 26  1  0  0  0  0
M  END
$$$$

  -OEChem-01062216093D

 26 26  0     1  0  0  0  0  0999 V2000
   -1.7334   -3.9069   -1.2882 H   0  0  0  0  0  0  0  0  0  0  0  0
   -2.1383   -2.9199   -1.0493 C   0  0  0  0  0  0  0  0  0  0  0  0
   -2.4948   -2.9314   -0.0162 H   0  0  0  0  0  0  0  0  0  0  0  0
   -2.9802   -2.7101   -1.7136 H   0  0  0  0  0  0  0  0  0  0  0  0
   -1.0567   -1.8606   -1.2298 C   0  0  0  0  0  0  0  0  0  0  0  0
   -0.4031   -1.9203   -2.2639 O   0  0  0  0  0  0  0  0  0  0  0  0
   -0.6743   -1.0653   -0.1352 N   0  0  0  0  0  0  0  0  0  0  0  0
   -1.7288   -0.0559   -0.3367 C   0  0  0  0  0  0  0  0  0  0  0  0
   -1.8959    0.4415    0.6260 H   0  0  0  0  0  0  0  0  0  0  0  0
   -2.7192   -0.4311   -0.6326 H   0  0  0  0  0  0  0  0  0  0  0  0
   -1.2298    1.0049   -1.3639 C   0  0  0  0  0  0  0  0  0  0  0  0
   -1.8015    1.9376   -1.3287 H   0  0  0  0  0  0  0  0  0  0  0  0
   -1.2175    0.6257   -2.3912 H   0  0  0  0  0  0  0  0  0  0  0  0
    0.1465    1.1401   -0.7954 C   0  0  0  0  0  0  0  0  0  0  0  0
    0.0837    1.8992   -0.0022 H   0  0  0  0  0  0  0  0  0  0  0  0
    0.8438    1.5209   -1.5489 H   0  0  0  0  0  0  0  0  0  0  0  0
    0.5886   -0.3031   -0.3365 C   0  0  1  0  0  0  0  0  0  0  0  0
    1.3482   -0.7829   -0.9629 H   0  0  0  0  0  0  0  0  0  0  0  0
    1.1508    0.1922    1.0295 C   0  0  0  0  0  0  0  0  0  0  0  0
    2.1352    0.9230    1.0931 O   0  0  0  0  0  0  0  0  0  0  0  0
    0.6633   -0.3493    2.2060 N   0  0  0  0  0  0  0  0  0  0  0  0
   -0.0703   -1.0461    2.1062 H   0  0  0  0  0  0  0  0  0  0  0  0
    1.2483   -0.1091    3.5190 C   0  0  0  0  0  0  0  0  0  0  0  0
    1.3019    0.9651    3.7249 H   0  0  0  0  0  0  0  0  0  0  0  0
    0.6373   -0.5779    4.2963 H   0  0  0  0  0  0  0  0  0  0  0  0
    2.2582   -0.5291    3.5700 H   0  0  0  0  0  0  0  0  0  0  0  0
  1  2  1  0  0  0  0
  2  3  1  0  0  0  0
  2  4  1  0  0  0  0
  2  5  1  0  0  0  0
  5  6  2  0  0  0  0
  5  7  1  0  0  0  0
  7  8  1  0  0  0  0
  7 17  1  0  0  0  0
  8  9  1  0  0  0  0
  8 10  1  0  0  0  0
  8 11  1  0  0  0  0
 11 12  1  0  0  0  0
 11 13  1  0  0  0  0
 11 14  1  0  0  0  0
 14 15  1  0  0  0  0
 14 16  1  0  0  0  0
 14 17  1  0  0  0  0
 17 18  1  0  0  0  0
 17 19  1  0  0  0  0
 19 20  2  0  0  0  0
 19 21  1  0  0  0  0
 21 22  1  0  0  0  0
 21 23  1  0  0  0  0
 23 24  1  0  0  0  0
 23 25  1  0  0  0  0
 23 26  1  0  0  0  0
M  END
$$$$

  -OEChem-01062216093D

 26 26  0     1  0  0  0  0  0999 V2000
   -1.7810   -3.8789   -1.3285 H   0  0  0  0  0  0  0  0  0  0  0  0
   -2.1596   -2.8947   -1.0391 C   0  0  0  0  0  0  0  0  0  0  0  0
   -2.4740   -2.9372    0.0068 H   0  0  0  0  0  0  0  0  0  0  0  0
   -3.0242   -2.6501   -1.6611 H   0  0  0  0  0  0  0  0  0  0  0  0
   -1.0689   -1.8450   -1.2266 C   0  0  0  0  0  0  0  0  0  0  0  0
   -0.4101   -1.9267   -2.2561 O   0  0  0  0  0  0  0  0  0  0  0  0
   -0.6767   -1.0455   -0.1375 N   0  0  0  0  0  0  0  0  0  0  0  0
   -1.7301   -0.0371   -0.3449 C   0  0  0  0  0  0  0  0  0  0  0  0
   -1.8853    0.4742    0.6125 H   0  0  0  0  0  0  0  0  0  0  0  0
   -2.7257   -0.4119   -0.6232 H   0  0  0  0  0  0  0  0  0  0  0  0
   -1.2386    1.0083   -1.3926 C   0  0  0  0  0  0  0  0  0  0  0  0
   -1.8086    1.9425   -1.3675 H   0  0  0  0  0  0  0  0  0  0  0  0
   -1.2322    0.6146   -2.4145 H   0  0  0  0  0  0  0  0  0  0  0  0
    0.1396    1.1469   -0.8318 C   0  0  0  0  0  0  0  0  0  0  0  0
    0.0715    1.9140   -0.0475 H   0  0  0  0  0  0  0  0  0  0  0  0
    0.8348    1.5215   -1.5903 H   0  0  0  0  0  0  0  0  0  0  0  0
    0.5885   -0.2903   -0.3528 C   0  0  1  0  0  0  0  0  0  0  0  0
    1.3435   -0.7797   -0.9775 H   0  0  0  0  0  0  0  0  0  0  0  0
    1.1584    0.2069    1.0126 C   0  0  0  0  0  0  0  0  0  0  0  0
    2.0405    1.0589    1.0917 O   0  0  0  0  0  0  0  0  0  0  0  0
    0.9007   -0.5425    2.1468 N   0  0  0  0  0  0  0  0  0  0  0  0
    0.2583   -1.3222    2.0335 H   0  0  0  0  0  0  0  0  0  0  0  0
    1.5562   -0.3353    3.4324 C   0  0  0  0  0  0  0  0  0  0  0  0
    1.3946    0.6889    3.7844 H   0  0  0  0  0  0  0  0  0  0  0  0
    1.1508   -1.0247    4.1792 H   0  0  0  0  0  0  0  0  0  0  0  0
    2.6333   -0.5128    3.3454 H   0  0  0  0  0  0  0  0  0  0  0  0
  1  2  1  0  0  0  0
  2  3  1  0  0  0  0
  2  4  1  0  0  0  0
  2  5  1  0  0  0  0
  5  6  2  0  0  0  0
  5  7  1  0  0  0  0
  7  8  1  0  0  0  0
  7 17  1  0  0  0  0
  8  9  1  0  0  0  0
  8 10  1  0  0  0  0
  8 11  1  0  0  0  0
 11 12  1  0  0  0  0
 11 13  1  0  0  0  0
 11 14  1  0  0  0  0
 14 15  1  0  0  0  0
 14 16  1  0  0  0  0
 14 17  1  0  0  0  0
 17 18  1  0  0  0  0
 17 19  1  0  0  0  0
 19 20  2  0  0  0  0
 19 21  1  0  0  0  0
 21 22  1  0  0  0  0
 21 23  1  0  0  0  0
 23 24  1  0  0  0  0
 23 25  1  0  0  0  0
 23 26  1  0  0  0  0
M  END
$$$$

  -OEChem-01062216093D

 26 26  0     1  0  0  0  0  0999 V2000
   -1.7888   -3.8591   -1.2846 H   0  0  0  0  0  0  0  0  0  0  0  0
   -2.1671   -2.8697   -1.0137 C   0  0  0  0  0  0  0  0  0  0  0  0
   -2.4879   -2.8944    0.0309 H   0  0  0  0  0  0  0  0  0  0  0  0
   -3.0275   -2.6335   -1.6447 H   0  0  0  0  0  0  0  0  0  0  0  0
   -1.0732   -1.8250   -1.2122 C   0  0  0  0  0  0  0  0  0  0  0  0
   -0.4081   -1.9295   -2.2357 O   0  0  0  0  0  0  0  0  0  0  0  0
   -0.6731   -1.0191   -0.1302 N   0  0  0  0  0  0  0  0  0  0  0  0
   -1.7324   -0.0189   -0.3477 C   0  0  0  0  0  0  0  0  0  0  0  0
   -1.8812    0.5091    0.6018 H   0  0  0  0  0  0  0  0  0  0  0  0
   -2.7305   -0.4001   -0.6084 H   0  0  0  0  0  0  0  0  0  0  0  0
   -1.2552    1.0107   -1.4190 C   0  0  0  0  0  0  0  0  0  0  0  0
   -1.8309    1.9418   -1.4066 H   0  0  0  0  0  0  0  0  0  0  0  0
   -1.2513    0.5996   -2.4340 H   0  0  0  0  0  0  0  0  0  0  0  0
    0.1231    1.1655   -0.8647 C   0  0  0  0  0  0  0  0  0  0  0  0
    0.0388    1.9430   -0.0942 H   0  0  0  0  0  0  0  0  0  0  0  0
    0.8152    1.5369   -1.6277 H   0  0  0  0  0  0  0  0  0  0  0  0
    0.5875   -0.2607   -0.3608 C   0  0  1  0  0  0  0  0  0  0  0  0
    1.3421   -0.7542   -0.9823 H   0  0  0  0  0  0  0  0  0  0  0  0
    1.1564    0.2357    1.0093 C   0  0  0  0  0  0  0  0  0  0  0  0
    1.9029    1.2050    1.1362 O   0  0  0  0  0  0  0  0  0  0  0  0
    1.1653   -0.6766    2.0502 N   0  0  0  0  0  0  0  0  0  0  0  0
    0.6487   -1.5386    1.8977 H   0  0  0  0  0  0  0  0  0  0  0  0
    1.8964   -0.4955    3.2989 C   0  0  0  0  0  0  0  0  0  0  0  0
    1.5948    0.4361    3.7888 H   0  0  0  0  0  0  0  0  0  0  0  0
    1.6899   -1.3259    3.9807 H   0  0  0  0  0  0  0  0  0  0  0  0
    2.9744   -0.4621    3.1098 H   0  0  0  0  0  0  0  0  0  0  0  0
  1  2  1  0  0  0  0
  2  3  1  0  0  0  0
  2  4  1  0  0  0  0
  2  5  1  0  0  0  0
  5  6  2  0  0  0  0
  5  7  1  0  0  0  0
  7  8  1  0  0  0  0
  7 17  1  0  0  0  0
  8  9  1  0  0  0  0
  8 10  1  0  0  0  0
  8 11  1  0  0  0  0
 11 12  1  0  0  0  0
 11 13  1  0  0  0  0
 11 14  1  0  0  0  0
 14 15  1  0  0  0  0
 14 16  1  0  0  0  0
 14 17  1  0  0  0  0
 17 18  1  0  0  0  0
 17 19  1  0  0  0  0
 19 20  2  0  0  0  0
 19 21  1  0  0  0  0
 21 22  1  0  0  0  0
 21 23  1  0  0  0  0
 23 24  1  0  0  0  0
 23 25  1  0  0  0  0
 23 26  1  0  0  0  0
M  END
$$$$

  -OEChem-01062216093D

 26 26  0     1  0  0  0  0  0999 V2000
   -1.7857   -3.8442   -1.2102 H   0  0  0  0  0  0  0  0  0  0  0  0
   -2.1701   -2.8499   -0.9671 C   0  0  0  0  0  0  0  0  0  0  0  0
   -2.4952   -2.8495    0.0765 H   0  0  0  0  0  0  0  0  0  0  0  0
   -3.0292   -2.6350   -1.6073 H   0  0  0  0  0  0  0  0  0  0  0  0
   -1.0808   -1.8042   -1.1884 C   0  0  0  0  0  0  0  0  0  0  0  0
   -0.4196   -1.9265   -2.2127 O   0  0  0  0  0  0  0  0  0  0  0  0
   -0.6637   -0.9933   -0.1163 N   0  0  0  0  0  0  0  0  0  0  0  0
   -1.7266    0.0016   -0.3436 C   0  0  0  0  0  0  0  0  0  0  0  0
   -1.8621    0.5494    0.5967 H   0  0  0  0  0  0  0  0  0  0  0  0
   -2.7300   -0.3833   -0.5785 H   0  0  0  0  0  0  0  0  0  0  0  0
   -1.2670    1.0114   -1.4444 C   0  0  0  0  0  0  0  0  0  0  0  0
   -1.8493    1.9383   -1.4469 H   0  0  0  0  0  0  0  0  0  0  0  0
   -1.2666    0.5805   -2.4511 H   0  0  0  0  0  0  0  0  0  0  0  0
    0.1114    1.1865   -0.8999 C   0  0  0  0  0  0  0  0  0  0  0  0
    0.0116    1.9818   -0.1528 H   0  0  0  0  0  0  0  0  0  0  0  0
    0.7995    1.5479   -1.6706 H   0  0  0  0  0  0  0  0  0  0  0  0
    0.5878   -0.2279   -0.3676 C   0  0  1  0  0  0  0  0  0  0  0  0
    1.3403   -0.7271   -0.9873 H   0  0  0  0  0  0  0  0  0  0  0  0
    1.1562    0.2587    1.0117 C   0  0  0  0  0  0  0  0  0  0  0  0
    1.7049    1.3365    1.2376 O   0  0  0  0  0  0  0  0  0  0  0  0
    1.4601   -0.7485    1.9116 N   0  0  0  0  0  0  0  0  0  0  0  0
    1.1022   -1.6736    1.6907 H   0  0  0  0  0  0  0  0  0  0  0  0
    2.2316   -0.5616    3.1355 C   0  0  0  0  0  0  0  0  0  0  0  0
    1.7672    0.2007    3.7697 H   0  0  0  0  0  0  0  0  0  0  0  0
    2.2771   -1.4981    3.6993 H   0  0  0  0  0  0  0  0  0  0  0  0
    3.2545   -0.2498    2.8996 H   0  0  0  0  0  0  0  0  0  0  0  0
  1  2  1  0  0  0  0
  2  3  1  0  0  0  0
  2  4  1  0  0  0  0
  2  5  1  0  0  0  0
  5  6  2  0  0  0  0
  5  7  1  0  0  0  0
  7  8  1  0  0  0  0
  7 17  1  0  0  0  0
  8  9  1  0  0  0  0
  8 10  1  0  0  0  0
  8 11  1  0  0  0  0
 11 12  1  0  0  0  0
 11 13  1  0  0  0  0
 11 14  1  0  0  0  0
 14 15  1  0  0  0  0
 14 16  1  0  0  0  0
 14 17  1  0  0  0  0
 17 18  1  0  0  0  0
 17 19  1  0  0  0  0
 19 20  2  0  0  0  0
 19 21  1  0  0  0  0
 21 22  1  0  0  0  0
 21 23  1  0  0  0  0
 23 24  1  0  0  0  0
 23 25  1  0  0  0  0
 23 26  1  0  0  0  0
M  END
$$$$

  -OEChem-01062216093D

 26 26  0     1  0  0  0  0  0999 V2000
   -1.7893   -3.8255   -1.0744 H   0  0  0  0  0  0  0  0  0  0  0  0
   -2.1576   -2.8264   -0.8260 C   0  0  0  0  0  0  0  0  0  0  0  0
   -2.4144   -2.8053    0.2363 H   0  0  0  0  0  0  0  0  0  0  0  0
   -3.0563   -2.6224   -1.4132 H   0  0  0  0  0  0  0  0  0  0  0  0
   -1.0850   -1.7864   -1.1360 C   0  0  0  0  0  0  0  0  0  0  0  0
   -0.4783   -1.9340   -2.1907 O   0  0  0  0  0  0  0  0  0  0  0  0
   -0.5901   -0.9667   -0.1068 N   0  0  0  0  0  0  0  0  0  0  0  0
   -1.6556    0.0363   -0.3031 C   0  0  0  0  0  0  0  0  0  0  0  0
   -1.7261    0.6172    0.6251 H   0  0  0  0  0  0  0  0  0  0  0  0
   -2.6770   -0.3436   -0.4559 H   0  0  0  0  0  0  0  0  0  0  0  0
   -1.2629    1.0132   -1.4693 C   0  0  0  0  0  0  0  0  0  0  0  0
   -1.8595    1.9308   -1.4769 H   0  0  0  0  0  0  0  0  0  0  0  0
   -1.3046    0.5462   -2.4588 H   0  0  0  0  0  0  0  0  0  0  0  0
    0.1358    1.2314   -0.9967 C   0  0  0  0  0  0  0  0  0  0  0  0
    0.0929    2.0795   -0.3111 H   0  0  0  0  0  0  0  0  0  0  0  0
    0.7814    1.5367   -1.8260 H   0  0  0  0  0  0  0  0  0  0  0  0
    0.6151   -0.1707   -0.4441 C   0  0  1  0  0  0  0  0  0  0  0  0
    1.3505   -0.6748   -1.0797 H   0  0  0  0  0  0  0  0  0  0  0  0
    1.2048    0.2708    0.9476 C   0  0  0  0  0  0  0  0  0  0  0  0
    1.1864    1.3690    1.4992 O   0  0  0  0  0  0  0  0  0  0  0  0
    1.8559   -0.7325    1.6459 N   0  0  0  0  0  0  0  0  0  0  0  0
    1.8044   -1.6664    1.2493 H   0  0  0  0  0  0  0  0  0  0  0  0
    2.4460   -0.5640    2.9695 C   0  0  0  0  0  0  0  0  0  0  0  0
    1.6802   -0.2759    3.6971 H   0  0  0  0  0  0  0  0  0  0  0  0
    2.9034   -1.5011    3.3006 H   0  0  0  0  0  0  0  0  0  0  0  0
    3.2217    0.2087    2.9482 H   0  0  0  0  0  0  0  0  0  0  0  0
  1  2  1  0  0  0  0
  2  3  1  0  0  0  0
  2  4  1  0  0  0  0
  2  5  1  0  0  0  0
  5  6  2  0  0  0  0
  5  7  1  0  0  0  0
  7  8  1  0  0  0  0
  7 17  1  0  0  0  0
  8  9  1  0  0  0  0
  8 10  1  0  0  0  0
  8 11  1  0  0  0  0
 11 12  1  0  0  0  0
 11 13  1  0  0  0  0
 11 14  1  0  0  0  0
 14 15  1  0  0  0  0
 14 16  1  0  0  0  0
 14 17  1  0  0  0  0
 17 18  1  0  0  0  0
 17 19  1  0  0  0  0
 19 20  2  0  0  0  0
 19 21  1  0  0  0  0
 21 22  1  0  0  0  0
 21 23  1  0  0  0  0
 23 24  1  0  0  0  0
 23 25  1  0  0  0  0
 23 26  1  0  0  0  0
M  END
$$$$

  -OEChem-01062216093D

 26 26  0     1  0  0  0  0  0999 V2000
   -1.7730   -3.8344   -0.9363 H   0  0  0  0  0  0  0  0  0  0  0  0
   -2.1481   -2.8283   -0.7314 C   0  0  0  0  0  0  0  0  0  0  0  0
   -2.3981   -2.7601    0.3306 H   0  0  0  0  0  0  0  0  0  0  0  0
   -3.0522   -2.6582   -1.3210 H   0  0  0  0  0  0  0  0  0  0  0  0
   -1.0864   -1.7957   -1.0959 C   0  0  0  0  0  0  0  0  0  0  0  0
   -0.5164   -1.9545   -2.1699 O   0  0  0  0  0  0  0  0  0  0  0  0
   -0.5694   -0.9496   -0.1022 N   0  0  0  0  0  0  0  0  0  0  0  0
   -1.6346    0.0594   -0.2837 C   0  0  0  0  0  0  0  0  0  0  0  0
   -1.6916    0.6461    0.6413 H   0  0  0  0  0  0  0  0  0  0  0  0
   -2.6576   -0.3204   -0.4231 H   0  0  0  0  0  0  0  0  0  0  0  0
   -1.2540    1.0240   -1.4640 C   0  0  0  0  0  0  0  0  0  0  0  0
   -1.8437    1.9460   -1.4660 H   0  0  0  0  0  0  0  0  0  0  0  0
   -1.3242    0.5471   -2.4471 H   0  0  0  0  0  0  0  0  0  0  0  0
    0.1612    1.2415   -1.0338 C   0  0  0  0  0  0  0  0  0  0  0  0
    0.1879    2.1017   -0.3597 H   0  0  0  0  0  0  0  0  0  0  0  0
    0.7800    1.5139   -1.8947 H   0  0  0  0  0  0  0  0  0  0  0  0
    0.6223   -0.1595   -0.4847 C   0  0  1  0  0  0  0  0  0  0  0  0
    1.3428   -0.6756   -1.1277 H   0  0  0  0  0  0  0  0  0  0  0  0
    1.2398    0.3200    0.8767 C   0  0  0  0  0  0  0  0  0  0  0  0
    0.7984    1.1904    1.6269 O   0  0  0  0  0  0  0  0  0  0  0  0
    2.1783   -0.5308    1.4370 N   0  0  0  0  0  0  0  0  0  0  0  0
    2.3928   -1.3757    0.9155 H   0  0  0  0  0  0  0  0  0  0  0  0
    2.6639   -0.4187    2.8082 C   0  0  0  0  0  0  0  0  0  0  0  0
    1.8434   -0.5649    3.5185 H   0  0  0  0  0  0  0  0  0  0  0  0
    3.4286   -1.1772    3.0009 H   0  0  0  0  0  0  0  0  0  0  0  0
    3.1076    0.5678    2.9789 H   0  0  0  0  0  0  0  0  0  0  0  0
  1  2  1  0  0  0  0
  2  3  1  0  0  0  0
  2  4  1  0  0  0  0
  2  5  1  0  0  0  0
  5  6  2  0  0  0  0
  5  7  1  0  0  0  0
  7  8  1  0  0  0  0
  7 17  1  0  0  0  0
  8  9  1  0  0  0  0
  8 10  1  0  0  0  0
  8 11  1  0  0  0  0
 11 12  1  0  0  0  0
 11 13  1  0  0  0  0
 11 14  1  0  0  0  0
 14 15  1  0  0  0  0
 14 16  1  0  0  0  0
 14 17  1  0  0  0  0
 17 18  1  0  0  0  0
 17 19  1  0  0  0  0
 19 20  2  0  0  0  0
 19 21  1  0  0  0  0
 21 22  1  0  0  0  0
 21 23  1  0  0  0  0
 23 24  1  0  0  0  0
 23 25  1  0  0  0  0
 23 26  1  0  0  0  0
M  END
$$$$

  -OEChem-01062216093D

 26 26  0     1  0  0  0  0  0999 V2000
   -1.8237   -3.8419   -0.9861 H   0  0  0  0  0  0  0  0  0  0  0  0
   -2.1737   -2.8356   -0.7414 C   0  0  0  0  0  0  0  0  0  0  0  0
   -2.4077   -2.7986    0.3257 H   0  0  0  0  0  0  0  0  0  0  0  0
   -3.0813   -2.6256   -1.3123 H   0  0  0  0  0  0  0  0  0  0  0  0
   -1.0943   -1.8143   -1.0840 C   0  0  0  0  0  0  0  0  0  0  0  0
   -0.5032   -1.9794   -2.1459 O   0  0  0  0  0  0  0  0  0  0  0  0
   -0.6056   -0.9553   -0.0867 N   0  0  0  0  0  0  0  0  0  0  0  0
   -1.6624    0.0561   -0.2975 C   0  0  0  0  0  0  0  0  0  0  0  0
   -1.7460    0.6439    0.6244 H   0  0  0  0  0  0  0  0  0  0  0  0
   -2.6807   -0.3223   -0.4690 H   0  0  0  0  0  0  0  0  0  0  0  0
   -1.2422    1.0143   -1.4663 C   0  0  0  0  0  0  0  0  0  0  0  0
   -1.8215    1.9427   -1.4828 H   0  0  0  0  0  0  0  0  0  0  0  0
   -1.2973    0.5354   -2.4495 H   0  0  0  0  0  0  0  0  0  0  0  0
    0.1677    1.2164   -1.0084 C   0  0  0  0  0  0  0  0  0  0  0  0
    0.1896    2.0715   -0.3246 H   0  0  0  0  0  0  0  0  0  0  0  0
    0.8060    1.4859   -1.8555 H   0  0  0  0  0  0  0  0  0  0  0  0
    0.6067   -0.1855   -0.4476 C   0  0  1  0  0  0  0  0  0  0  0  0
    1.3294   -0.7146   -1.0775 H   0  0  0  0  0  0  0  0  0  0  0  0
    1.2238    0.3405    0.8925 C   0  0  0  0  0  0  0  0  0  0  0  0
    0.6537    1.0666    1.7072 O   0  0  0  0  0  0  0  0  0  0  0  0
    2.3646   -0.3036    1.3416 N   0  0  0  0  0  0  0  0  0  0  0  0
    2.7304   -1.0497    0.7574 H   0  0  0  0  0  0  0  0  0  0  0  0
    2.9252   -0.1250    2.6765 C   0  0  0  0  0  0  0  0  0  0  0  0
    2.2086   -0.4471    3.4394 H   0  0  0  0  0  0  0  0  0  0  0  0
    3.8376   -0.7191    2.7854 H   0  0  0  0  0  0  0  0  0  0  0  0
    3.1766    0.9268    2.8493 H   0  0  0  0  0  0  0  0  0  0  0  0
  1  2  1  0  0  0  0
  2  3  1  0  0  0  0
  2  4  1  0  0  0  0
  2  5  1  0  0  0  0
  5  6  2  0  0  0  0
  5  7  1  0  0  0  0
  7  8  1  0  0  0  0
  7 17  1  0  0  0  0
  8  9  1  0  0  0  0
  8 10  1  0  0  0  0
  8 11  1  0  0  0  0
 11 12  1  0  0  0  0
 11 13  1  0  0  0  0
 11 14  1  0  0  0  0
 14 15  1  0  0  0  0
 14 16  1  0  0  0  0
 14 17  1  0  0  0  0
 17 18  1  0  0  0  0
 17 19  1  0  0  0  0
 19 20  2  0  0  0  0
 19 21  1  0  0  0  0
 21 22  1  0  0  0  0
 21 23  1  0  0  0  0
 23 24  1  0  0  0  0
 23 25  1  0  0  0  0
 23 26  1  0  0  0  0
M  END
$$$$

  -OEChem-01062216093D

 26 26  0     1  0  0  0  0  0999 V2000
   -1.8274   -3.8555   -0.9481 H   0  0  0  0  0  0  0  0  0  0  0  0
   -2.1910   -2.8444   -0.7466 C   0  0  0  0  0  0  0  0  0  0  0  0
   -2.4696   -2.7790    0.3085 H   0  0  0  0  0  0  0  0  0  0  0  0
   -3.0747   -2.6539   -1.3604 H   0  0  0  0  0  0  0  0  0  0  0  0
   -1.1017   -1.8283   -1.0720 C   0  0  0  0  0  0  0  0  0  0  0  0
   -0.4910   -1.9972   -2.1224 O   0  0  0  0  0  0  0  0  0  0  0  0
   -0.6406   -0.9597   -0.0705 N   0  0  0  0  0  0  0  0  0  0  0  0
   -1.6864    0.0553   -0.3115 C   0  0  0  0  0  0  0  0  0  0  0  0
   -1.7978    0.6415    0.6084 H   0  0  0  0  0  0  0  0  0  0  0  0
   -2.6990   -0.3201   -0.5193 H   0  0  0  0  0  0  0  0  0  0  0  0
   -1.2236    1.0106   -1.4627 C   0  0  0  0  0  0  0  0  0  0  0  0
   -1.7915    1.9456   -1.4926 H   0  0  0  0  0  0  0  0  0  0  0  0
   -1.2588    0.5335   -2.4477 H   0  0  0  0  0  0  0  0  0  0  0  0
    0.1774    1.1957   -0.9700 C   0  0  0  0  0  0  0  0  0  0  0  0
    0.1828    2.0433   -0.2736 H   0  0  0  0  0  0  0  0  0  0  0  0
    0.8401    1.4690   -1.7972 H   0  0  0  0  0  0  0  0  0  0  0  0
    0.5934   -0.2096   -0.4007 C   0  0  1  0  0  0  0  0  0  0  0  0
    1.3206   -0.7501   -1.0155 H   0  0  0  0  0  0  0  0  0  0  0  0
    1.2020    0.3510    0.9253 C   0  0  0  0  0  0  0  0  0  0  0  0
    0.5589    0.9420    1.7924 O   0  0  0  0  0  0  0  0  0  0  0  0
    2.4833   -0.0533    1.2593 N   0  0  0  0  0  0  0  0  0  0  0  0
    2.9577   -0.6737    0.6099 H   0  0  0  0  0  0  0  0  0  0  0  0
    3.1053    0.2154    2.5509 C   0  0  0  0  0  0  0  0  0  0  0  0
    2.5267   -0.2457    3.3583 H   0  0  0  0  0  0  0  0  0  0  0  0
    4.1194   -0.1948    2.5738 H   0  0  0  0  0  0  0  0  0  0  0  0
    3.1655    1.2940    2.7308 H   0  0  0  0  0  0  0  0  0  0  0  0
  1  2  1  0  0  0  0
  2  3  1  0  0  0  0
  2  4  1  0  0  0  0
  2  5  1  0  0  0  0
  5  6  2  0  0  0  0
  5  7  1  0  0  0  0
  7  8  1  0  0  0  0
  7 17  1  0  0  0  0
  8  9  1  0  0  0  0
  8 10  1  0  0  0  0
  8 11  1  0  0  0  0
 11 12  1  0  0  0  0
 11 13  1  0  0  0  0
 11 14  1  0  0  0  0
 14 15  1  0  0  0  0
 14 16  1  0  0  0  0
 14 17  1  0  0  0  0
 17 18  1  0  0  0  0
 17 19  1  0  0  0  0
 19 20  2  0  0  0  0
 19 21  1  0  0  0  0
 21 22  1  0  0  0  0
 21 23  1  0  0  0  0
 23 24  1  0  0  0  0
 23 25  1  0  0  0  0
 23 26  1  0  0  0  0
M  END
$$$$

  -OEChem-01062216093D

 26 26  0     1  0  0  0  0  0999 V2000
   -1.8594   -3.8611   -0.9859 H   0  0  0  0  0  0  0  0  0  0  0  0
   -2.2066   -2.8502   -0.7565 C   0  0  0  0  0  0  0  0  0  0  0  0
   -2.4824   -2.8085    0.3005 H   0  0  0  0  0  0  0  0  0  0  0  0
   -3.0881   -2.6300   -1.3635 H   0  0  0  0  0  0  0  0  0  0  0  0
   -1.1018   -1.8426   -1.0550 C   0  0  0  0  0  0  0  0  0  0  0  0
   -0.4649   -2.0167   -2.0889 O   0  0  0  0  0  0  0  0  0  0  0  0
   -0.6721   -0.9636   -0.0483 N   0  0  0  0  0  0  0  0  0  0  0  0
   -1.7028    0.0553   -0.3242 C   0  0  0  0  0  0  0  0  0  0  0  0
   -1.8395    0.6443    0.5903 H   0  0  0  0  0  0  0  0  0  0  0  0
   -2.7093   -0.3160   -0.5641 H   0  0  0  0  0  0  0  0  0  0  0  0
   -1.1957    1.0031   -1.4596 C   0  0  0  0  0  0  0  0  0  0  0  0
   -1.7520    1.9445   -1.5078 H   0  0  0  0  0  0  0  0  0  0  0  0
   -1.2066    0.5244   -2.4443 H   0  0  0  0  0  0  0  0  0  0  0  0
    0.1929    1.1720   -0.9270 C   0  0  0  0  0  0  0  0  0  0  0  0
    0.1781    2.0159   -0.2237 H   0  0  0  0  0  0  0  0  0  0  0  0
    0.8824    1.4450   -1.7323 H   0  0  0  0  0  0  0  0  0  0  0  0
    0.5849   -0.2353   -0.3427 C   0  0  1  0  0  0  0  0  0  0  0  0
    1.3202   -0.7889   -0.9356 H   0  0  0  0  0  0  0  0  0  0  0  0
    1.1776    0.3564    0.9740 C   0  0  0  0  0  0  0  0  0  0  0  0
    0.4927    0.8233    1.8824 O   0  0  0  0  0  0  0  0  0  0  0  0
    2.5356    0.2128    1.2014 N   0  0  0  0  0  0  0  0  0  0  0  0
    3.0764   -0.2809    0.4974 H   0  0  0  0  0  0  0  0  0  0  0  0
    3.1892    0.5951    2.4477 C   0  0  0  0  0  0  0  0  0  0  0  0
    2.7770    0.0259    3.2874 H   0  0  0  0  0  0  0  0  0  0  0  0
    4.2630    0.3945    2.3876 H   0  0  0  0  0  0  0  0  0  0  0  0
    3.0484    1.6634    2.6425 H   0  0  0  0  0  0  0  0  0  0  0  0
  1  2  1  0  0  0  0
  2  3  1  0  0  0  0
  2  4  1  0  0  0  0
  2  5  1  0  0  0  0
  5  6  2  0  0  0  0
  5  7  1  0  0  0  0
  7  8  1  0  0  0  0
  7 17  1  0  0  0  0
  8  9  1  0  0  0  0
  8 10  1  0  0  0  0
  8 11  1  0  0  0  0
 11 12  1  0  0  0  0
 11 13  1  0  0  0  0
 11 14  1  0  0  0  0
 14 15  1  0  0  0  0
 14 16  1  0  0  0  0
 14 17  1  0  0  0  0
 17 18  1  0  0  0  0
 17 19  1  0  0  0  0
 19 20  2  0  0  0  0
 19 21  1  0  0  0  0
 21 22  1  0  0  0  0
 21 23  1  0  0  0  0
 23 24  1  0  0  0  0
 23 25  1  0  0  0  0
 23 26  1  0  0  0  0
M  END
$$$$

  -OEChem-01062216093D

 26 26  0     1  0  0  0  0  0999 V2000
   -1.8650   -3.8657   -0.9769 H   0  0  0  0  0  0  0  0  0  0  0  0
   -2.2160   -2.8511   -0.7710 C   0  0  0  0  0  0  0  0  0  0  0  0
   -2.5325   -2.7983    0.2740 H   0  0  0  0  0  0  0  0  0  0  0  0
   -3.0724   -2.6332   -1.4136 H   0  0  0  0  0  0  0  0  0  0  0  0
   -1.0959   -1.8516   -1.0373 C   0  0  0  0  0  0  0  0  0  0  0  0
   -0.4310   -2.0298   -2.0528 O   0  0  0  0  0  0  0  0  0  0  0  0
   -0.6980   -0.9656   -0.0237 N   0  0  0  0  0  0  0  0  0  0  0  0
   -1.7149    0.0557   -0.3315 C   0  0  0  0  0  0  0  0  0  0  0  0
   -1.8773    0.6449    0.5788 H   0  0  0  0  0  0  0  0  0  0  0  0
   -2.7136   -0.3133   -0.6049 H   0  0  0  0  0  0  0  0  0  0  0  0
   -1.1670    0.9993   -1.4484 C   0  0  0  0  0  0  0  0  0  0  0  0
   -1.7126    1.9458   -1.5116 H   0  0  0  0  0  0  0  0  0  0  0  0
   -1.1537    0.5213   -2.4334 H   0  0  0  0  0  0  0  0  0  0  0  0
    0.2070    1.1540   -0.8756 C   0  0  0  0  0  0  0  0  0  0  0  0
    0.1699    1.9945   -0.1672 H   0  0  0  0  0  0  0  0  0  0  0  0
    0.9218    1.4285   -1.6578 H   0  0  0  0  0  0  0  0  0  0  0  0
    0.5787   -0.2551   -0.2796 C   0  0  1  0  0  0  0  0  0  0  0  0
    1.3237   -0.8176   -0.8516 H   0  0  0  0  0  0  0  0  0  0  0  0
    1.1527    0.3593    1.0326 C   0  0  0  0  0  0  0  0  0  0  0  0
    0.4505    0.6845    1.9868 O   0  0  0  0  0  0  0  0  0  0  0  0
    2.5254    0.4888    1.1595 N   0  0  0  0  0  0  0  0  0  0  0  0
    3.1001    0.1464    0.3951 H   0  0  0  0  0  0  0  0  0  0  0  0
    3.1798    0.9705    2.3702 C   0  0  0  0  0  0  0  0  0  0  0  0
    2.9572    0.3102    3.2150 H   0  0  0  0  0  0  0  0  0  0  0  0
    4.2644    0.9970    2.2280 H   0  0  0  0  0  0  0  0  0  0  0  0
    2.8389    1.9822    2.6139 H   0  0  0  0  0  0  0  0  0  0  0  0
  1  2  1  0  0  0  0
  2  3  1  0  0  0  0
  2  4  1  0  0  0  0
  2  5  1  0  0  0  0
  5  6  2  0  0  0  0
  5  7  1  0  0  0  0
  7  8  1  0  0  0  0
  7 17  1  0  0  0  0
  8  9  1  0  0  0  0
  8 10  1  0  0  0  0
  8 11  1  0  0  0  0
 11 12  1  0  0  0  0
 11 13  1  0  0  0  0
 11 14  1  0  0  0  0
 14 15  1  0  0  0  0
 14 16  1  0  0  0  0
 14 17  1  0  0  0  0
 17 18  1  0  0  0  0
 17 19  1  0  0  0  0
 19 20  2  0  0  0  0
 19 21  1  0  0  0  0
 21 22  1  0  0  0  0
 21 23  1  0  0  0  0
 23 24  1  0  0  0  0
 23 25  1  0  0  0  0
 23 26  1  0  0  0  0
M  END
$$$$

  -OEChem-01062216093D

 26 26  0     1  0  0  0  0  0999 V2000
   -1.8574   -3.8669   -0.9775 H   0  0  0  0  0  0  0  0  0  0  0  0
   -2.2122   -2.8528   -0.7761 C   0  0  0  0  0  0  0  0  0  0  0  0
   -2.5421   -2.8005    0.2649 H   0  0  0  0  0  0  0  0  0  0  0  0
   -3.0604   -2.6351   -1.4295 H   0  0  0  0  0  0  0  0  0  0  0  0
   -1.0894   -1.8521   -1.0252 C   0  0  0  0  0  0  0  0  0  0  0  0
   -0.4060   -2.0285   -2.0288 O   0  0  0  0  0  0  0  0  0  0  0  0
   -0.7180   -0.9617   -0.0061 N   0  0  0  0  0  0  0  0  0  0  0  0
   -1.7223    0.0609   -0.3424 C   0  0  0  0  0  0  0  0  0  0  0  0
   -1.9071    0.6499    0.5638 H   0  0  0  0  0  0  0  0  0  0  0  0
   -2.7136   -0.3059   -0.6445 H   0  0  0  0  0  0  0  0  0  0  0  0
   -1.1400    1.0010   -1.4422 C   0  0  0  0  0  0  0  0  0  0  0  0
   -1.6776    1.9512   -1.5185 H   0  0  0  0  0  0  0  0  0  0  0  0
   -1.1034    0.5239   -2.4271 H   0  0  0  0  0  0  0  0  0  0  0  0
    0.2190    1.1434   -0.8320 C   0  0  0  0  0  0  0  0  0  0  0  0
    0.1597    1.9804   -0.1201 H   0  0  0  0  0  0  0  0  0  0  0  0
    0.9559    1.4203   -1.5926 H   0  0  0  0  0  0  0  0  0  0  0  0
    0.5752   -0.2673   -0.2246 C   0  0  1  0  0  0  0  0  0  0  0  0
    1.3301   -0.8363   -0.7770 H   0  0  0  0  0  0  0  0  0  0  0  0
    1.1264    0.3602    1.0907 C   0  0  0  0  0  0  0  0  0  0  0  0
    0.4350    0.5144    2.0931 O   0  0  0  0  0  0  0  0  0  0  0  0
    2.4503    0.7661    1.1418 N   0  0  0  0  0  0  0  0  0  0  0  0
    3.0270    0.5869    0.3251 H   0  0  0  0  0  0  0  0  0  0  0  0
    3.0758    1.3168    2.3383 C   0  0  0  0  0  0  0  0  0  0  0  0
    3.0357    0.5929    3.1590 H   0  0  0  0  0  0  0  0  0  0  0  0
    4.1246    1.5574    2.1401 H   0  0  0  0  0  0  0  0  0  0  0  0
    2.5645    2.2333    2.6508 H   0  0  0  0  0  0  0  0  0  0  0  0
  1  2  1  0  0  0  0
  2  3  1  0  0  0  0
  2  4  1  0  0  0  0
  2  5  1  0  0  0  0
  5  6  2  0  0  0  0
  5  7  1  0  0  0  0
  7  8  1  0  0  0  0
  7 17  1  0  0  0  0
  8  9  1  0  0  0  0
  8 10  1  0  0  0  0
  8 11  1  0  0  0  0
 11 12  1  0  0  0  0
 11 13  1  0  0  0  0
 11 14  1  0  0  0  0
 14 15  1  0  0  0  0
 14 16  1  0  0  0  0
 14 17  1  0  0  0  0
 17 18  1  0  0  0  0
 17 19  1  0  0  0  0
 19 20  2  0  0  0  0
 19 21  1  0  0  0  0
 21 22  1  0  0  0  0
 21 23  1  0  0  0  0
 23 24  1  0  0  0  0
 23 25  1  0  0  0  0
 23 26  1  0  0  0  0
M  END
$$$$

  -OEChem-01062216093D

 26 26  0     1  0  0  0  0  0999 V2000
   -1.7872   -3.9055   -0.8188 H   0  0  0  0  0  0  0  0  0  0  0  0
   -2.1492   -2.8826   -0.6860 C   0  0  0  0  0  0  0  0  0  0  0  0
   -2.5105   -2.7719    0.3398 H   0  0  0  0  0  0  0  0  0  0  0  0
   -2.9769   -2.7049   -1.3764 H   0  0  0  0  0  0  0  0  0  0  0  0
   -1.0215   -1.8949   -0.9564 C   0  0  0  0  0  0  0  0  0  0  0  0
   -0.2852   -2.1327   -1.9074 O   0  0  0  0  0  0  0  0  0  0  0  0
   -0.7686   -0.8620   -0.0450 N   0  0  0  0  0  0  0  0  0  0  0  0
   -1.7912    0.1057   -0.4544 C   0  0  0  0  0  0  0  0  0  0  0  0
   -2.0853    0.6790    0.4324 H   0  0  0  0  0  0  0  0  0  0  0  0
   -2.7187   -0.3208   -0.8583 H   0  0  0  0  0  0  0  0  0  0  0  0
   -1.1524    1.0600   -1.4883 C   0  0  0  0  0  0  0  0  0  0  0  0
   -1.6987    2.0025   -1.5935 H   0  0  0  0  0  0  0  0  0  0  0  0
   -1.0559    0.5829   -2.4694 H   0  0  0  0  0  0  0  0  0  0  0  0
    0.1816    1.2247   -0.8204 C   0  0  0  0  0  0  0  0  0  0  0  0
    0.0789    2.0242   -0.0739 H   0  0  0  0  0  0  0  0  0  0  0  0
    0.9447    1.5364   -1.5406 H   0  0  0  0  0  0  0  0  0  0  0  0
    0.5335   -0.1697   -0.2108 C   0  0  1  0  0  0  0  0  0  0  0  0
    1.2885   -0.7237   -0.7777 H   0  0  0  0  0  0  0  0  0  0  0  0
    1.1049    0.3473    1.1406 C   0  0  0  0  0  0  0  0  0  0  0  0
    0.4977    0.2176    2.1976 O   0  0  0  0  0  0  0  0  0  0  0  0
    2.3189    1.0168    1.1654 N   0  0  0  0  0  0  0  0  0  0  0  0
    2.8333    1.0877    0.2927 H   0  0  0  0  0  0  0  0  0  0  0  0
    2.9329    1.5212    2.3882 C   0  0  0  0  0  0  0  0  0  0  0  0
    3.1087    0.7028    3.0944 H   0  0  0  0  0  0  0  0  0  0  0  0
    3.8931    1.9950    2.1622 H   0  0  0  0  0  0  0  0  0  0  0  0
    2.2846    2.2645    2.8639 H   0  0  0  0  0  0  0  0  0  0  0  0
  1  2  1  0  0  0  0
  2  3  1  0  0  0  0
  2  4  1  0  0  0  0
  2  5  1  0  0  0  0
  5  6  2  0  0  0  0
  5  7  1  0  0  0  0
  7  8  1  0  0  0  0
  7 17  1  0  0  0  0
  8  9  1  0  0  0  0
  8 10  1  0  0  0  0
  8 11  1  0  0  0  0
 11 12  1  0  0  0  0
 11 13  1  0  0  0  0
 11 14  1  0  0  0  0
 14 15  1  0  0  0  0
 14 16  1  0  0  0  0
 14 17  1  0  0  0  0
 17 18  1  0  0  0  0
 17 19  1  0  0  0  0
 19 20  2  0  0  0  0
 19 21  1  0  0  0  0
 21 22  1  0  0  0  0
 21 23  1  0  0  0  0
 23 24  1  0  0  0  0
 23 25  1  0  0  0  0
 23 26  1  0  0  0  0
M  END
$$$$

  -OEChem-01062216093D

 26 26  0     1  0  0  0  0  0999 V2000
   -1.7442   -3.9055   -0.8313 H   0  0  0  0  0  0  0  0  0  0  0  0
   -2.1247   -2.8912   -0.6850 C   0  0  0  0  0  0  0  0  0  0  0  0
   -2.4779   -2.7973    0.3453 H   0  0  0  0  0  0  0  0  0  0  0  0
   -2.9626   -2.7227   -1.3654 H   0  0  0  0  0  0  0  0  0  0  0  0
   -1.0190   -1.8796   -0.9567 C   0  0  0  0  0  0  0  0  0  0  0  0
   -0.2920   -2.0886   -1.9217 O   0  0  0  0  0  0  0  0  0  0  0  0
   -0.7810   -0.8509   -0.0363 N   0  0  0  0  0  0  0  0  0  0  0  0
   -1.8015    0.1097   -0.4667 C   0  0  0  0  0  0  0  0  0  0  0  0
   -2.1099    0.6881    0.4119 H   0  0  0  0  0  0  0  0  0  0  0  0
   -2.7228   -0.3228   -0.8791 H   0  0  0  0  0  0  0  0  0  0  0  0
   -1.1525    1.0590   -1.4977 C   0  0  0  0  0  0  0  0  0  0  0  0
   -1.6985    2.0006   -1.6130 H   0  0  0  0  0  0  0  0  0  0  0  0
   -1.0429    0.5787   -2.4760 H   0  0  0  0  0  0  0  0  0  0  0  0
    0.1708    1.2259   -0.8112 C   0  0  0  0  0  0  0  0  0  0  0  0
    0.0449    2.0265   -0.0703 H   0  0  0  0  0  0  0  0  0  0  0  0
    0.9433    1.5407   -1.5200 H   0  0  0  0  0  0  0  0  0  0  0  0
    0.5268   -0.1633   -0.1848 C   0  0  1  0  0  0  0  0  0  0  0  0
    1.2880   -0.7189   -0.7419 H   0  0  0  0  0  0  0  0  0  0  0  0
    1.0845    0.3483    1.1785 C   0  0  0  0  0  0  0  0  0  0  0  0
    0.6167   -0.0367    2.2437 O   0  0  0  0  0  0  0  0  0  0  0  0
    2.1231    1.2686    1.2305 N   0  0  0  0  0  0  0  0  0  0  0  0
    2.5454    1.5475    0.3502 H   0  0  0  0  0  0  0  0  0  0  0  0
    2.7048    1.7562    2.4757 C   0  0  0  0  0  0  0  0  0  0  0  0
    3.1186    0.9248    3.0560 H   0  0  0  0  0  0  0  0  0  0  0  0
    3.5105    2.4659    2.2648 H   0  0  0  0  0  0  0  0  0  0  0  0
    1.9458    2.2645    3.0796 H   0  0  0  0  0  0  0  0  0  0  0  0
  1  2  1  0  0  0  0
  2  3  1  0  0  0  0
  2  4  1  0  0  0  0
  2  5  1  0  0  0  0
  5  6  2  0  0  0  0
  5  7  1  0  0  0  0
  7  8  1  0  0  0  0
  7 17  1  0  0  0  0
  8  9  1  0  0  0  0
  8 10  1  0  0  0  0
  8 11  1  0  0  0  0
 11 12  1  0  0  0  0
 11 13  1  0  0  0  0
 11 14  1  0  0  0  0
 14 15  1  0  0  0  0
 14 16  1  0  0  0  0
 14 17  1  0  0  0  0
 17 18  1  0  0  0  0
 17 19  1  0  0  0  0
 19 20  2  0  0  0  0
 19 21  1  0  0  0  0
 21 22  1  0  0  0  0
 21 23  1  0  0  0  0
 23 24  1  0  0  0  0
 23 25  1  0  0  0  0
 23 26  1  0  0  0  0
M  END
$$$$

  -OEChem-01062216093D

 26 26  0     1  0  0  0  0  0999 V2000
   -1.6594   -3.8992   -0.7024 H   0  0  0  0  0  0  0  0  0  0  0  0
   -2.0982   -2.8981   -0.6923 C   0  0  0  0  0  0  0  0  0  0  0  0
   -2.5517   -2.7268    0.2874 H   0  0  0  0  0  0  0  0  0  0  0  0
   -2.8744   -2.8396   -1.4590 H   0  0  0  0  0  0  0  0  0  0  0  0
   -1.0179   -1.8600   -0.9644 C   0  0  0  0  0  0  0  0  0  0  0  0
   -0.3086   -2.0366   -1.9492 O   0  0  0  0  0  0  0  0  0  0  0  0
   -0.7849   -0.8426   -0.0288 N   0  0  0  0  0  0  0  0  0  0  0  0
   -1.8133    0.1074   -0.4642 C   0  0  0  0  0  0  0  0  0  0  0  0
   -2.1226    0.6897    0.4113 H   0  0  0  0  0  0  0  0  0  0  0  0
   -2.7350   -0.3329   -0.8685 H   0  0  0  0  0  0  0  0  0  0  0  0
   -1.1753    1.0549   -1.5042 C   0  0  0  0  0  0  0  0  0  0  0  0
   -1.7283    1.9917   -1.6249 H   0  0  0  0  0  0  0  0  0  0  0  0
   -1.0621    0.5706   -2.4800 H   0  0  0  0  0  0  0  0  0  0  0  0
    0.1450    1.2331   -0.8167 C   0  0  0  0  0  0  0  0  0  0  0  0
   -0.0076    2.0345   -0.0840 H   0  0  0  0  0  0  0  0  0  0  0  0
    0.9166    1.5571   -1.5224 H   0  0  0  0  0  0  0  0  0  0  0  0
    0.5211   -0.1490   -0.1775 C   0  0  1  0  0  0  0  0  0  0  0  0
    1.2833   -0.7002   -0.7378 H   0  0  0  0  0  0  0  0  0  0  0  0
    1.0803    0.3435    1.1978 C   0  0  0  0  0  0  0  0  0  0  0  0
    0.8157   -0.2742    2.2221 O   0  0  0  0  0  0  0  0  0  0  0  0
    1.8899    1.4656    1.3364 N   0  0  0  0  0  0  0  0  0  0  0  0
    2.1689    1.9470    0.4874 H   0  0  0  0  0  0  0  0  0  0  0  0
    2.4449    1.9110    2.6098 C   0  0  0  0  0  0  0  0  0  0  0  0
    3.0834    1.1338    3.0426 H   0  0  0  0  0  0  0  0  0  0  0  0
    3.0479    2.8123    2.4647 H   0  0  0  0  0  0  0  0  0  0  0  0
    1.6424    2.1435    3.3177 H   0  0  0  0  0  0  0  0  0  0  0  0
  1  2  1  0  0  0  0
  2  3  1  0  0  0  0
  2  4  1  0  0  0  0
  2  5  1  0  0  0  0
  5  6  2  0  0  0  0
  5  7  1  0  0  0  0
  7  8  1  0  0  0  0
  7 17  1  0  0  0  0
  8  9  1  0  0  0  0
  8 10  1  0  0  0  0
  8 11  1  0  0  0  0
 11 12  1  0  0  0  0
 11 13  1  0  0  0  0
 11 14  1  0  0  0  0
 14 15  1  0  0  0  0
 14 16  1  0  0  0  0
 14 17  1  0  0  0  0
 17 18  1  0  0  0  0
 17 19  1  0  0  0  0
 19 20  2  0  0  0  0
 19 21  1  0  0  0  0
 21 22  1  0  0  0  0
 21 23  1  0  0  0  0
 23 24  1  0  0  0  0
 23 25  1  0  0  0  0
 23 26  1  0  0  0  0
M  END
$$$$

  -OEChem-01062216093D

 26 26  0     1  0  0  0  0  0999 V2000
   -1.6421   -3.9040   -0.8293 H   0  0  0  0  0  0  0  0  0  0  0  0
   -2.0686   -2.9088   -0.6774 C   0  0  0  0  0  0  0  0  0  0  0  0
   -2.4107   -2.8315    0.3580 H   0  0  0  0  0  0  0  0  0  0  0  0
   -2.9233   -2.7809   -1.3457 H   0  0  0  0  0  0  0  0  0  0  0  0
   -1.0155   -1.8468   -0.9649 C   0  0  0  0  0  0  0  0  0  0  0  0
   -0.3211   -2.0034   -1.9639 O   0  0  0  0  0  0  0  0  0  0  0  0
   -0.7866   -0.8323   -0.0239 N   0  0  0  0  0  0  0  0  0  0  0  0
   -1.8171    0.1074   -0.4793 C   0  0  0  0  0  0  0  0  0  0  0  0
   -2.1266    0.7067    0.3846 H   0  0  0  0  0  0  0  0  0  0  0  0
   -2.7403   -0.3416   -0.8712 H   0  0  0  0  0  0  0  0  0  0  0  0
   -1.1841    1.0390   -1.5397 C   0  0  0  0  0  0  0  0  0  0  0  0
   -1.7448    1.9684   -1.6809 H   0  0  0  0  0  0  0  0  0  0  0  0
   -1.0631    0.5380   -2.5061 H   0  0  0  0  0  0  0  0  0  0  0  0
    0.1303    1.2401   -0.8484 C   0  0  0  0  0  0  0  0  0  0  0  0
   -0.0482    2.0566   -0.1427 H   0  0  0  0  0  0  0  0  0  0  0  0
    0.9066    1.5574   -1.5519 H   0  0  0  0  0  0  0  0  0  0  0  0
    0.5130   -0.1284   -0.1792 C   0  0  1  0  0  0  0  0  0  0  0  0
    1.2799   -0.6826   -0.7303 H   0  0  0  0  0  0  0  0  0  0  0  0
    1.0595    0.3497    1.2100 C   0  0  0  0  0  0  0  0  0  0  0  0
    1.0323   -0.4394    2.1464 O   0  0  0  0  0  0  0  0  0  0  0  0
    1.6034    1.6007    1.4847 N   0  0  0  0  0  0  0  0  0  0  0  0
    1.7024    2.2462    0.7078 H   0  0  0  0  0  0  0  0  0  0  0  0
    2.1421    1.9847    2.7854 C   0  0  0  0  0  0  0  0  0  0  0  0
    2.9820    1.3373    3.0585 H   0  0  0  0  0  0  0  0  0  0  0  0
    2.4978    3.0190    2.7570 H   0  0  0  0  0  0  0  0  0  0  0  0
    1.3705    1.9072    3.5588 H   0  0  0  0  0  0  0  0  0  0  0  0
  1  2  1  0  0  0  0
  2  3  1  0  0  0  0
  2  4  1  0  0  0  0
  2  5  1  0  0  0  0
  5  6  2  0  0  0  0
  5  7  1  0  0  0  0
  7  8  1  0  0  0  0
  7 17  1  0  0  0  0
  8  9  1  0  0  0  0
  8 10  1  0  0  0  0
  8 11  1  0  0  0  0
 11 12  1  0  0  0  0
 11 13  1  0  0  0  0
 11 14  1  0  0  0  0
 14 15  1  0  0  0  0
 14 16  1  0  0  0  0
 14 17  1  0  0  0  0
 17 18  1  0  0  0  0
 17 19  1  0  0  0  0
 19 20  2  0  0  0  0
 19 21  1  0  0  0  0
 21 22  1  0  0  0  0
 21 23  1  0  0  0  0
 23 24  1  0  0  0  0
 23 25  1  0  0  0  0
 23 26  1  0  0  0  0
M  END
$$$$

  -OEChem-01062216093D

 26 26  0     1  0  0  0  0  0999 V2000
   -1.5644   -3.8945   -0.6526 H   0  0  0  0  0  0  0  0  0  0  0  0
   -2.0471   -2.9142   -0.6774 C   0  0  0  0  0  0  0  0  0  0  0  0
   -2.5195   -2.7345    0.2917 H   0  0  0  0  0  0  0  0  0  0  0  0
   -2.8162   -2.9130   -1.4534 H   0  0  0  0  0  0  0  0  0  0  0  0
   -1.0099   -1.8385   -0.9704 C   0  0  0  0  0  0  0  0  0  0  0  0
   -0.3289   -1.9816   -1.9805 O   0  0  0  0  0  0  0  0  0  0  0  0
   -0.7758   -0.8314   -0.0221 N   0  0  0  0  0  0  0  0  0  0  0  0
   -1.8171    0.1002   -0.4736 C   0  0  0  0  0  0  0  0  0  0  0  0
   -2.1186    0.7051    0.3894 H   0  0  0  0  0  0  0  0  0  0  0  0
   -2.7445   -0.3564   -0.8479 H   0  0  0  0  0  0  0  0  0  0  0  0
   -1.2055    1.0297   -1.5528 C   0  0  0  0  0  0  0  0  0  0  0  0
   -1.7799    1.9496   -1.6996 H   0  0  0  0  0  0  0  0  0  0  0  0
   -1.0858    0.5210   -2.5151 H   0  0  0  0  0  0  0  0  0  0  0  0
    0.1106    1.2571   -0.8736 C   0  0  0  0  0  0  0  0  0  0  0  0
   -0.0712    2.0874   -0.1898 H   0  0  0  0  0  0  0  0  0  0  0  0
    0.8797    1.5675   -1.5881 H   0  0  0  0  0  0  0  0  0  0  0  0
    0.5067   -0.1036   -0.1960 C   0  0  1  0  0  0  0  0  0  0  0  0
    1.2775   -0.6512   -0.7488 H   0  0  0  0  0  0  0  0  0  0  0  0
    1.0448    0.3483    1.2069 C   0  0  0  0  0  0  0  0  0  0  0  0
    1.2850   -0.5375    2.0179 O   0  0  0  0  0  0  0  0  0  0  0  0
    1.3013    1.6437    1.6456 N   0  0  0  0  0  0  0  0  0  0  0  0
    1.1912    2.3957    0.9742 H   0  0  0  0  0  0  0  0  0  0  0  0
    1.8409    1.9627    2.9635 C   0  0  0  0  0  0  0  0  0  0  0  0
    2.8320    1.5149    3.0905 H   0  0  0  0  0  0  0  0  0  0  0  0
    1.9329    3.0465    3.0823 H   0  0  0  0  0  0  0  0  0  0  0  0
    1.1796    1.5852    3.7505 H   0  0  0  0  0  0  0  0  0  0  0  0
  1  2  1  0  0  0  0
  2  3  1  0  0  0  0
  2  4  1  0  0  0  0
  2  5  1  0  0  0  0
  5  6  2  0  0  0  0
  5  7  1  0  0  0  0
  7  8  1  0  0  0  0
  7 17  1  0  0  0  0
  8  9  1  0  0  0  0
  8 10  1  0  0  0  0
  8 11  1  0  0  0  0
 11 12  1  0  0  0  0
 11 13  1  0  0  0  0
 11 14  1  0  0  0  0
 14 15  1  0  0  0  0
 14 16  1  0  0  0  0
 14 17  1  0  0  0  0
 17 18  1  0  0  0  0
 17 19  1  0  0  0  0
 19 20  2  0  0  0  0
 19 21  1  0  0  0  0
 21 22  1  0  0  0  0
 21 23  1  0  0  0  0
 23 24  1  0  0  0  0
 23 25  1  0  0  0  0
 23 26  1  0  0  0  0
M  END
$$$$

  -OEChem-01062216093D

 26 26  0     1  0  0  0  0  0999 V2000
   -1.5404   -3.8982   -0.6531 H   0  0  0  0  0  0  0  0  0  0  0  0
   -2.0303   -2.9214   -0.6750 C   0  0  0  0  0  0  0  0  0  0  0  0
   -2.4973   -2.7441    0.2973 H   0  0  0  0  0  0  0  0  0  0  0  0
   -2.8051   -2.9264   -1.4456 H   0  0  0  0  0  0  0  0  0  0  0  0
   -1.0027   -1.8392   -0.9770 C   0  0  0  0  0  0  0  0  0  0  0  0
   -0.3378   -1.9716   -1.9987 O   0  0  0  0  0  0  0  0  0  0  0  0
   -0.7573   -0.8376   -0.0255 N   0  0  0  0  0  0  0  0  0  0  0  0
   -1.8035    0.0962   -0.4669 C   0  0  0  0  0  0  0  0  0  0  0  0
   -2.0947    0.7028    0.3984 H   0  0  0  0  0  0  0  0  0  0  0  0
   -2.7360   -0.3605   -0.8283 H   0  0  0  0  0  0  0  0  0  0  0  0
   -1.2065    1.0264   -1.5587 C   0  0  0  0  0  0  0  0  0  0  0  0
   -1.7901    1.9405   -1.7063 H   0  0  0  0  0  0  0  0  0  0  0  0
   -1.0905    0.5137   -2.5195 H   0  0  0  0  0  0  0  0  0  0  0  0
    0.1138    1.2719   -0.8933 C   0  0  0  0  0  0  0  0  0  0  0  0
   -0.0400    2.1189   -0.2274 H   0  0  0  0  0  0  0  0  0  0  0  0
    0.8751    1.5633   -1.6242 H   0  0  0  0  0  0  0  0  0  0  0  0
    0.5070   -0.0876   -0.2187 C   0  0  1  0  0  0  0  0  0  0  0  0
    1.2812   -0.6294   -0.7731 H   0  0  0  0  0  0  0  0  0  0  0  0
    1.0302    0.3341    1.1980 C   0  0  0  0  0  0  0  0  0  0  0  0
    1.5586   -0.5490    1.8615 O   0  0  0  0  0  0  0  0  0  0  0  0
    0.9998    1.5896    1.7974 N   0  0  0  0  0  0  0  0  0  0  0  0
    0.5596    2.3468    1.2883 H   0  0  0  0  0  0  0  0  0  0  0  0
    1.5314    1.8672    3.1279 C   0  0  0  0  0  0  0  0  0  0  0  0
    2.6006    1.6337    3.1707 H   0  0  0  0  0  0  0  0  0  0  0  0
    1.4001    2.9251    3.3742 H   0  0  0  0  0  0  0  0  0  0  0  0
    1.0088    1.2693    3.8820 H   0  0  0  0  0  0  0  0  0  0  0  0
  1  2  1  0  0  0  0
  2  3  1  0  0  0  0
  2  4  1  0  0  0  0
  2  5  1  0  0  0  0
  5  6  2  0  0  0  0
  5  7  1  0  0  0  0
  7  8  1  0  0  0  0
  7 17  1  0  0  0  0
  8  9  1  0  0  0  0
  8 10  1  0  0  0  0
  8 11  1  0  0  0  0
 11 12  1  0  0  0  0
 11 13  1  0  0  0  0
 11 14  1  0  0  0  0
 14 15  1  0  0  0  0
 14 16  1  0  0  0  0
 14 17  1  0  0  0  0
 17 18  1  0  0  0  0
 17 19  1  0  0  0  0
 19 20  2  0  0  0  0
 19 21  1  0  0  0  0
 21 22  1  0  0  0  0
 21 23  1  0  0  0  0
 23 24  1  0  0  0  0
 23 25  1  0  0  0  0
 23 26  1  0  0  0  0
M  END
$$$$

  -OEChem-01062216093D

 26 26  0     1  0  0  0  0  0999 V2000
   -1.5275   -3.9046   -0.6516 H   0  0  0  0  0  0  0  0  0  0  0  0
   -2.0238   -2.9313   -0.6858 C   0  0  0  0  0  0  0  0  0  0  0  0
   -2.4987   -2.7479    0.2813 H   0  0  0  0  0  0  0  0  0  0  0  0
   -2.7931   -2.9486   -1.4617 H   0  0  0  0  0  0  0  0  0  0  0  0
   -1.0014   -1.8456   -0.9915 C   0  0  0  0  0  0  0  0  0  0  0  0
   -0.3546   -1.9622   -2.0261 O   0  0  0  0  0  0  0  0  0  0  0  0
   -0.7424   -0.8541   -0.0338 N   0  0  0  0  0  0  0  0  0  0  0  0
   -1.7883    0.0939   -0.4502 C   0  0  0  0  0  0  0  0  0  0  0  0
   -2.0696    0.6880    0.4267 H   0  0  0  0  0  0  0  0  0  0  0  0
   -2.7249   -0.3547   -0.8110 H   0  0  0  0  0  0  0  0  0  0  0  0
   -1.1976    1.0394   -1.5346 C   0  0  0  0  0  0  0  0  0  0  0  0
   -1.7823    1.9551   -1.6655 H   0  0  0  0  0  0  0  0  0  0  0  0
   -1.0908    0.5392   -2.5030 H   0  0  0  0  0  0  0  0  0  0  0  0
    0.1308    1.2797   -0.8816 C   0  0  0  0  0  0  0  0  0  0  0  0
    0.0207    2.1296   -0.2089 H   0  0  0  0  0  0  0  0  0  0  0  0
    0.8834    1.5598   -1.6259 H   0  0  0  0  0  0  0  0  0  0  0  0
    0.5113   -0.0928   -0.2353 C   0  0  1  0  0  0  0  0  0  0  0  0
    1.2846   -0.6274   -0.7983 H   0  0  0  0  0  0  0  0  0  0  0  0
    1.0254    0.2980    1.1896 C   0  0  0  0  0  0  0  0  0  0  0  0
    1.8138   -0.4755    1.7175 O   0  0  0  0  0  0  0  0  0  0  0  0
    0.7234    1.4460    1.9138 N   0  0  0  0  0  0  0  0  0  0  0  0
    0.0069    2.0574    1.5383 H   0  0  0  0  0  0  0  0  0  0  0  0
    1.2378    1.7159    3.2523 C   0  0  0  0  0  0  0  0  0  0  0  0
    2.3318    1.7634    3.2398 H   0  0  0  0  0  0  0  0  0  0  0  0
    0.8559    2.6736    3.6184 H   0  0  0  0  0  0  0  0  0  0  0  0
    0.9268    0.9301    3.9488 H   0  0  0  0  0  0  0  0  0  0  0  0
  1  2  1  0  0  0  0
  2  3  1  0  0  0  0
  2  4  1  0  0  0  0
  2  5  1  0  0  0  0
  5  6  2  0  0  0  0
  5  7  1  0  0  0  0
  7  8  1  0  0  0  0
  7 17  1  0  0  0  0
  8  9  1  0  0  0  0
  8 10  1  0  0  0  0
  8 11  1  0  0  0  0
 11 12  1  0  0  0  0
 11 13  1  0  0  0  0
 11 14  1  0  0  0  0
 14 15  1  0  0  0  0
 14 16  1  0  0  0  0
 14 17  1  0  0  0  0
 17 18  1  0  0  0  0
 17 19  1  0  0  0  0
 19 20  2  0  0  0  0
 19 21  1  0  0  0  0
 21 22  1  0  0  0  0
 21 23  1  0  0  0  0
 23 24  1  0  0  0  0
 23 25  1  0  0  0  0
 23 26  1  0  0  0  0
M  END
$$$$

  -OEChem-01062216093D

 26 26  0     1  0  0  0  0  0999 V2000
   -1.5177   -3.9252   -0.7010 H   0  0  0  0  0  0  0  0  0  0  0  0
   -2.0163   -2.9527   -0.7245 C   0  0  0  0  0  0  0  0  0  0  0  0
   -2.4942   -2.7821    0.2435 H   0  0  0  0  0  0  0  0  0  0  0  0
   -2.7839   -2.9628   -1.5023 H   0  0  0  0  0  0  0  0  0  0  0  0
   -0.9964   -1.8610   -1.0160 C   0  0  0  0  0  0  0  0  0  0  0  0
   -0.3558   -1.9571   -2.0560 O   0  0  0  0  0  0  0  0  0  0  0  0
   -0.7363   -0.8826   -0.0455 N   0  0  0  0  0  0  0  0  0  0  0  0
   -1.7852    0.0761   -0.4321 C   0  0  0  0  0  0  0  0  0  0  0  0
   -2.0676    0.6452    0.4605 H   0  0  0  0  0  0  0  0  0  0  0  0
   -2.7198   -0.3653   -0.8058 H   0  0  0  0  0  0  0  0  0  0  0  0
   -1.1968    1.0508   -1.4909 C   0  0  0  0  0  0  0  0  0  0  0  0
   -1.7807    1.9708   -1.5940 H   0  0  0  0  0  0  0  0  0  0  0  0
   -1.0968    0.5763   -2.4730 H   0  0  0  0  0  0  0  0  0  0  0  0
    0.1381    1.2744   -0.8427 C   0  0  0  0  0  0  0  0  0  0  0  0
    0.0518    2.1056   -0.1407 H   0  0  0  0  0  0  0  0  0  0  0  0
    0.8845    1.5680   -1.5881 H   0  0  0  0  0  0  0  0  0  0  0  0
    0.5139   -0.1149   -0.2395 C   0  0  1  0  0  0  0  0  0  0  0  0
    1.2853   -0.6362   -0.8176 H   0  0  0  0  0  0  0  0  0  0  0  0
    1.0327    0.2596    1.1834 C   0  0  0  0  0  0  0  0  0  0  0  0
    2.0260   -0.3252    1.5945 O   0  0  0  0  0  0  0  0  0  0  0  0
    0.4961    1.2393    2.0103 N   0  0  0  0  0  0  0  0  0  0  0  0
   -0.3811    1.6564    1.7181 H   0  0  0  0  0  0  0  0  0  0  0  0
    0.9969    1.5267    3.3496 C   0  0  0  0  0  0  0  0  0  0  0  0
    2.0443    1.8437    3.3073 H   0  0  0  0  0  0  0  0  0  0  0  0
    0.4124    2.3302    3.8077 H   0  0  0  0  0  0  0  0  0  0  0  0
    0.9226    0.6381    3.9852 H   0  0  0  0  0  0  0  0  0  0  0  0
  1  2  1  0  0  0  0
  2  3  1  0  0  0  0
  2  4  1  0  0  0  0
  2  5  1  0  0  0  0
  5  6  2  0  0  0  0
  5  7  1  0  0  0  0
  7  8  1  0  0  0  0
  7 17  1  0  0  0  0
  8  9  1  0  0  0  0
  8 10  1  0  0  0  0
  8 11  1  0  0  0  0
 11 12  1  0  0  0  0
 11 13  1  0  0  0  0
 11 14  1  0  0  0  0
 14 15  1  0  0  0  0
 14 16  1  0  0  0  0
 14 17  1  0  0  0  0
 17 18  1  0  0  0  0
 17 19  1  0  0  0  0
 19 20  2  0  0  0  0
 19 21  1  0  0  0  0
 21 22  1  0  0  0  0
 21 23  1  0  0  0  0
 23 24  1  0  0  0  0
 23 25  1  0  0  0  0
 23 26  1  0  0  0  0
M  END
$$$$

  -OEChem-01062216093D

 26 26  0     1  0  0  0  0  0999 V2000
   -1.5329   -3.9477   -0.7762 H   0  0  0  0  0  0  0  0  0  0  0  0
   -2.0239   -2.9711   -0.7840 C   0  0  0  0  0  0  0  0  0  0  0  0
   -2.5055   -2.8148    0.1846 H   0  0  0  0  0  0  0  0  0  0  0  0
   -2.7873   -2.9607   -1.5658 H   0  0  0  0  0  0  0  0  0  0  0  0
   -0.9939   -1.8823   -1.0497 C   0  0  0  0  0  0  0  0  0  0  0  0
   -0.3439   -1.9666   -2.0844 O   0  0  0  0  0  0  0  0  0  0  0  0
   -0.7385   -0.9184   -0.0639 N   0  0  0  0  0  0  0  0  0  0  0  0
   -1.7913    0.0472   -0.4238 C   0  0  0  0  0  0  0  0  0  0  0  0
   -2.0853    0.5850    0.4840 H   0  0  0  0  0  0  0  0  0  0  0  0
   -2.7193   -0.3866   -0.8222 H   0  0  0  0  0  0  0  0  0  0  0  0
   -1.1988    1.0566   -1.4434 C   0  0  0  0  0  0  0  0  0  0  0  0
   -1.7809    1.9807   -1.5159 H   0  0  0  0  0  0  0  0  0  0  0  0
   -1.0989    0.6145   -2.4407 H   0  0  0  0  0  0  0  0  0  0  0  0
    0.1390    1.2574   -0.7918 C   0  0  0  0  0  0  0  0  0  0  0  0
    0.0561    2.0549   -0.0480 H   0  0  0  0  0  0  0  0  0  0  0  0
    0.8837    1.5827   -1.5256 H   0  0  0  0  0  0  0  0  0  0  0  0
    0.5152   -0.1488   -0.2377 C   0  0  1  0  0  0  0  0  0  0  0  0
    1.2842   -0.6537   -0.8337 H   0  0  0  0  0  0  0  0  0  0  0  0
    1.0502    0.2218    1.1752 C   0  0  0  0  0  0  0  0  0  0  0  0
    2.1902   -0.1098    1.4710 O   0  0  0  0  0  0  0  0  0  0  0  0
    0.3403    0.9800    2.0972 N   0  0  0  0  0  0  0  0  0  0  0  0
   -0.6359    1.1571    1.8851 H   0  0  0  0  0  0  0  0  0  0  0  0
    0.8412    1.3026    3.4280 C   0  0  0  0  0  0  0  0  0  0  0  0
    1.7860    1.8523    3.3593 H   0  0  0  0  0  0  0  0  0  0  0  0
    0.1192    1.9268    3.9630 H   0  0  0  0  0  0  0  0  0  0  0  0
    1.0066    0.3880    4.0072 H   0  0  0  0  0  0  0  0  0  0  0  0
  1  2  1  0  0  0  0
  2  3  1  0  0  0  0
  2  4  1  0  0  0  0
  2  5  1  0  0  0  0
  5  6  2  0  0  0  0
  5  7  1  0  0  0  0
  7  8  1  0  0  0  0
  7 17  1  0  0  0  0
  8  9  1  0  0  0  0
  8 10  1  0  0  0  0
  8 11  1  0  0  0  0
 11 12  1  0  0  0  0
 11 13  1  0  0  0  0
 11 14  1  0  0  0  0
 14 15  1  0  0  0  0
 14 16  1  0  0  0  0
 14 17  1  0  0  0  0
 17 18  1  0  0  0  0
 17 19  1  0  0  0  0
 19 20  2  0  0  0  0
 19 21  1  0  0  0  0
 21 22  1  0  0  0  0
 21 23  1  0  0  0  0
 23 24  1  0  0  0  0
 23 25  1  0  0  0  0
 23 26  1  0  0  0  0
M  END
$$$$

  -OEChem-01062216093D

 26 26  0     1  0  0  0  0  0999 V2000
   -1.5570   -3.9621   -0.8225 H   0  0  0  0  0  0  0  0  0  0  0  0
   -2.0373   -2.9802   -0.8356 C   0  0  0  0  0  0  0  0  0  0  0  0
   -2.5349   -2.8224    0.1246 H   0  0  0  0  0  0  0  0  0  0  0  0
   -2.7866   -2.9592   -1.6309 H   0  0  0  0  0  0  0  0  0  0  0  0
   -0.9913   -1.9011   -1.0798 C   0  0  0  0  0  0  0  0  0  0  0  0
   -0.3279   -1.9873   -2.1051 O   0  0  0  0  0  0  0  0  0  0  0  0
   -0.7373   -0.9455   -0.0855 N   0  0  0  0  0  0  0  0  0  0  0  0
   -1.7944    0.0247   -0.4200 C   0  0  0  0  0  0  0  0  0  0  0  0
   -2.0947    0.5368    0.5005 H   0  0  0  0  0  0  0  0  0  0  0  0
   -2.7176   -0.4020   -0.8361 H   0  0  0  0  0  0  0  0  0  0  0  0
   -1.2017    1.0606   -1.4076 C   0  0  0  0  0  0  0  0  0  0  0  0
   -1.7809    1.9881   -1.4511 H   0  0  0  0  0  0  0  0  0  0  0  0
   -1.1071    0.6461   -2.4171 H   0  0  0  0  0  0  0  0  0  0  0  0
    0.1408    1.2394   -0.7590 C   0  0  0  0  0  0  0  0  0  0  0  0
    0.0581    2.0050    0.0209 H   0  0  0  0  0  0  0  0  0  0  0  0
    0.8820    1.5936   -1.4830 H   0  0  0  0  0  0  0  0  0  0  0  0
    0.5225   -0.1792   -0.2465 C   0  0  1  0  0  0  0  0  0  0  0  0
    1.2867   -0.6706   -0.8591 H   0  0  0  0  0  0  0  0  0  0  0  0
    1.0782    0.1970    1.1524 C   0  0  0  0  0  0  0  0  0  0  0  0
    2.2846    0.1449    1.3492 O   0  0  0  0  0  0  0  0  0  0  0  0
    0.2664    0.6956    2.1606 N   0  0  0  0  0  0  0  0  0  0  0  0
   -0.7340    0.6111    2.0123 H   0  0  0  0  0  0  0  0  0  0  0  0
    0.7560    1.0250    3.4934 C   0  0  0  0  0  0  0  0  0  0  0  0
    1.5440    1.7834    3.4360 H   0  0  0  0  0  0  0  0  0  0  0  0
   -0.0583    1.4213    4.1076 H   0  0  0  0  0  0  0  0  0  0  0  0
    1.1601    0.1334    3.9842 H   0  0  0  0  0  0  0  0  0  0  0  0
  1  2  1  0  0  0  0
  2  3  1  0  0  0  0
  2  4  1  0  0  0  0
  2  5  1  0  0  0  0
  5  6  2  0  0  0  0
  5  7  1  0  0  0  0
  7  8  1  0  0  0  0
  7 17  1  0  0  0  0
  8  9  1  0  0  0  0
  8 10  1  0  0  0  0
  8 11  1  0  0  0  0
 11 12  1  0  0  0  0
 11 13  1  0  0  0  0
 11 14  1  0  0  0  0
 14 15  1  0  0  0  0
 14 16  1  0  0  0  0
 14 17  1  0  0  0  0
 17 18  1  0  0  0  0
 17 19  1  0  0  0  0
 19 20  2  0  0  0  0
 19 21  1  0  0  0  0
 21 22  1  0  0  0  0
 21 23  1  0  0  0  0
 23 24  1  0  0  0  0
 23 25  1  0  0  0  0
 23 26  1  0  0  0  0
M  END
$$$$

  -OEChem-01062216093D

 26 26  0     1  0  0  0  0  0999 V2000
   -1.6698   -3.9676   -1.1475 H   0  0  0  0  0  0  0  0  0  0  0  0
   -2.0580   -2.9811   -0.8800 C   0  0  0  0  0  0  0  0  0  0  0  0
   -2.3598   -2.9991    0.1702 H   0  0  0  0  0  0  0  0  0  0  0  0
   -2.9321   -2.7640   -1.4986 H   0  0  0  0  0  0  0  0  0  0  0  0
   -0.9840   -1.9246   -1.1037 C   0  0  0  0  0  0  0  0  0  0  0  0
   -0.2899   -2.0366   -2.1057 O   0  0  0  0  0  0  0  0  0  0  0  0
   -0.7344   -0.9687   -0.1083 N   0  0  0  0  0  0  0  0  0  0  0  0
   -1.7901    0.0052   -0.4304 C   0  0  0  0  0  0  0  0  0  0  0  0
   -2.0908    0.5053    0.4968 H   0  0  0  0  0  0  0  0  0  0  0  0
   -2.7120   -0.4143   -0.8548 H   0  0  0  0  0  0  0  0  0  0  0  0
   -1.1945    1.0533   -1.3998 C   0  0  0  0  0  0  0  0  0  0  0  0
   -1.7695    1.9841   -1.4274 H   0  0  0  0  0  0  0  0  0  0  0  0
   -1.1019    0.6542   -2.4158 H   0  0  0  0  0  0  0  0  0  0  0  0
    0.1490    1.2152   -0.7492 C   0  0  0  0  0  0  0  0  0  0  0  0
    0.0596    1.9608    0.0512 H   0  0  0  0  0  0  0  0  0  0  0  0
    0.8918    1.5873   -1.4624 H   0  0  0  0  0  0  0  0  0  0  0  0
    0.5337   -0.2100   -0.2574 C   0  0  1  0  0  0  0  0  0  0  0  0
    1.2973   -0.6953   -0.8754 H   0  0  0  0  0  0  0  0  0  0  0  0
    1.0987    0.1796    1.1318 C   0  0  0  0  0  0  0  0  0  0  0  0
    2.2971    0.3899    1.2630 O   0  0  0  0  0  0  0  0  0  0  0  0
    0.2598    0.4009    2.2119 N   0  0  0  0  0  0  0  0  0  0  0  0
   -0.7044    0.1044    2.0948 H   0  0  0  0  0  0  0  0  0  0  0  0
    0.7420    0.7337    3.5463 C   0  0  0  0  0  0  0  0  0  0  0  0
    1.3169    1.6655    3.5248 H   0  0  0  0  0  0  0  0  0  0  0  0
   -0.1012    0.8655    4.2311 H   0  0  0  0  0  0  0  0  0  0  0  0
    1.3819   -0.0665    3.9327 H   0  0  0  0  0  0  0  0  0  0  0  0
  1  2  1  0  0  0  0
  2  3  1  0  0  0  0
  2  4  1  0  0  0  0
  2  5  1  0  0  0  0
  5  6  2  0  0  0  0
  5  7  1  0  0  0  0
  7  8  1  0  0  0  0
  7 17  1  0  0  0  0
  8  9  1  0  0  0  0
  8 10  1  0  0  0  0
  8 11  1  0  0  0  0
 11 12  1  0  0  0  0
 11 13  1  0  0  0  0
 11 14  1  0  0  0  0
 14 15  1  0  0  0  0
 14 16  1  0  0  0  0
 14 17  1  0  0  0  0
 17 18  1  0  0  0  0
 17 19  1  0  0  0  0
 19 20  2  0  0  0  0
 19 21  1  0  0  0  0
 21 22  1  0  0  0  0
 21 23  1  0  0  0  0
 23 24  1  0  0  0  0
 23 25  1  0  0  0  0
 23 26  1  0  0  0  0
M  END
$$$$

  -OEChem-01062216093D

 26 26  0     1  0  0  0  0  0999 V2000
   -1.6871   -3.9677   -1.1187 H   0  0  0  0  0  0  0  0  0  0  0  0
   -2.0811   -2.9682   -0.9160 C   0  0  0  0  0  0  0  0  0  0  0  0
   -2.4390   -2.9382    0.1162 H   0  0  0  0  0  0  0  0  0  0  0  0
   -2.9189   -2.7731   -1.5897 H   0  0  0  0  0  0  0  0  0  0  0  0
   -0.9875   -1.9294   -1.1289 C   0  0  0  0  0  0  0  0  0  0  0  0
   -0.2778   -2.0642   -2.1166 O   0  0  0  0  0  0  0  0  0  0  0  0
   -0.7304   -0.9761   -0.1327 N   0  0  0  0  0  0  0  0  0  0  0  0
   -1.7902   -0.0015   -0.4327 C   0  0  0  0  0  0  0  0  0  0  0  0
   -2.0794    0.4877    0.5041 H   0  0  0  0  0  0  0  0  0  0  0  0
   -2.7162   -0.4168   -0.8522 H   0  0  0  0  0  0  0  0  0  0  0  0
   -1.2056    1.0568   -1.3958 C   0  0  0  0  0  0  0  0  0  0  0  0
   -1.7798    1.9886   -1.4056 H   0  0  0  0  0  0  0  0  0  0  0  0
   -1.1244    0.6696   -2.4174 H   0  0  0  0  0  0  0  0  0  0  0  0
    0.1447    1.2085   -0.7577 C   0  0  0  0  0  0  0  0  0  0  0  0
    0.0589    1.9419    0.0552 H   0  0  0  0  0  0  0  0  0  0  0  0
    0.8799    1.5936   -1.4720 H   0  0  0  0  0  0  0  0  0  0  0  0
    0.5411   -0.2210   -0.2848 C   0  0  1  0  0  0  0  0  0  0  0  0
    1.2993   -0.6990   -0.9144 H   0  0  0  0  0  0  0  0  0  0  0  0
    1.1224    0.1704    1.0974 C   0  0  0  0  0  0  0  0  0  0  0  0
    2.2655    0.6004    1.1860 O   0  0  0  0  0  0  0  0  0  0  0  0
    0.3432    0.0982    2.2392 N   0  0  0  0  0  0  0  0  0  0  0  0
   -0.5597   -0.3561    2.1340 H   0  0  0  0  0  0  0  0  0  0  0  0
    0.8410    0.3969    3.5757 C   0  0  0  0  0  0  0  0  0  0  0  0
    1.2249    1.4214    3.6215 H   0  0  0  0  0  0  0  0  0  0  0  0
    0.0358    0.2980    4.3098 H   0  0  0  0  0  0  0  0  0  0  0  0
    1.6461   -0.2938    3.8472 H   0  0  0  0  0  0  0  0  0  0  0  0
  1  2  1  0  0  0  0
  2  3  1  0  0  0  0
  2  4  1  0  0  0  0
  2  5  1  0  0  0  0
  5  6  2  0  0  0  0
  5  7  1  0  0  0  0
  7  8  1  0  0  0  0
  7 17  1  0  0  0  0
  8  9  1  0  0  0  0
  8 10  1  0  0  0  0
  8 11  1  0  0  0  0
 11 12  1  0  0  0  0
 11 13  1  0  0  0  0
 11 14  1  0  0  0  0
 14 15  1  0  0  0  0
 14 16  1  0  0  0  0
 14 17  1  0  0  0  0
 17 18  1  0  0  0  0
 17 19  1  0  0  0  0
 19 20  2  0  0  0  0
 19 21  1  0  0  0  0
 21 22  1  0  0  0  0
 21 23  1  0  0  0  0
 23 24  1  0  0  0  0
 23 25  1  0  0  0  0
 23 26  1  0  0  0  0
M  END
$$$$

  -OEChem-01062216093D

 26 26  0     1  0  0  0  0  0999 V2000
   -1.7328   -3.9515   -1.1733 H   0  0  0  0  0  0  0  0  0  0  0  0
   -2.1013   -2.9503   -0.9335 C   0  0  0  0  0  0  0  0  0  0  0  0
   -2.4337   -2.9424    0.1076 H   0  0  0  0  0  0  0  0  0  0  0  0
   -2.9511   -2.7209   -1.5810 H   0  0  0  0  0  0  0  0  0  0  0  0
   -0.9926   -1.9262   -1.1443 C   0  0  0  0  0  0  0  0  0  0  0  0
   -0.2696   -2.0861   -2.1185 O   0  0  0  0  0  0  0  0  0  0  0  0
   -0.7272   -0.9719   -0.1507 N   0  0  0  0  0  0  0  0  0  0  0  0
   -1.7890    0.0019   -0.4410 C   0  0  0  0  0  0  0  0  0  0  0  0
   -2.0671    0.4916    0.4991 H   0  0  0  0  0  0  0  0  0  0  0  0
   -2.7200   -0.4119   -0.8499 H   0  0  0  0  0  0  0  0  0  0  0  0
   -1.2144    1.0593   -1.4106 C   0  0  0  0  0  0  0  0  0  0  0  0
   -1.7886    1.9910   -1.4162 H   0  0  0  0  0  0  0  0  0  0  0  0
   -1.1415    0.6709   -2.4323 H   0  0  0  0  0  0  0  0  0  0  0  0
    0.1402    1.2091   -0.7830 C   0  0  0  0  0  0  0  0  0  0  0  0
    0.0564    1.9409    0.0316 H   0  0  0  0  0  0  0  0  0  0  0  0
    0.8693    1.5978   -1.5014 H   0  0  0  0  0  0  0  0  0  0  0  0
    0.5464   -0.2199   -0.3108 C   0  0  1  0  0  0  0  0  0  0  0  0
    1.3006   -0.6975   -0.9454 H   0  0  0  0  0  0  0  0  0  0  0  0
    1.1387    0.1733    1.0684 C   0  0  0  0  0  0  0  0  0  0  0  0
    2.1998    0.7817    1.1441 O   0  0  0  0  0  0  0  0  0  0  0  0
    0.4867   -0.1788    2.2368 N   0  0  0  0  0  0  0  0  0  0  0  0
   -0.3432   -0.7557    2.1295 H   0  0  0  0  0  0  0  0  0  0  0  0
    1.0196    0.0700    3.5699 C   0  0  0  0  0  0  0  0  0  0  0  0
    1.2194    1.1376    3.7100 H   0  0  0  0  0  0  0  0  0  0  0  0
    0.2997   -0.2476    4.3301 H   0  0  0  0  0  0  0  0  0  0  0  0
    1.9511   -0.4859    3.7192 H   0  0  0  0  0  0  0  0  0  0  0  0
  1  2  1  0  0  0  0
  2  3  1  0  0  0  0
  2  4  1  0  0  0  0
  2  5  1  0  0  0  0
  5  6  2  0  0  0  0
  5  7  1  0  0  0  0
  7  8  1  0  0  0  0
  7 17  1  0  0  0  0
  8  9  1  0  0  0  0
  8 10  1  0  0  0  0
  8 11  1  0  0  0  0
 11 12  1  0  0  0  0
 11 13  1  0  0  0  0
 11 14  1  0  0  0  0
 14 15  1  0  0  0  0
 14 16  1  0  0  0  0
 14 17  1  0  0  0  0
 17 18  1  0  0  0  0
 17 19  1  0  0  0  0
 19 20  2  0  0  0  0
 19 21  1  0  0  0  0
 21 22  1  0  0  0  0
 21 23  1  0  0  0  0
 23 24  1  0  0  0  0
 23 25  1  0  0  0  0
 23 26  1  0  0  0  0
M  END
$$$$

  -OEChem-01062216093D

 26 26  0     1  0  0  0  0  0999 V2000
   -1.7546   -3.9344   -1.1596 H   0  0  0  0  0  0  0  0  0  0  0  0
   -2.1187   -2.9280   -0.9354 C   0  0  0  0  0  0  0  0  0  0  0  0
   -2.4598   -2.9049    0.1025 H   0  0  0  0  0  0  0  0  0  0  0  0
   -2.9613   -2.7015   -1.5931 H   0  0  0  0  0  0  0  0  0  0  0  0
   -1.0019   -1.9133   -1.1500 C   0  0  0  0  0  0  0  0  0  0  0  0
   -0.2744   -2.0921   -2.1174 O   0  0  0  0  0  0  0  0  0  0  0  0
   -0.7256   -0.9577   -0.1598 N   0  0  0  0  0  0  0  0  0  0  0  0
   -1.7895    0.0145   -0.4444 C   0  0  0  0  0  0  0  0  0  0  0  0
   -2.0529    0.5109    0.4965 H   0  0  0  0  0  0  0  0  0  0  0  0
   -2.7276   -0.3997   -0.8360 H   0  0  0  0  0  0  0  0  0  0  0  0
   -1.2265    1.0645   -1.4291 C   0  0  0  0  0  0  0  0  0  0  0  0
   -1.8000    1.9966   -1.4358 H   0  0  0  0  0  0  0  0  0  0  0  0
   -1.1635    0.6683   -2.4484 H   0  0  0  0  0  0  0  0  0  0  0  0
    0.1332    1.2165   -0.8142 C   0  0  0  0  0  0  0  0  0  0  0  0
    0.0511    1.9526   -0.0034 H   0  0  0  0  0  0  0  0  0  0  0  0
    0.8566    1.6031   -1.5395 H   0  0  0  0  0  0  0  0  0  0  0  0
    0.5486   -0.2095   -0.3342 C   0  0  1  0  0  0  0  0  0  0  0  0
    1.2969   -0.6901   -0.9729 H   0  0  0  0  0  0  0  0  0  0  0  0
    1.1517    0.1823    1.0432 C   0  0  0  0  0  0  0  0  0  0  0  0
    2.1133    0.9390    1.1285 O   0  0  0  0  0  0  0  0  0  0  0  0
    0.6852   -0.4222    2.1970 N   0  0  0  0  0  0  0  0  0  0  0  0
   -0.0599   -1.1033    2.0776 H   0  0  0  0  0  0  0  0  0  0  0  0
    1.2719   -0.2233    3.5162 C   0  0  0  0  0  0  0  0  0  0  0  0
    1.2863    0.8410    3.7734 H   0  0  0  0  0  0  0  0  0  0  0  0
    0.6863   -0.7523    4.2740 H   0  0  0  0  0  0  0  0  0  0  0  0
    2.2975   -0.6059    3.5400 H   0  0  0  0  0  0  0  0  0  0  0  0
  1  2  1  0  0  0  0
  2  3  1  0  0  0  0
  2  4  1  0  0  0  0
  2  5  1  0  0  0  0
  5  6  2  0  0  0  0
  5  7  1  0  0  0  0
  7  8  1  0  0  0  0
  7 17  1  0  0  0  0
  8  9  1  0  0  0  0
  8 10  1  0  0  0  0
  8 11  1  0  0  0  0
 11 12  1  0  0  0  0
 11 13  1  0  0  0  0
 11 14  1  0  0  0  0
 14 15  1  0  0  0  0
 14 16  1  0  0  0  0
 14 17  1  0  0  0  0
 17 18  1  0  0  0  0
 17 19  1  0  0  0  0
 19 20  2  0  0  0  0
 19 21  1  0  0  0  0
 21 22  1  0  0  0  0
 21 23  1  0  0  0  0
 23 24  1  0  0  0  0
 23 25  1  0  0  0  0
 23 26  1  0  0  0  0
M  END
$$$$

  -OEChem-01062216093D

 26 26  0     1  0  0  0  0  0999 V2000
   -1.7505   -3.9183   -1.0827 H   0  0  0  0  0  0  0  0  0  0  0  0
   -2.1286   -2.9053   -0.9201 C   0  0  0  0  0  0  0  0  0  0  0  0
   -2.5059   -2.8350    0.1033 H   0  0  0  0  0  0  0  0  0  0  0  0
   -2.9496   -2.7171   -1.6164 H   0  0  0  0  0  0  0  0  0  0  0  0
   -1.0114   -1.8934   -1.1465 C   0  0  0  0  0  0  0  0  0  0  0  0
   -0.2872   -2.0842   -2.1142 O   0  0  0  0  0  0  0  0  0  0  0  0
   -0.7228   -0.9369   -0.1604 N   0  0  0  0  0  0  0  0  0  0  0  0
   -1.7906    0.0311   -0.4434 C   0  0  0  0  0  0  0  0  0  0  0  0
   -2.0430    0.5375    0.4953 H   0  0  0  0  0  0  0  0  0  0  0  0
   -2.7342   -0.3865   -0.8182 H   0  0  0  0  0  0  0  0  0  0  0  0
   -1.2410    1.0717   -1.4462 C   0  0  0  0  0  0  0  0  0  0  0  0
   -1.8158    2.0031   -1.4555 H   0  0  0  0  0  0  0  0  0  0  0  0
   -1.1876    0.6657   -2.4622 H   0  0  0  0  0  0  0  0  0  0  0  0
    0.1230    1.2302   -0.8445 C   0  0  0  0  0  0  0  0  0  0  0  0
    0.0371    1.9725   -0.0405 H   0  0  0  0  0  0  0  0  0  0  0  0
    0.8401    1.6156   -1.5766 H   0  0  0  0  0  0  0  0  0  0  0  0
    0.5500   -0.1904   -0.3519 C   0  0  1  0  0  0  0  0  0  0  0  0
    1.2926   -0.6754   -0.9939 H   0  0  0  0  0  0  0  0  0  0  0  0
    1.1634    0.1973    1.0248 C   0  0  0  0  0  0  0  0  0  0  0  0
    2.0062    1.0820    1.1440 O   0  0  0  0  0  0  0  0  0  0  0  0
    0.9286   -0.6197    2.1162 N   0  0  0  0  0  0  0  0  0  0  0  0
    0.2798   -1.3888    1.9730 H   0  0  0  0  0  0  0  0  0  0  0  0
    1.5751   -0.4584    3.4126 C   0  0  0  0  0  0  0  0  0  0  0  0
    1.3814    0.5407    3.8169 H   0  0  0  0  0  0  0  0  0  0  0  0
    1.1898   -1.1977    4.1212 H   0  0  0  0  0  0  0  0  0  0  0  0
    2.6572   -0.5980    3.3199 H   0  0  0  0  0  0  0  0  0  0  0  0
  1  2  1  0  0  0  0
  2  3  1  0  0  0  0
  2  4  1  0  0  0  0
  2  5  1  0  0  0  0
  5  6  2  0  0  0  0
  5  7  1  0  0  0  0
  7  8  1  0  0  0  0
  7 17  1  0  0  0  0
  8  9  1  0  0  0  0
  8 10  1  0  0  0  0
  8 11  1  0  0  0  0
 11 12  1  0  0  0  0
 11 13  1  0  0  0  0
 11 14  1  0  0  0  0
 14 15  1  0  0  0  0
 14 16  1  0  0  0  0
 14 17  1  0  0  0  0
 17 18  1  0  0  0  0
 17 19  1  0  0  0  0
 19 20  2  0  0  0  0
 19 21  1  0  0  0  0
 21 22  1  0  0  0  0
 21 23  1  0  0  0  0
 23 24  1  0  0  0  0
 23 25  1  0  0  0  0
 23 26  1  0  0  0  0
M  END
$$$$

  -OEChem-01062216093D

 26 26  0     1  0  0  0  0  0999 V2000
   -1.7432   -3.8984   -1.0340 H   0  0  0  0  0  0  0  0  0  0  0  0
   -2.1266   -2.8855   -0.8841 C   0  0  0  0  0  0  0  0  0  0  0  0
   -2.5004   -2.8029    0.1397 H   0  0  0  0  0  0  0  0  0  0  0  0
   -2.9514   -2.7116   -1.5794 H   0  0  0  0  0  0  0  0  0  0  0  0
   -1.0157   -1.8710   -1.1296 C   0  0  0  0  0  0  0  0  0  0  0  0
   -0.2918   -2.0760   -2.0948 O   0  0  0  0  0  0  0  0  0  0  0  0
   -0.7177   -0.9099   -0.1507 N   0  0  0  0  0  0  0  0  0  0  0  0
   -1.7899    0.0509   -0.4425 C   0  0  0  0  0  0  0  0  0  0  0  0
   -2.0322    0.5753    0.4891 H   0  0  0  0  0  0  0  0  0  0  0  0
   -2.7388   -0.3734   -0.7965 H   0  0  0  0  0  0  0  0  0  0  0  0
   -1.2542    1.0744   -1.4716 C   0  0  0  0  0  0  0  0  0  0  0  0
   -1.8336    2.0027   -1.4948 H   0  0  0  0  0  0  0  0  0  0  0  0
   -1.2052    0.6497   -2.4801 H   0  0  0  0  0  0  0  0  0  0  0  0
    0.1111    1.2496   -0.8794 C   0  0  0  0  0  0  0  0  0  0  0  0
    0.0142    2.0070   -0.0923 H   0  0  0  0  0  0  0  0  0  0  0  0
    0.8239    1.6276   -1.6193 H   0  0  0  0  0  0  0  0  0  0  0  0
    0.5498   -0.1609   -0.3608 C   0  0  1  0  0  0  0  0  0  0  0  0
    1.2903   -0.6519   -1.0003 H   0  0  0  0  0  0  0  0  0  0  0  0
    1.1637    0.2227    1.0201 C   0  0  0  0  0  0  0  0  0  0  0  0
    1.8523    1.2224    1.2077 O   0  0  0  0  0  0  0  0  0  0  0  0
    1.1922   -0.7506    2.0033 N   0  0  0  0  0  0  0  0  0  0  0  0
    0.6779   -1.6052    1.8092 H   0  0  0  0  0  0  0  0  0  0  0  0
    1.9001   -0.6158    3.2707 C   0  0  0  0  0  0  0  0  0  0  0  0
    1.5427    0.2627    3.8179 H   0  0  0  0  0  0  0  0  0  0  0  0
    1.7342   -1.5008    3.8922 H   0  0  0  0  0  0  0  0  0  0  0  0
    2.9763   -0.5110    3.0982 H   0  0  0  0  0  0  0  0  0  0  0  0
  1  2  1  0  0  0  0
  2  3  1  0  0  0  0
  2  4  1  0  0  0  0
  2  5  1  0  0  0  0
  5  6  2  0  0  0  0
  5  7  1  0  0  0  0
  7  8  1  0  0  0  0
  7 17  1  0  0  0  0
  8  9  1  0  0  0  0
  8 10  1  0  0  0  0
  8 11  1  0  0  0  0
 11 12  1  0  0  0  0
 11 13  1  0  0  0  0
 11 14  1  0  0  0  0
 14 15  1  0  0  0  0
 14 16  1  0  0  0  0
 14 17  1  0  0  0  0
 17 18  1  0  0  0  0
 17 19  1  0  0  0  0
 19 20  2  0  0  0  0
 19 21  1  0  0  0  0
 21 22  1  0  0  0  0
 21 23  1  0  0  0  0
 23 24  1  0  0  0  0
 23 25  1  0  0  0  0
 23 26  1  0  0  0  0
M  END
$$$$

  -OEChem-01062216093D

 26 26  0     1  0  0  0  0  0999 V2000
   -1.7364   -3.8806   -0.9831 H   0  0  0  0  0  0  0  0  0  0  0  0
   -2.1216   -2.8674   -0.8405 C   0  0  0  0  0  0  0  0  0  0  0  0
   -2.4870   -2.7760    0.1856 H   0  0  0  0  0  0  0  0  0  0  0  0
   -2.9529   -2.7032   -1.5304 H   0  0  0  0  0  0  0  0  0  0  0  0
   -1.0168   -1.8503   -1.1052 C   0  0  0  0  0  0  0  0  0  0  0  0
   -0.2966   -2.0657   -2.0713 O   0  0  0  0  0  0  0  0  0  0  0  0
   -0.7067   -0.8856   -0.1332 N   0  0  0  0  0  0  0  0  0  0  0  0
   -1.7836    0.0673   -0.4329 C   0  0  0  0  0  0  0  0  0  0  0  0
   -2.0118    0.6122    0.4906 H   0  0  0  0  0  0  0  0  0  0  0  0
   -2.7389   -0.3639   -0.7608 H   0  0  0  0  0  0  0  0  0  0  0  0
   -1.2667    1.0711   -1.4936 C   0  0  0  0  0  0  0  0  0  0  0  0
   -1.8548    1.9934   -1.5336 H   0  0  0  0  0  0  0  0  0  0  0  0
   -1.2216    0.6231   -2.4920 H   0  0  0  0  0  0  0  0  0  0  0  0
    0.0999    1.2703   -0.9135 C   0  0  0  0  0  0  0  0  0  0  0  0
   -0.0077    2.0500   -0.1524 H   0  0  0  0  0  0  0  0  0  0  0  0
    0.8065    1.6352   -1.6656 H   0  0  0  0  0  0  0  0  0  0  0  0
    0.5507   -0.1284   -0.3660 C   0  0  1  0  0  0  0  0  0  0  0  0
    1.2902   -0.6241   -1.0033 H   0  0  0  0  0  0  0  0  0  0  0  0
    1.1649    0.2455    1.0212 C   0  0  0  0  0  0  0  0  0  0  0  0
    1.6285    1.3407    1.3289 O   0  0  0  0  0  0  0  0  0  0  0  0
    1.4849   -0.8105    1.8567 N   0  0  0  0  0  0  0  0  0  0  0  0
    1.1557   -1.7294    1.5743 H   0  0  0  0  0  0  0  0  0  0  0  0
    2.2250   -0.6750    3.1057 C   0  0  0  0  0  0  0  0  0  0  0  0
    1.7195    0.0264    3.7778 H   0  0  0  0  0  0  0  0  0  0  0  0
    2.2965   -1.6440    3.6089 H   0  0  0  0  0  0  0  0  0  0  0  0
    3.2390   -0.3100    2.9117 H   0  0  0  0  0  0  0  0  0  0  0  0
  1  2  1  0  0  0  0
  2  3  1  0  0  0  0
  2  4  1  0  0  0  0
  2  5  1  0  0  0  0
  5  6  2  0  0  0  0
  5  7  1  0  0  0  0
  7  8  1  0  0  0  0
  7 17  1  0  0  0  0
  8  9  1  0  0  0  0
  8 10  1  0  0  0  0
  8 11  1  0  0  0  0
 11 12  1  0  0  0  0
 11 13  1  0  0  0  0
 11 14  1  0  0  0  0
 14 15  1  0  0  0  0
 14 16  1  0  0  0  0
 14 17  1  0  0  0  0
 17 18  1  0  0  0  0
 17 19  1  0  0  0  0
 19 20  2  0  0  0  0
 19 21  1  0  0  0  0
 21 22  1  0  0  0  0
 21 23  1  0  0  0  0
 23 24  1  0  0  0  0
 23 25  1  0  0  0  0
 23 26  1  0  0  0  0
M  END
$$$$

  -OEChem-01062216093D

 26 26  0     1  0  0  0  0  0999 V2000
   -1.7416   -3.8633   -0.9325 H   0  0  0  0  0  0  0  0  0  0  0  0
   -2.1154   -2.8496   -0.7654 C   0  0  0  0  0  0  0  0  0  0  0  0
   -2.4341   -2.7645    0.2768 H   0  0  0  0  0  0  0  0  0  0  0  0
   -2.9761   -2.6767   -1.4161 H   0  0  0  0  0  0  0  0  0  0  0  0
   -1.0182   -1.8355   -1.0706 C   0  0  0  0  0  0  0  0  0  0  0  0
   -0.3212   -2.0636   -2.0512 O   0  0  0  0  0  0  0  0  0  0  0  0
   -0.6755   -0.8660   -0.1151 N   0  0  0  0  0  0  0  0  0  0  0  0
   -1.7561    0.0869   -0.4049 C   0  0  0  0  0  0  0  0  0  0  0  0
   -1.9501    0.6563    0.5118 H   0  0  0  0  0  0  0  0  0  0  0  0
   -2.7253   -0.3458   -0.6869 H   0  0  0  0  0  0  0  0  0  0  0  0
   -1.2720    1.0657   -1.5094 C   0  0  0  0  0  0  0  0  0  0  0  0
   -1.8669    1.9832   -1.5586 H   0  0  0  0  0  0  0  0  0  0  0  0
   -1.2493    0.5921   -2.4966 H   0  0  0  0  0  0  0  0  0  0  0  0
    0.1065    1.2894   -0.9669 C   0  0  0  0  0  0  0  0  0  0  0  0
    0.0226    2.1040   -0.2433 H   0  0  0  0  0  0  0  0  0  0  0  0
    0.7933    1.6217   -1.7516 H   0  0  0  0  0  0  0  0  0  0  0  0
    0.5626   -0.0991   -0.3965 C   0  0  1  0  0  0  0  0  0  0  0  0
    1.2893   -0.6019   -1.0429 H   0  0  0  0  0  0  0  0  0  0  0  0
    1.1989    0.2621    0.9870 C   0  0  0  0  0  0  0  0  0  0  0  0
    1.2675    1.3684    1.5153 O   0  0  0  0  0  0  0  0  0  0  0  0
    1.8317   -0.7752    1.6504 N   0  0  0  0  0  0  0  0  0  0  0  0
    1.7426   -1.7009    1.2409 H   0  0  0  0  0  0  0  0  0  0  0  0
    2.4960   -0.6361    2.9412 C   0  0  0  0  0  0  0  0  0  0  0  0
    1.7866   -0.2965    3.7031 H   0  0  0  0  0  0  0  0  0  0  0  0
    2.9102   -1.5980    3.2579 H   0  0  0  0  0  0  0  0  0  0  0  0
    3.3158    0.0869    2.8744 H   0  0  0  0  0  0  0  0  0  0  0  0
  1  2  1  0  0  0  0
  2  3  1  0  0  0  0
  2  4  1  0  0  0  0
  2  5  1  0  0  0  0
  5  6  2  0  0  0  0
  5  7  1  0  0  0  0
  7  8  1  0  0  0  0
  7 17  1  0  0  0  0
  8  9  1  0  0  0  0
  8 10  1  0  0  0  0
  8 11  1  0  0  0  0
 11 12  1  0  0  0  0
 11 13  1  0  0  0  0
 11 14  1  0  0  0  0
 14 15  1  0  0  0  0
 14 16  1  0  0  0  0
 14 17  1  0  0  0  0
 17 18  1  0  0  0  0
 17 19  1  0  0  0  0
 19 20  2  0  0  0  0
 19 21  1  0  0  0  0
 21 22  1  0  0  0  0
 21 23  1  0  0  0  0
 23 24  1  0  0  0  0
 23 25  1  0  0  0  0
 23 26  1  0  0  0  0
M  END
$$$$

  -OEChem-01062216093D

 26 26  0     1  0  0  0  0  0999 V2000
   -1.7409   -3.8642   -0.8263 H   0  0  0  0  0  0  0  0  0  0  0  0
   -2.1096   -2.8449   -0.6839 C   0  0  0  0  0  0  0  0  0  0  0  0
   -2.4133   -2.7279    0.3597 H   0  0  0  0  0  0  0  0  0  0  0  0
   -2.9786   -2.6881   -1.3274 H   0  0  0  0  0  0  0  0  0  0  0  0
   -1.0145   -1.8435   -1.0334 C   0  0  0  0  0  0  0  0  0  0  0  0
   -0.3424   -2.0887   -2.0278 O   0  0  0  0  0  0  0  0  0  0  0  0
   -0.6494   -0.8530   -0.1102 N   0  0  0  0  0  0  0  0  0  0  0  0
   -1.7310    0.1042   -0.3831 C   0  0  0  0  0  0  0  0  0  0  0  0
   -1.9005    0.6843    0.5318 H   0  0  0  0  0  0  0  0  0  0  0  0
   -2.7070   -0.3289   -0.6391 H   0  0  0  0  0  0  0  0  0  0  0  0
   -1.2669    1.0687   -1.5107 C   0  0  0  0  0  0  0  0  0  0  0  0
   -1.8612    1.9867   -1.5578 H   0  0  0  0  0  0  0  0  0  0  0  0
   -1.2698    0.5811   -2.4914 H   0  0  0  0  0  0  0  0  0  0  0  0
    0.1265    1.2999   -1.0073 C   0  0  0  0  0  0  0  0  0  0  0  0
    0.0951    2.1315   -0.2986 H   0  0  0  0  0  0  0  0  0  0  0  0
    0.7903    1.6030   -1.8231 H   0  0  0  0  0  0  0  0  0  0  0  0
    0.5740   -0.0853   -0.4352 C   0  0  1  0  0  0  0  0  0  0  0  0
    1.2867   -0.5974   -1.0894 H   0  0  0  0  0  0  0  0  0  0  0  0
    1.2326    0.3030    0.9271 C   0  0  0  0  0  0  0  0  0  0  0  0
    0.8866    1.2258    1.6611 O   0  0  0  0  0  0  0  0  0  0  0  0
    2.1504   -0.5934    1.4478 N   0  0  0  0  0  0  0  0  0  0  0  0
    2.3160   -1.4413    0.9129 H   0  0  0  0  0  0  0  0  0  0  0  0
    2.7183   -0.4883    2.7871 C   0  0  0  0  0  0  0  0  0  0  0  0
    1.9300   -0.5572    3.5440 H   0  0  0  0  0  0  0  0  0  0  0  0
    3.4346   -1.2975    2.9583 H   0  0  0  0  0  0  0  0  0  0  0  0
    3.2419    0.4658    2.9082 H   0  0  0  0  0  0  0  0  0  0  0  0
  1  2  1  0  0  0  0
  2  3  1  0  0  0  0
  2  4  1  0  0  0  0
  2  5  1  0  0  0  0
  5  6  2  0  0  0  0
  5  7  1  0  0  0  0
  7  8  1  0  0  0  0
  7 17  1  0  0  0  0
  8  9  1  0  0  0  0
  8 10  1  0  0  0  0
  8 11  1  0  0  0  0
 11 12  1  0  0  0  0
 11 13  1  0  0  0  0
 11 14  1  0  0  0  0
 14 15  1  0  0  0  0
 14 16  1  0  0  0  0
 14 17  1  0  0  0  0
 17 18  1  0  0  0  0
 17 19  1  0  0  0  0
 19 20  2  0  0  0  0
 19 21  1  0  0  0  0
 21 22  1  0  0  0  0
 21 23  1  0  0  0  0
 23 24  1  0  0  0  0
 23 25  1  0  0  0  0
 23 26  1  0  0  0  0
M  END
$$$$

  -OEChem-01062216093D

 26 26  0     1  0  0  0  0  0999 V2000
   -1.7627   -3.8744   -0.8146 H   0  0  0  0  0  0  0  0  0  0  0  0
   -2.1191   -2.8526   -0.6596 C   0  0  0  0  0  0  0  0  0  0  0  0
   -2.4070   -2.7402    0.3890 H   0  0  0  0  0  0  0  0  0  0  0  0
   -2.9952   -2.6820   -1.2897 H   0  0  0  0  0  0  0  0  0  0  0  0
   -1.0189   -1.8594   -1.0152 C   0  0  0  0  0  0  0  0  0  0  0  0
   -0.3441   -2.1129   -2.0061 O   0  0  0  0  0  0  0  0  0  0  0  0
   -0.6655   -0.8524   -0.1066 N   0  0  0  0  0  0  0  0  0  0  0  0
   -1.7418    0.1068   -0.3926 C   0  0  0  0  0  0  0  0  0  0  0  0
   -1.9248    0.6860    0.5202 H   0  0  0  0  0  0  0  0  0  0  0  0
   -2.7127   -0.3265   -0.6658 H   0  0  0  0  0  0  0  0  0  0  0  0
   -1.2571    1.0679   -1.5123 C   0  0  0  0  0  0  0  0  0  0  0  0
   -1.8436    1.9904   -1.5646 H   0  0  0  0  0  0  0  0  0  0  0  0
   -1.2559    0.5802   -2.4930 H   0  0  0  0  0  0  0  0  0  0  0  0
    0.1355    1.2894   -0.9996 C   0  0  0  0  0  0  0  0  0  0  0  0
    0.1127    2.1163   -0.2827 H   0  0  0  0  0  0  0  0  0  0  0  0
    0.8062    1.5885   -1.8110 H   0  0  0  0  0  0  0  0  0  0  0  0
    0.5665   -0.0965   -0.4250 C   0  0  1  0  0  0  0  0  0  0  0  0
    1.2797   -0.6180   -1.0712 H   0  0  0  0  0  0  0  0  0  0  0  0
    1.2222    0.3304    0.9234 C   0  0  0  0  0  0  0  0  0  0  0  0
    0.7031    1.0880    1.7407 O   0  0  0  0  0  0  0  0  0  0  0  0
    2.3512   -0.3597    1.3302 N   0  0  0  0  0  0  0  0  0  0  0  0
    2.6825   -1.1016    0.7203 H   0  0  0  0  0  0  0  0  0  0  0  0
    2.9484   -0.2222    2.6536 C   0  0  0  0  0  0  0  0  0  0  0  0
    2.2409   -0.5376    3.4277 H   0  0  0  0  0  0  0  0  0  0  0  0
    3.8455   -0.8440    2.7296 H   0  0  0  0  0  0  0  0  0  0  0  0
    3.2341    0.8186    2.8393 H   0  0  0  0  0  0  0  0  0  0  0  0
  1  2  1  0  0  0  0
  2  3  1  0  0  0  0
  2  4  1  0  0  0  0
  2  5  1  0  0  0  0
  5  6  2  0  0  0  0
  5  7  1  0  0  0  0
  7  8  1  0  0  0  0
  7 17  1  0  0  0  0
  8  9  1  0  0  0  0
  8 10  1  0  0  0  0
  8 11  1  0  0  0  0
 11 12  1  0  0  0  0
 11 13  1  0  0  0  0
 11 14  1  0  0  0  0
 14 15  1  0  0  0  0
 14 16  1  0  0  0  0
 14 17  1  0  0  0  0
 17 18  1  0  0  0  0
 17 19  1  0  0  0  0
 19 20  2  0  0  0  0
 19 21  1  0  0  0  0
 21 22  1  0  0  0  0
 21 23  1  0  0  0  0
 23 24  1  0  0  0  0
 23 25  1  0  0  0  0
 23 26  1  0  0  0  0
M  END
$$$$

  -OEChem-01062216093D

 26 26  0     1  0  0  0  0  0999 V2000
   -1.7857   -3.8862   -0.8159 H   0  0  0  0  0  0  0  0  0  0  0  0
   -2.1363   -2.8626   -0.6592 C   0  0  0  0  0  0  0  0  0  0  0  0
   -2.4318   -2.7525    0.3875 H   0  0  0  0  0  0  0  0  0  0  0  0
   -3.0061   -2.6833   -1.2957 H   0  0  0  0  0  0  0  0  0  0  0  0
   -1.0262   -1.8759   -1.0011 C   0  0  0  0  0  0  0  0  0  0  0  0
   -0.3373   -2.1346   -1.9811 O   0  0  0  0  0  0  0  0  0  0  0  0
   -0.6924   -0.8580   -0.0975 N   0  0  0  0  0  0  0  0  0  0  0  0
   -1.7585    0.1043   -0.4076 C   0  0  0  0  0  0  0  0  0  0  0  0
   -1.9649    0.6813    0.5015 H   0  0  0  0  0  0  0  0  0  0  0  0
   -2.7215   -0.3271   -0.7095 H   0  0  0  0  0  0  0  0  0  0  0  0
   -1.2399    1.0645   -1.5104 C   0  0  0  0  0  0  0  0  0  0  0  0
   -1.8168    1.9924   -1.5732 H   0  0  0  0  0  0  0  0  0  0  0  0
   -1.2214    0.5794   -2.4922 H   0  0  0  0  0  0  0  0  0  0  0  0
    0.1446    1.2724   -0.9694 C   0  0  0  0  0  0  0  0  0  0  0  0
    0.1116    2.0907   -0.2409 H   0  0  0  0  0  0  0  0  0  0  0  0
    0.8343    1.5749   -1.7636 H   0  0  0  0  0  0  0  0  0  0  0  0
    0.5552   -0.1162   -0.3901 C   0  0  1  0  0  0  0  0  0  0  0  0
    1.2738   -0.6464   -1.0228 H   0  0  0  0  0  0  0  0  0  0  0  0
    1.1990    0.3425    0.9507 C   0  0  0  0  0  0  0  0  0  0  0  0
    0.5884    0.9566    1.8230 O   0  0  0  0  0  0  0  0  0  0  0  0
    2.4746   -0.1041    1.2494 N   0  0  0  0  0  0  0  0  0  0  0  0
    2.9187   -0.7235    0.5777 H   0  0  0  0  0  0  0  0  0  0  0  0
    3.1252    0.1179    2.5354 C   0  0  0  0  0  0  0  0  0  0  0  0
    2.5497   -0.3487    3.3418 H   0  0  0  0  0  0  0  0  0  0  0  0
    4.1295   -0.3163    2.5307 H   0  0  0  0  0  0  0  0  0  0  0  0
    3.2142    1.1901    2.7396 H   0  0  0  0  0  0  0  0  0  0  0  0
  1  2  1  0  0  0  0
  2  3  1  0  0  0  0
  2  4  1  0  0  0  0
  2  5  1  0  0  0  0
  5  6  2  0  0  0  0
  5  7  1  0  0  0  0
  7  8  1  0  0  0  0
  7 17  1  0  0  0  0
  8  9  1  0  0  0  0
  8 10  1  0  0  0  0
  8 11  1  0  0  0  0
 11 12  1  0  0  0  0
 11 13  1  0  0  0  0
 11 14  1  0  0  0  0
 14 15  1  0  0  0  0
 14 16  1  0  0  0  0
 14 17  1  0  0  0  0
 17 18  1  0  0  0  0
 17 19  1  0  0  0  0
 19 20  2  0  0  0  0
 19 21  1  0  0  0  0
 21 22  1  0  0  0  0
 21 23  1  0  0  0  0
 23 24  1  0  0  0  0
 23 25  1  0  0  0  0
 23 26  1  0  0  0  0
M  END
$$$$

  -OEChem-01062216093D

 26 26  0     1  0  0  0  0  0999 V2000
   -1.7924   -3.8948   -0.7790 H   0  0  0  0  0  0  0  0  0  0  0  0
   -2.1506   -2.8683   -0.6655 C   0  0  0  0  0  0  0  0  0  0  0  0
   -2.4887   -2.7303    0.3649 H   0  0  0  0  0  0  0  0  0  0  0  0
   -2.9934   -2.7083   -1.3421 H   0  0  0  0  0  0  0  0  0  0  0  0
   -1.0289   -1.8889   -0.9890 C   0  0  0  0  0  0  0  0  0  0  0  0
   -0.3244   -2.1509   -1.9569 O   0  0  0  0  0  0  0  0  0  0  0  0
   -0.7151   -0.8644   -0.0865 N   0  0  0  0  0  0  0  0  0  0  0  0
   -1.7713    0.1008   -0.4191 C   0  0  0  0  0  0  0  0  0  0  0  0
   -2.0026    0.6734    0.4867 H   0  0  0  0  0  0  0  0  0  0  0  0
   -2.7251   -0.3286   -0.7519 H   0  0  0  0  0  0  0  0  0  0  0  0
   -1.2189    1.0629   -1.5008 C   0  0  0  0  0  0  0  0  0  0  0  0
   -1.7872    1.9957   -1.5700 H   0  0  0  0  0  0  0  0  0  0  0  0
   -1.1827    0.5837   -2.4850 H   0  0  0  0  0  0  0  0  0  0  0  0
    0.1556    1.2560   -0.9289 C   0  0  0  0  0  0  0  0  0  0  0  0
    0.1090    2.0660   -0.1902 H   0  0  0  0  0  0  0  0  0  0  0  0
    0.8642    1.5622   -1.7049 H   0  0  0  0  0  0  0  0  0  0  0  0
    0.5480   -0.1362   -0.3481 C   0  0  1  0  0  0  0  0  0  0  0  0
    1.2743   -0.6730   -0.9663 H   0  0  0  0  0  0  0  0  0  0  0  0
    1.1769    0.3457    0.9897 C   0  0  0  0  0  0  0  0  0  0  0  0
    0.5116    0.8123    1.9111 O   0  0  0  0  0  0  0  0  0  0  0  0
    2.5352    0.1693    1.1886 N   0  0  0  0  0  0  0  0  0  0  0  0
    3.0570   -0.3029    0.4559 H   0  0  0  0  0  0  0  0  0  0  0  0
    3.2121    0.4881    2.4400 C   0  0  0  0  0  0  0  0  0  0  0  0
    2.8050   -0.1138    3.2593 H   0  0  0  0  0  0  0  0  0  0  0  0
    4.2827    0.2786    2.3549 H   0  0  0  0  0  0  0  0  0  0  0  0
    3.0868    1.5482    2.6847 H   0  0  0  0  0  0  0  0  0  0  0  0
  1  2  1  0  0  0  0
  2  3  1  0  0  0  0
  2  4  1  0  0  0  0
  2  5  1  0  0  0  0
  5  6  2  0  0  0  0
  5  7  1  0  0  0  0
  7  8  1  0  0  0  0
  7 17  1  0  0  0  0
  8  9  1  0  0  0  0
  8 10  1  0  0  0  0
  8 11  1  0  0  0  0
 11 12  1  0  0  0  0
 11 13  1  0  0  0  0
 11 14  1  0  0  0  0
 14 15  1  0  0  0  0
 14 16  1  0  0  0  0
 14 17  1  0  0  0  0
 17 18  1  0  0  0  0
 17 19  1  0  0  0  0
 19 20  2  0  0  0  0
 19 21  1  0  0  0  0
 21 22  1  0  0  0  0
 21 23  1  0  0  0  0
 23 24  1  0  0  0  0
 23 25  1  0  0  0  0
 23 26  1  0  0  0  0
M  END
$$$$

  -OEChem-01062216093D

 26 26  0     1  0  0  0  0  0999 V2000
   -1.7994   -3.9015   -0.7861 H   0  0  0  0  0  0  0  0  0  0  0  0
   -2.1575   -2.8743   -0.6787 C   0  0  0  0  0  0  0  0  0  0  0  0
   -2.5185   -2.7372    0.3440 H   0  0  0  0  0  0  0  0  0  0  0  0
   -2.9847   -2.7108   -1.3735 H   0  0  0  0  0  0  0  0  0  0  0  0
   -1.0256   -1.8981   -0.9752 C   0  0  0  0  0  0  0  0  0  0  0  0
   -0.3023   -2.1587   -1.9298 O   0  0  0  0  0  0  0  0  0  0  0  0
   -0.7355   -0.8686   -0.0707 N   0  0  0  0  0  0  0  0  0  0  0  0
   -1.7802    0.0979   -0.4292 C   0  0  0  0  0  0  0  0  0  0  0  0
   -2.0346    0.6679    0.4720 H   0  0  0  0  0  0  0  0  0  0  0  0
   -2.7247   -0.3296   -0.7897 H   0  0  0  0  0  0  0  0  0  0  0  0
   -1.1957    1.0602   -1.4912 C   0  0  0  0  0  0  0  0  0  0  0  0
   -1.7568    1.9962   -1.5722 H   0  0  0  0  0  0  0  0  0  0  0  0
   -1.1369    0.5835   -2.4755 H   0  0  0  0  0  0  0  0  0  0  0  0
    0.1653    1.2423   -0.8842 C   0  0  0  0  0  0  0  0  0  0  0  0
    0.0984    2.0456   -0.1383 H   0  0  0  0  0  0  0  0  0  0  0  0
    0.8944    1.5534   -1.6388 H   0  0  0  0  0  0  0  0  0  0  0  0
    0.5422   -0.1520   -0.2971 C   0  0  1  0  0  0  0  0  0  0  0  0
    1.2791   -0.6943   -0.8974 H   0  0  0  0  0  0  0  0  0  0  0  0
    1.1526    0.3490    1.0407 C   0  0  0  0  0  0  0  0  0  0  0  0
    0.4633    0.6548    2.0094 O   0  0  0  0  0  0  0  0  0  0  0  0
    2.5283    0.4566    1.1514 N   0  0  0  0  0  0  0  0  0  0  0  0
    3.0873    0.1426    0.3636 H   0  0  0  0  0  0  0  0  0  0  0  0
    3.2057    0.8643    2.3763 C   0  0  0  0  0  0  0  0  0  0  0  0
    2.9628    0.1789    3.1951 H   0  0  0  0  0  0  0  0  0  0  0  0
    4.2900    0.8562    2.2294 H   0  0  0  0  0  0  0  0  0  0  0  0
    2.9032    1.8772    2.6622 H   0  0  0  0  0  0  0  0  0  0  0  0
  1  2  1  0  0  0  0
  2  3  1  0  0  0  0
  2  4  1  0  0  0  0
  2  5  1  0  0  0  0
  5  6  2  0  0  0  0
  5  7  1  0  0  0  0
  7  8  1  0  0  0  0
  7 17  1  0  0  0  0
  8  9  1  0  0  0  0
  8 10  1  0  0  0  0
  8 11  1  0  0  0  0
 11 12  1  0  0  0  0
 11 13  1  0  0  0  0
 11 14  1  0  0  0  0
 14 15  1  0  0  0  0
 14 16  1  0  0  0  0
 14 17  1  0  0  0  0
 17 18  1  0  0  0  0
 17 19  1  0  0  0  0
 19 20  2  0  0  0  0
 19 21  1  0  0  0  0
 21 22  1  0  0  0  0
 21 23  1  0  0  0  0
 23 24  1  0  0  0  0
 23 25  1  0  0  0  0
 23 26  1  0  0  0  0
M  END
$$$$

  -OEChem-01062216093D

 26 26  0     1  0  0  0  0  0999 V2000
   -1.7944   -3.9062   -0.8023 H   0  0  0  0  0  0  0  0  0  0  0  0
   -2.1550   -2.8813   -0.6800 C   0  0  0  0  0  0  0  0  0  0  0  0
   -2.5128   -2.7587    0.3456 H   0  0  0  0  0  0  0  0  0  0  0  0
   -2.9851   -2.7108   -1.3695 H   0  0  0  0  0  0  0  0  0  0  0  0
   -1.0273   -1.8981   -0.9665 C   0  0  0  0  0  0  0  0  0  0  0  0
   -0.2994   -2.1458   -1.9211 O   0  0  0  0  0  0  0  0  0  0  0  0
   -0.7555   -0.8667   -0.0589 N   0  0  0  0  0  0  0  0  0  0  0  0
   -1.7863    0.1038   -0.4430 C   0  0  0  0  0  0  0  0  0  0  0  0
   -2.0622    0.6732    0.4522 H   0  0  0  0  0  0  0  0  0  0  0  0
   -2.7217   -0.3208   -0.8298 H   0  0  0  0  0  0  0  0  0  0  0  0
   -1.1690    1.0636   -1.4867 C   0  0  0  0  0  0  0  0  0  0  0  0
   -1.7198    2.0050   -1.5774 H   0  0  0  0  0  0  0  0  0  0  0  0
   -1.0912    0.5899   -2.4712 H   0  0  0  0  0  0  0  0  0  0  0  0
    0.1783    1.2313   -0.8461 C   0  0  0  0  0  0  0  0  0  0  0  0
    0.0946    2.0304   -0.0969 H   0  0  0  0  0  0  0  0  0  0  0  0
    0.9275    1.5425   -1.5809 H   0  0  0  0  0  0  0  0  0  0  0  0
    0.5370   -0.1655   -0.2514 C   0  0  1  0  0  0  0  0  0  0  0  0
    1.2821   -0.7156   -0.8344 H   0  0  0  0  0  0  0  0  0  0  0  0
    1.1280    0.3455    1.0916 C   0  0  0  0  0  0  0  0  0  0  0  0
    0.4509    0.4547    2.1087 O   0  0  0  0  0  0  0  0  0  0  0  0
    2.4558    0.7368    1.1420 N   0  0  0  0  0  0  0  0  0  0  0  0
    3.0153    0.6073    0.3043 H   0  0  0  0  0  0  0  0  0  0  0  0
    3.1059    1.2151    2.3564 C   0  0  0  0  0  0  0  0  0  0  0  0
    3.0670    0.4497    3.1388 H   0  0  0  0  0  0  0  0  0  0  0  0
    4.1553    1.4515    2.1560 H   0  0  0  0  0  0  0  0  0  0  0  0
    2.6121    2.1208    2.7241 H   0  0  0  0  0  0  0  0  0  0  0  0
  1  2  1  0  0  0  0
  2  3  1  0  0  0  0
  2  4  1  0  0  0  0
  2  5  1  0  0  0  0
  5  6  2  0  0  0  0
  5  7  1  0  0  0  0
  7  8  1  0  0  0  0
  7 17  1  0  0  0  0
  8  9  1  0  0  0  0
  8 10  1  0  0  0  0
  8 11  1  0  0  0  0
 11 12  1  0  0  0  0
 11 13  1  0  0  0  0
 11 14  1  0  0  0  0
 14 15  1  0  0  0  0
 14 16  1  0  0  0  0
 14 17  1  0  0  0  0
 17 18  1  0  0  0  0
 17 19  1  0  0  0  0
 19 20  2  0  0  0  0
 19 21  1  0  0  0  0
 21 22  1  0  0  0  0
 21 23  1  0  0  0  0
 23 24  1  0  0  0  0
 23 25  1  0  0  0  0
 23 26  1  0  0  0  0
M  END
$$$$

  -OEChem-01062216093D

 26 26  0     1  0  0  0  0  0999 V2000
   -1.8479   -3.9165   -0.6507 H   0  0  0  0  0  0  0  0  0  0  0  0
   -2.1515   -2.8660   -0.6494 C   0  0  0  0  0  0  0  0  0  0  0  0
   -2.6252   -2.6440    0.3104 H   0  0  0  0  0  0  0  0  0  0  0  0
   -2.8750   -2.7061   -1.4522 H   0  0  0  0  0  0  0  0  0  0  0  0
   -0.9331   -1.9727   -0.8538 C   0  0  0  0  0  0  0  0  0  0  0  0
   -0.0434   -2.4125   -1.5714 O   0  0  0  0  0  0  0  0  0  0  0  0
   -0.7738   -0.8028   -0.1014 N   0  0  0  0  0  0  0  0  0  0  0  0
   -1.8366    0.1043   -0.5388 C   0  0  0  0  0  0  0  0  0  0  0  0
   -2.2201    0.6365    0.3391 H   0  0  0  0  0  0  0  0  0  0  0  0
   -2.6970   -0.3750   -1.0187 H   0  0  0  0  0  0  0  0  0  0  0  0
   -1.1916    1.1037   -1.5105 C   0  0  0  0  0  0  0  0  0  0  0  0
   -1.7654    2.0305   -1.6083 H   0  0  0  0  0  0  0  0  0  0  0  0
   -1.0561    0.6546   -2.5000 H   0  0  0  0  0  0  0  0  0  0  0  0
    0.1303    1.3039   -0.8208 C   0  0  0  0  0  0  0  0  0  0  0  0
   -0.0046    2.0656   -0.0419 H   0  0  0  0  0  0  0  0  0  0  0  0
    0.8922    1.6649   -1.5189 H   0  0  0  0  0  0  0  0  0  0  0  0
    0.5160   -0.0823   -0.2407 C   0  0  1  0  0  0  0  0  0  0  0  0
    1.2678   -0.5919   -0.8505 H   0  0  0  0  0  0  0  0  0  0  0  0
    1.1189    0.3451    1.1246 C   0  0  0  0  0  0  0  0  0  0  0  0
    0.5369    0.1467    2.1849 O   0  0  0  0  0  0  0  0  0  0  0  0
    2.3252    1.0269    1.1573 N   0  0  0  0  0  0  0  0  0  0  0  0
    2.8220    1.1405    0.2789 H   0  0  0  0  0  0  0  0  0  0  0  0
    2.9742    1.4522    2.3920 C   0  0  0  0  0  0  0  0  0  0  0  0
    3.2138    0.5854    3.0169 H   0  0  0  0  0  0  0  0  0  0  0  0
    3.9036    1.9843    2.1667 H   0  0  0  0  0  0  0  0  0  0  0  0
    2.3206    2.1248    2.9575 H   0  0  0  0  0  0  0  0  0  0  0  0
  1  2  1  0  0  0  0
  2  3  1  0  0  0  0
  2  4  1  0  0  0  0
  2  5  1  0  0  0  0
  5  6  2  0  0  0  0
  5  7  1  0  0  0  0
  7  8  1  0  0  0  0
  7 17  1  0  0  0  0
  8  9  1  0  0  0  0
  8 10  1  0  0  0  0
  8 11  1  0  0  0  0
 11 12  1  0  0  0  0
 11 13  1  0  0  0  0
 11 14  1  0  0  0  0
 14 15  1  0  0  0  0
 14 16  1  0  0  0  0
 14 17  1  0  0  0  0
 17 18  1  0  0  0  0
 17 19  1  0  0  0  0
 19 20  2  0  0  0  0
 19 21  1  0  0  0  0
 21 22  1  0  0  0  0
 21 23  1  0  0  0  0
 23 24  1  0  0  0  0
 23 25  1  0  0  0  0
 23 26  1  0  0  0  0
M  END
$$$$

  -OEChem-01062216093D

 26 26  0     1  0  0  0  0  0999 V2000
   -1.7954   -3.9185   -0.6306 H   0  0  0  0  0  0  0  0  0  0  0  0
   -2.1267   -2.8765   -0.6296 C   0  0  0  0  0  0  0  0  0  0  0  0
   -2.5871   -2.6603    0.3381 H   0  0  0  0  0  0  0  0  0  0  0  0
   -2.8701   -2.7392   -1.4184 H   0  0  0  0  0  0  0  0  0  0  0  0
   -0.9361   -1.9544   -0.8641 C   0  0  0  0  0  0  0  0  0  0  0  0
   -0.0752   -2.3480   -1.6414 O   0  0  0  0  0  0  0  0  0  0  0  0
   -0.7819   -0.7925   -0.0990 N   0  0  0  0  0  0  0  0  0  0  0  0
   -1.8415    0.1093   -0.5537 C   0  0  0  0  0  0  0  0  0  0  0  0
   -2.2358    0.6456    0.3166 H   0  0  0  0  0  0  0  0  0  0  0  0
   -2.6963   -0.3754   -1.0392 H   0  0  0  0  0  0  0  0  0  0  0  0
   -1.1890    1.1042   -1.5235 C   0  0  0  0  0  0  0  0  0  0  0  0
   -1.7635    2.0295   -1.6317 H   0  0  0  0  0  0  0  0  0  0  0  0
   -1.0420    0.6504   -2.5095 H   0  0  0  0  0  0  0  0  0  0  0  0
    0.1245    1.3078   -0.8191 C   0  0  0  0  0  0  0  0  0  0  0  0
   -0.0274    2.0703   -0.0448 H   0  0  0  0  0  0  0  0  0  0  0  0
    0.8931    1.6699   -1.5091 H   0  0  0  0  0  0  0  0  0  0  0  0
    0.5112   -0.0746   -0.2253 C   0  0  1  0  0  0  0  0  0  0  0  0
    1.2686   -0.5858   -0.8271 H   0  0  0  0  0  0  0  0  0  0  0  0
    1.1034    0.3366    1.1529 C   0  0  0  0  0  0  0  0  0  0  0  0
    0.6721   -0.1289    2.2011 O   0  0  0  0  0  0  0  0  0  0  0  0
    2.1292    1.2675    1.2334 N   0  0  0  0  0  0  0  0  0  0  0  0
    2.5155    1.6151    0.3612 H   0  0  0  0  0  0  0  0  0  0  0  0
    2.7401    1.6854    2.4899 C   0  0  0  0  0  0  0  0  0  0  0  0
    3.2056    0.8311    2.9926 H   0  0  0  0  0  0  0  0  0  0  0  0
    3.5108    2.4392    2.3031 H   0  0  0  0  0  0  0  0  0  0  0  0
    1.9875    2.1196    3.1565 H   0  0  0  0  0  0  0  0  0  0  0  0
  1  2  1  0  0  0  0
  2  3  1  0  0  0  0
  2  4  1  0  0  0  0
  2  5  1  0  0  0  0
  5  6  2  0  0  0  0
  5  7  1  0  0  0  0
  7  8  1  0  0  0  0
  7 17  1  0  0  0  0
  8  9  1  0  0  0  0
  8 10  1  0  0  0  0
  8 11  1  0  0  0  0
 11 12  1  0  0  0  0
 11 13  1  0  0  0  0
 11 14  1  0  0  0  0
 14 15  1  0  0  0  0
 14 16  1  0  0  0  0
 14 17  1  0  0  0  0
 17 18  1  0  0  0  0
 17 19  1  0  0  0  0
 19 20  2  0  0  0  0
 19 21  1  0  0  0  0
 21 22  1  0  0  0  0
 21 23  1  0  0  0  0
 23 24  1  0  0  0  0
 23 25  1  0  0  0  0
 23 26  1  0  0  0  0
M  END
$$$$

  -OEChem-01062216093D

 26 26  0     1  0  0  0  0  0999 V2000
   -1.7063   -3.9204   -0.5983 H   0  0  0  0  0  0  0  0  0  0  0  0
   -2.0829   -2.8939   -0.5933 C   0  0  0  0  0  0  0  0  0  0  0  0
   -2.5183   -2.6888    0.3882 H   0  0  0  0  0  0  0  0  0  0  0  0
   -2.8583   -2.7953   -1.3567 H   0  0  0  0  0  0  0  0  0  0  0  0
   -0.9428   -1.9243   -0.8754 C   0  0  0  0  0  0  0  0  0  0  0  0
   -0.1264   -2.2538   -1.7273 O   0  0  0  0  0  0  0  0  0  0  0  0
   -0.7975   -0.7710   -0.0965 N   0  0  0  0  0  0  0  0  0  0  0  0
   -1.8543    0.1204   -0.5770 C   0  0  0  0  0  0  0  0  0  0  0  0
   -2.2580    0.6703    0.2805 H   0  0  0  0  0  0  0  0  0  0  0  0
   -2.7048   -0.3757   -1.0601 H   0  0  0  0  0  0  0  0  0  0  0  0
   -1.1959    1.1009   -1.5574 C   0  0  0  0  0  0  0  0  0  0  0  0
   -1.7722    2.0221   -1.6886 H   0  0  0  0  0  0  0  0  0  0  0  0
   -1.0359    0.6304   -2.5335 H   0  0  0  0  0  0  0  0  0  0  0  0
    0.1084    1.3194   -0.8413 C   0  0  0  0  0  0  0  0  0  0  0  0
   -0.0679    2.0922   -0.0840 H   0  0  0  0  0  0  0  0  0  0  0  0
    0.8848    1.6767   -1.5253 H   0  0  0  0  0  0  0  0  0  0  0  0
    0.4963   -0.0526   -0.2188 C   0  0  1  0  0  0  0  0  0  0  0  0
    1.2582   -0.5693   -0.8102 H   0  0  0  0  0  0  0  0  0  0  0  0
    1.0788    0.3391    1.1728 C   0  0  0  0  0  0  0  0  0  0  0  0
    0.8483   -0.3517    2.1579 O   0  0  0  0  0  0  0  0  0  0  0  0
    1.8754    1.4618    1.3573 N   0  0  0  0  0  0  0  0  0  0  0  0
    2.1203    2.0017    0.5333 H   0  0  0  0  0  0  0  0  0  0  0  0
    2.4704    1.8264    2.6381 C   0  0  0  0  0  0  0  0  0  0  0  0
    3.1466    1.0379    2.9852 H   0  0  0  0  0  0  0  0  0  0  0  0
    3.0424    2.7538    2.5387 H   0  0  0  0  0  0  0  0  0  0  0  0
    1.6916    1.9804    3.3925 H   0  0  0  0  0  0  0  0  0  0  0  0
  1  2  1  0  0  0  0
  2  3  1  0  0  0  0
  2  4  1  0  0  0  0
  2  5  1  0  0  0  0
  5  6  2  0  0  0  0
  5  7  1  0  0  0  0
  7  8  1  0  0  0  0
  7 17  1  0  0  0  0
  8  9  1  0  0  0  0
  8 10  1  0  0  0  0
  8 11  1  0  0  0  0
 11 12  1  0  0  0  0
 11 13  1  0  0  0  0
 11 14  1  0  0  0  0
 14 15  1  0  0  0  0
 14 16  1  0  0  0  0
 14 17  1  0  0  0  0
 17 18  1  0  0  0  0
 17 19  1  0  0  0  0
 19 20  2  0  0  0  0
 19 21  1  0  0  0  0
 21 22  1  0  0  0  0
 21 23  1  0  0  0  0
 23 24  1  0  0  0  0
 23 25  1  0  0  0  0
 23 26  1  0  0  0  0
M  END
$$$$

  -OEChem-01062216093D

 26 26  0     1  0  0  0  0  0999 V2000
   -1.6316   -3.9238   -0.6038 H   0  0  0  0  0  0  0  0  0  0  0  0
   -2.0400   -2.9108   -0.5593 C   0  0  0  0  0  0  0  0  0  0  0  0
   -2.4277   -2.7366    0.4478 H   0  0  0  0  0  0  0  0  0  0  0  0
   -2.8591   -2.8245   -1.2770 H   0  0  0  0  0  0  0  0  0  0  0  0
   -0.9494   -1.8997   -0.8848 C   0  0  0  0  0  0  0  0  0  0  0  0
   -0.1896   -2.1660   -1.8084 O   0  0  0  0  0  0  0  0  0  0  0  0
   -0.8063   -0.7552   -0.0929 N   0  0  0  0  0  0  0  0  0  0  0  0
   -1.8605    0.1292   -0.5932 C   0  0  0  0  0  0  0  0  0  0  0  0
   -2.2649    0.6960    0.2528 H   0  0  0  0  0  0  0  0  0  0  0  0
   -2.7125   -0.3754   -1.0662 H   0  0  0  0  0  0  0  0  0  0  0  0
   -1.2021    1.0930   -1.5913 C   0  0  0  0  0  0  0  0  0  0  0  0
   -1.7815    2.0091   -1.7425 H   0  0  0  0  0  0  0  0  0  0  0  0
   -1.0359    0.6050   -2.5580 H   0  0  0  0  0  0  0  0  0  0  0  0
    0.0973    1.3288   -0.8724 C   0  0  0  0  0  0  0  0  0  0  0  0
   -0.0972    2.1173   -0.1387 H   0  0  0  0  0  0  0  0  0  0  0  0
    0.8785    1.6762   -1.5561 H   0  0  0  0  0  0  0  0  0  0  0  0
    0.4841   -0.0328   -0.2224 C   0  0  1  0  0  0  0  0  0  0  0  0
    1.2460   -0.5580   -0.8067 H   0  0  0  0  0  0  0  0  0  0  0  0
    1.0622    0.3350    1.1796 C   0  0  0  0  0  0  0  0  0  0  0  0
    1.0651   -0.5144    2.0621 O   0  0  0  0  0  0  0  0  0  0  0  0
    1.5984    1.5746    1.5058 N   0  0  0  0  0  0  0  0  0  0  0  0
    1.6572    2.2682    0.7673 H   0  0  0  0  0  0  0  0  0  0  0  0
    2.1633    1.8917    2.8128 C   0  0  0  0  0  0  0  0  0  0  0  0
    3.0095    1.2331    3.0351 H   0  0  0  0  0  0  0  0  0  0  0  0
    2.5168    2.9268    2.8306 H   0  0  0  0  0  0  0  0  0  0  0  0
    1.4074    1.7715    3.5961 H   0  0  0  0  0  0  0  0  0  0  0  0
  1  2  1  0  0  0  0
  2  3  1  0  0  0  0
  2  4  1  0  0  0  0
  2  5  1  0  0  0  0
  5  6  2  0  0  0  0
  5  7  1  0  0  0  0
  7  8  1  0  0  0  0
  7 17  1  0  0  0  0
  8  9  1  0  0  0  0
  8 10  1  0  0  0  0
  8 11  1  0  0  0  0
 11 12  1  0  0  0  0
 11 13  1  0  0  0  0
 11 14  1  0  0  0  0
 14 15  1  0  0  0  0
 14 16  1  0  0  0  0
 14 17  1  0  0  0  0
 17 18  1  0  0  0  0
 17 19  1  0  0  0  0
 19 20  2  0  0  0  0
 19 21  1  0  0  0  0
 21 22  1  0  0  0  0
 21 23  1  0  0  0  0
 23 24  1  0  0  0  0
 23 25  1  0  0  0  0
 23 26  1  0  0  0  0
M  END
$$$$

  -OEChem-01062216093D

 26 26  0     1  0  0  0  0  0999 V2000
   -1.6154   -3.9300   -0.7714 H   0  0  0  0  0  0  0  0  0  0  0  0
   -1.9907   -2.9351   -0.5167 C   0  0  0  0  0  0  0  0  0  0  0  0
   -2.1836   -2.9005    0.5586 H   0  0  0  0  0  0  0  0  0  0  0  0
   -2.9259   -2.7598   -1.0530 H   0  0  0  0  0  0  0  0  0  0  0  0
   -0.9620   -1.8792   -0.8943 C   0  0  0  0  0  0  0  0  0  0  0  0
   -0.2603   -2.0895   -1.8770 O   0  0  0  0  0  0  0  0  0  0  0  0
   -0.8240   -0.7399   -0.0943 N   0  0  0  0  0  0  0  0  0  0  0  0
   -1.8648    0.1460   -0.6219 C   0  0  0  0  0  0  0  0  0  0  0  0
   -2.2720    0.7322    0.2093 H   0  0  0  0  0  0  0  0  0  0  0  0
   -2.7180   -0.3614   -1.0905 H   0  0  0  0  0  0  0  0  0  0  0  0
   -1.1918    1.0877   -1.6335 C   0  0  0  0  0  0  0  0  0  0  0  0
   -1.7661    2.0027   -1.8095 H   0  0  0  0  0  0  0  0  0  0  0  0
   -1.0172    0.5805   -2.5886 H   0  0  0  0  0  0  0  0  0  0  0  0
    0.0996    1.3337   -0.9041 C   0  0  0  0  0  0  0  0  0  0  0  0
   -0.1013    2.1435   -0.1993 H   0  0  0  0  0  0  0  0  0  0  0  0
    0.8925    1.6587   -1.5852 H   0  0  0  0  0  0  0  0  0  0  0  0
    0.4663   -0.0196   -0.2249 C   0  0  1  0  0  0  0  0  0  0  0  0
    1.2295   -0.5595   -0.7951 H   0  0  0  0  0  0  0  0  0  0  0  0
    1.0278    0.3285    1.1895 C   0  0  0  0  0  0  0  0  0  0  0  0
    1.2619   -0.5979    1.9555 O   0  0  0  0  0  0  0  0  0  0  0  0
    1.2937    1.6058    1.6673 N   0  0  0  0  0  0  0  0  0  0  0  0
    1.1600    2.3828    1.0293 H   0  0  0  0  0  0  0  0  0  0  0  0
    1.8342    1.8768    2.9950 C   0  0  0  0  0  0  0  0  0  0  0  0
    2.8205    1.4147    3.1091 H   0  0  0  0  0  0  0  0  0  0  0  0
    1.9375    2.9553    3.1480 H   0  0  0  0  0  0  0  0  0  0  0  0
    1.1673    1.4812    3.7683 H   0  0  0  0  0  0  0  0  0  0  0  0
  1  2  1  0  0  0  0
  2  3  1  0  0  0  0
  2  4  1  0  0  0  0
  2  5  1  0  0  0  0
  5  6  2  0  0  0  0
  5  7  1  0  0  0  0
  7  8  1  0  0  0  0
  7 17  1  0  0  0  0
  8  9  1  0  0  0  0
  8 10  1  0  0  0  0
  8 11  1  0  0  0  0
 11 12  1  0  0  0  0
 11 13  1  0  0  0  0
 11 14  1  0  0  0  0
 14 15  1  0  0  0  0
 14 16  1  0  0  0  0
 14 17  1  0  0  0  0
 17 18  1  0  0  0  0
 17 19  1  0  0  0  0
 19 20  2  0  0  0  0
 19 21  1  0  0  0  0
 21 22  1  0  0  0  0
 21 23  1  0  0  0  0
 23 24  1  0  0  0  0
 23 25  1  0  0  0  0
 23 26  1  0  0  0  0
M  END
$$$$

  -OEChem-01062216093D

 26 26  0     1  0  0  0  0  0999 V2000
   -1.5062   -3.9232   -0.5330 H   0  0  0  0  0  0  0  0  0  0  0  0
   -1.9789   -2.9375   -0.5290 C   0  0  0  0  0  0  0  0  0  0  0  0
   -2.3764   -2.7457    0.4709 H   0  0  0  0  0  0  0  0  0  0  0  0
   -2.8026   -2.9326   -1.2466 H   0  0  0  0  0  0  0  0  0  0  0  0
   -0.9558   -1.8754   -0.9023 C   0  0  0  0  0  0  0  0  0  0  0  0
   -0.2722   -2.0696   -1.9004 O   0  0  0  0  0  0  0  0  0  0  0  0
   -0.8108   -0.7440   -0.0917 N   0  0  0  0  0  0  0  0  0  0  0  0
   -1.8597    0.1425   -0.6045 C   0  0  0  0  0  0  0  0  0  0  0  0
   -2.2544    0.7289    0.2328 H   0  0  0  0  0  0  0  0  0  0  0  0
   -2.7200   -0.3663   -1.0588 H   0  0  0  0  0  0  0  0  0  0  0  0
   -1.2034    1.0871   -1.6284 C   0  0  0  0  0  0  0  0  0  0  0  0
   -1.7861    1.9971   -1.8019 H   0  0  0  0  0  0  0  0  0  0  0  0
   -1.0352    0.5784   -2.5840 H   0  0  0  0  0  0  0  0  0  0  0  0
    0.0951    1.3462   -0.9148 C   0  0  0  0  0  0  0  0  0  0  0  0
   -0.0851    2.1669   -0.2200 H   0  0  0  0  0  0  0  0  0  0  0  0
    0.8791    1.6605   -1.6115 H   0  0  0  0  0  0  0  0  0  0  0  0
    0.4660   -0.0070   -0.2412 C   0  0  1  0  0  0  0  0  0  0  0  0
    1.2273   -0.5416   -0.8194 H   0  0  0  0  0  0  0  0  0  0  0  0
    1.0292    0.3148    1.1775 C   0  0  0  0  0  0  0  0  0  0  0  0
    1.5371   -0.6085    1.8009 O   0  0  0  0  0  0  0  0  0  0  0  0
    1.0160    1.5514    1.8106 N   0  0  0  0  0  0  0  0  0  0  0  0
    0.5726    2.3244    1.3280 H   0  0  0  0  0  0  0  0  0  0  0  0
    1.5378    1.7761    3.1543 C   0  0  0  0  0  0  0  0  0  0  0  0
    2.6016    1.5202    3.2006 H   0  0  0  0  0  0  0  0  0  0  0  0
    1.4238    2.8279    3.4337 H   0  0  0  0  0  0  0  0  0  0  0  0
    0.9955    1.1637    3.8826 H   0  0  0  0  0  0  0  0  0  0  0  0
  1  2  1  0  0  0  0
  2  3  1  0  0  0  0
  2  4  1  0  0  0  0
  2  5  1  0  0  0  0
  5  6  2  0  0  0  0
  5  7  1  0  0  0  0
  7  8  1  0  0  0  0
  7 17  1  0  0  0  0
  8  9  1  0  0  0  0
  8 10  1  0  0  0  0
  8 11  1  0  0  0  0
 11 12  1  0  0  0  0
 11 13  1  0  0  0  0
 11 14  1  0  0  0  0
 14 15  1  0  0  0  0
 14 16  1  0  0  0  0
 14 17  1  0  0  0  0
 17 18  1  0  0  0  0
 17 19  1  0  0  0  0
 19 20  2  0  0  0  0
 19 21  1  0  0  0  0
 21 22  1  0  0  0  0
 21 23  1  0  0  0  0
 23 24  1  0  0  0  0
 23 25  1  0  0  0  0
 23 26  1  0  0  0  0
M  END
$$$$

  -OEChem-01062216093D

 26 26  0     1  0  0  0  0  0999 V2000
   -1.5134   -3.9353   -0.5765 H   0  0  0  0  0  0  0  0  0  0  0  0
   -1.9781   -2.9460   -0.5548 C   0  0  0  0  0  0  0  0  0  0  0  0
   -2.3709   -2.7675    0.4493 H   0  0  0  0  0  0  0  0  0  0  0  0
   -2.8040   -2.9228   -1.2696 H   0  0  0  0  0  0  0  0  0  0  0  0
   -0.9479   -1.8862   -0.9149 C   0  0  0  0  0  0  0  0  0  0  0  0
   -0.2644   -2.0742   -1.9137 O   0  0  0  0  0  0  0  0  0  0  0  0
   -0.7994   -0.7618   -0.0952 N   0  0  0  0  0  0  0  0  0  0  0  0
   -1.8503    0.1335   -0.5910 C   0  0  0  0  0  0  0  0  0  0  0  0
   -2.2409    0.7090    0.2555 H   0  0  0  0  0  0  0  0  0  0  0  0
   -2.7125   -0.3696   -1.0482 H   0  0  0  0  0  0  0  0  0  0  0  0
   -1.1981    1.0918   -1.6069 C   0  0  0  0  0  0  0  0  0  0  0  0
   -1.7832    2.0024   -1.7682 H   0  0  0  0  0  0  0  0  0  0  0  0
   -1.0336    0.5936   -2.5686 H   0  0  0  0  0  0  0  0  0  0  0  0
    0.1043    1.3482   -0.8982 C   0  0  0  0  0  0  0  0  0  0  0  0
   -0.0496    2.1691   -0.1965 H   0  0  0  0  0  0  0  0  0  0  0  0
    0.8839    1.6580   -1.6017 H   0  0  0  0  0  0  0  0  0  0  0  0
    0.4697   -0.0142   -0.2460 C   0  0  1  0  0  0  0  0  0  0  0  0
    1.2317   -0.5402   -0.8316 H   0  0  0  0  0  0  0  0  0  0  0  0
    1.0283    0.2890    1.1757 C   0  0  0  0  0  0  0  0  0  0  0  0
    1.7980   -0.5255    1.6679 O   0  0  0  0  0  0  0  0  0  0  0  0
    0.7444    1.4188    1.9315 N   0  0  0  0  0  0  0  0  0  0  0  0
    0.0317    2.0469    1.5767 H   0  0  0  0  0  0  0  0  0  0  0  0
    1.2536    1.6329    3.2817 C   0  0  0  0  0  0  0  0  0  0  0  0
    2.3486    1.6098    3.2879 H   0  0  0  0  0  0  0  0  0  0  0  0
    0.9291    2.6076    3.6583 H   0  0  0  0  0  0  0  0  0  0  0  0
    0.8808    0.8570    3.9586 H   0  0  0  0  0  0  0  0  0  0  0  0
  1  2  1  0  0  0  0
  2  3  1  0  0  0  0
  2  4  1  0  0  0  0
  2  5  1  0  0  0  0
  5  6  2  0  0  0  0
  5  7  1  0  0  0  0
  7  8  1  0  0  0  0
  7 17  1  0  0  0  0
  8  9  1  0  0  0  0
  8 10  1  0  0  0  0
  8 11  1  0  0  0  0
 11 12  1  0  0  0  0
 11 13  1  0  0  0  0
 11 14  1  0  0  0  0
 14 15  1  0  0  0  0
 14 16  1  0  0  0  0
 14 17  1  0  0  0  0
 17 18  1  0  0  0  0
 17 19  1  0  0  0  0
 19 20  2  0  0  0  0
 19 21  1  0  0  0  0
 21 22  1  0  0  0  0
 21 23  1  0  0  0  0
 23 24  1  0  0  0  0
 23 25  1  0  0  0  0
 23 26  1  0  0  0  0
M  END
$$$$

  -OEChem-01062216093D

 26 26  0     1  0  0  0  0  0999 V2000
   -1.5963   -3.9569   -0.7657 H   0  0  0  0  0  0  0  0  0  0  0  0
   -1.9956   -2.9526   -0.5994 C   0  0  0  0  0  0  0  0  0  0  0  0
   -2.2948   -2.8664    0.4482 H   0  0  0  0  0  0  0  0  0  0  0  0
   -2.8732   -2.8094   -1.2341 H   0  0  0  0  0  0  0  0  0  0  0  0
   -0.9346   -1.9124   -0.9299 C   0  0  0  0  0  0  0  0  0  0  0  0
   -0.2155   -2.1236   -1.8977 O   0  0  0  0  0  0  0  0  0  0  0  0
   -0.7833   -0.7922   -0.1042 N   0  0  0  0  0  0  0  0  0  0  0  0
   -1.8392    0.1122   -0.5739 C   0  0  0  0  0  0  0  0  0  0  0  0
   -2.2296    0.6657    0.2871 H   0  0  0  0  0  0  0  0  0  0  0  0
   -2.7003   -0.3813   -1.0425 H   0  0  0  0  0  0  0  0  0  0  0  0
   -1.1919    1.0956   -1.5688 C   0  0  0  0  0  0  0  0  0  0  0  0
   -1.7790    2.0091   -1.7066 H   0  0  0  0  0  0  0  0  0  0  0  0
   -1.0319    0.6195   -2.5424 H   0  0  0  0  0  0  0  0  0  0  0  0
    0.1154    1.3400   -0.8639 C   0  0  0  0  0  0  0  0  0  0  0  0
   -0.0207    2.1441   -0.1374 H   0  0  0  0  0  0  0  0  0  0  0  0
    0.8891    1.6630   -1.5679 H   0  0  0  0  0  0  0  0  0  0  0  0
    0.4815   -0.0360   -0.2488 C   0  0  1  0  0  0  0  0  0  0  0  0
    1.2449   -0.5469   -0.8459 H   0  0  0  0  0  0  0  0  0  0  0  0
    1.0385    0.2596    1.1714 C   0  0  0  0  0  0  0  0  0  0  0  0
    2.0220   -0.3608    1.5522 O   0  0  0  0  0  0  0  0  0  0  0  0
    0.5133    1.2175    2.0274 N   0  0  0  0  0  0  0  0  0  0  0  0
   -0.3644    1.6453    1.7519 H   0  0  0  0  0  0  0  0  0  0  0  0
    1.0091    1.4445    3.3798 C   0  0  0  0  0  0  0  0  0  0  0  0
    2.0746    1.6971    3.3612 H   0  0  0  0  0  0  0  0  0  0  0  0
    0.4679    2.2729    3.8465 H   0  0  0  0  0  0  0  0  0  0  0  0
    0.8697    0.5485    3.9937 H   0  0  0  0  0  0  0  0  0  0  0  0
  1  2  1  0  0  0  0
  2  3  1  0  0  0  0
  2  4  1  0  0  0  0
  2  5  1  0  0  0  0
  5  6  2  0  0  0  0
  5  7  1  0  0  0  0
  7  8  1  0  0  0  0
  7 17  1  0  0  0  0
  8  9  1  0  0  0  0
  8 10  1  0  0  0  0
  8 11  1  0  0  0  0
 11 12  1  0  0  0  0
 11 13  1  0  0  0  0
 11 14  1  0  0  0  0
 14 15  1  0  0  0  0
 14 16  1  0  0  0  0
 14 17  1  0  0  0  0
 17 18  1  0  0  0  0
 17 19  1  0  0  0  0
 19 20  2  0  0  0  0
 19 21  1  0  0  0  0
 21 22  1  0  0  0  0
 21 23  1  0  0  0  0
 23 24  1  0  0  0  0
 23 25  1  0  0  0  0
 23 26  1  0  0  0  0
M  END
$$$$

  -OEChem-01062216093D

 26 26  0     1  0  0  0  0  0999 V2000
   -1.6520   -3.9670   -0.7576 H   0  0  0  0  0  0  0  0  0  0  0  0
   -2.0400   -2.9469   -0.6922 C   0  0  0  0  0  0  0  0  0  0  0  0
   -2.4582   -2.7971    0.3063 H   0  0  0  0  0  0  0  0  0  0  0  0
   -2.8322   -2.8202   -1.4339 H   0  0  0  0  0  0  0  0  0  0  0  0
   -0.9178   -1.9504   -0.9509 C   0  0  0  0  0  0  0  0  0  0  0  0
   -0.1302   -2.2160   -1.8483 O   0  0  0  0  0  0  0  0  0  0  0  0
   -0.7662   -0.8359   -0.1163 N   0  0  0  0  0  0  0  0  0  0  0  0
   -1.8362    0.0726   -0.5450 C   0  0  0  0  0  0  0  0  0  0  0  0
   -2.2278    0.5913    0.3368 H   0  0  0  0  0  0  0  0  0  0  0  0
   -2.6939   -0.4111   -1.0283 H   0  0  0  0  0  0  0  0  0  0  0  0
   -1.2037    1.0950   -1.5079 C   0  0  0  0  0  0  0  0  0  0  0  0
   -1.7976    2.0090   -1.6070 H   0  0  0  0  0  0  0  0  0  0  0  0
   -1.0511    0.6546   -2.4996 H   0  0  0  0  0  0  0  0  0  0  0  0
    0.1113    1.3238   -0.8111 C   0  0  0  0  0  0  0  0  0  0  0  0
   -0.0174    2.0945   -0.0452 H   0  0  0  0  0  0  0  0  0  0  0  0
    0.8737    1.6809   -1.5111 H   0  0  0  0  0  0  0  0  0  0  0  0
    0.4940   -0.0678   -0.2502 C   0  0  1  0  0  0  0  0  0  0  0  0
    1.2586   -0.5523   -0.8672 H   0  0  0  0  0  0  0  0  0  0  0  0
    1.0629    0.2271    1.1613 C   0  0  0  0  0  0  0  0  0  0  0  0
    2.2071   -0.1144    1.4272 O   0  0  0  0  0  0  0  0  0  0  0  0
    0.3575    0.9485    2.1132 N   0  0  0  0  0  0  0  0  0  0  0  0
   -0.6209    1.1289    1.9134 H   0  0  0  0  0  0  0  0  0  0  0  0
    0.8654    1.2202    3.4524 C   0  0  0  0  0  0  0  0  0  0  0  0
    1.8136    1.7655    3.3996 H   0  0  0  0  0  0  0  0  0  0  0  0
    0.1496    1.8298    4.0121 H   0  0  0  0  0  0  0  0  0  0  0  0
    1.0269    0.2843    3.9973 H   0  0  0  0  0  0  0  0  0  0  0  0
  1  2  1  0  0  0  0
  2  3  1  0  0  0  0
  2  4  1  0  0  0  0
  2  5  1  0  0  0  0
  5  6  2  0  0  0  0
  5  7  1  0  0  0  0
  7  8  1  0  0  0  0
  7 17  1  0  0  0  0
  8  9  1  0  0  0  0
  8 10  1  0  0  0  0
  8 11  1  0  0  0  0
 11 12  1  0  0  0  0
 11 13  1  0  0  0  0
 11 14  1  0  0  0  0
 14 15  1  0  0  0  0
 14 16  1  0  0  0  0
 14 17  1  0  0  0  0
 17 18  1  0  0  0  0
 17 19  1  0  0  0  0
 19 20  2  0  0  0  0
 19 21  1  0  0  0  0
 21 22  1  0  0  0  0
 21 23  1  0  0  0  0
 23 24  1  0  0  0  0
 23 25  1  0  0  0  0
 23 26  1  0  0  0  0
M  END
$$$$

  -OEChem-01062216093D

 26 26  0     1  0  0  0  0  0999 V2000
   -1.7197   -3.9741   -0.8112 H   0  0  0  0  0  0  0  0  0  0  0  0
   -2.0749   -2.9405   -0.7721 C   0  0  0  0  0  0  0  0  0  0  0  0
   -2.5454   -2.7724    0.1999 H   0  0  0  0  0  0  0  0  0  0  0  0
   -2.8174   -2.7915   -1.5598 H   0  0  0  0  0  0  0  0  0  0  0  0
   -0.9043   -1.9843   -0.9687 C   0  0  0  0  0  0  0  0  0  0  0  0
   -0.0506   -2.3203   -1.7768 O   0  0  0  0  0  0  0  0  0  0  0  0
   -0.7530   -0.8691   -0.1332 N   0  0  0  0  0  0  0  0  0  0  0  0
   -1.8345    0.0430   -0.5261 C   0  0  0  0  0  0  0  0  0  0  0  0
   -2.2228    0.5340    0.3727 H   0  0  0  0  0  0  0  0  0  0  0  0
   -2.6915   -0.4308   -1.0194 H   0  0  0  0  0  0  0  0  0  0  0  0
   -1.2161    1.0954   -1.4629 C   0  0  0  0  0  0  0  0  0  0  0  0
   -1.8126    2.0109   -1.5252 H   0  0  0  0  0  0  0  0  0  0  0  0
   -1.0754    0.6872   -2.4697 H   0  0  0  0  0  0  0  0  0  0  0  0
    0.1077    1.3067   -0.7775 C   0  0  0  0  0  0  0  0  0  0  0  0
   -0.0162    2.0462    0.0217 H   0  0  0  0  0  0  0  0  0  0  0  0
    0.8596    1.6937   -1.4731 H   0  0  0  0  0  0  0  0  0  0  0  0
    0.5071   -0.0961   -0.2623 C   0  0  1  0  0  0  0  0  0  0  0  0
    1.2689   -0.5595   -0.8981 H   0  0  0  0  0  0  0  0  0  0  0  0
    1.0920    0.2110    1.1371 C   0  0  0  0  0  0  0  0  0  0  0  0
    2.3023    0.1689    1.3106 O   0  0  0  0  0  0  0  0  0  0  0  0
    0.2870    0.6607    2.1719 N   0  0  0  0  0  0  0  0  0  0  0  0
   -0.7147    0.5797    2.0284 H   0  0  0  0  0  0  0  0  0  0  0  0
    0.7888    0.9430    3.5109 C   0  0  0  0  0  0  0  0  0  0  0  0
    1.5682    1.7115    3.4742 H   0  0  0  0  0  0  0  0  0  0  0  0
   -0.0217    1.3062    4.1498 H   0  0  0  0  0  0  0  0  0  0  0  0
    1.2079    0.0373    3.9616 H   0  0  0  0  0  0  0  0  0  0  0  0
  1  2  1  0  0  0  0
  2  3  1  0  0  0  0
  2  4  1  0  0  0  0
  2  5  1  0  0  0  0
  5  6  2  0  0  0  0
  5  7  1  0  0  0  0
  7  8  1  0  0  0  0
  7 17  1  0  0  0  0
  8  9  1  0  0  0  0
  8 10  1  0  0  0  0
  8 11  1  0  0  0  0
 11 12  1  0  0  0  0
 11 13  1  0  0  0  0
 11 14  1  0  0  0  0
 14 15  1  0  0  0  0
 14 16  1  0  0  0  0
 14 17  1  0  0  0  0
 17 18  1  0  0  0  0
 17 19  1  0  0  0  0
 19 20  2  0  0  0  0
 19 21  1  0  0  0  0
 21 22  1  0  0  0  0
 21 23  1  0  0  0  0
 23 24  1  0  0  0  0
 23 25  1  0  0  0  0
 23 26  1  0  0  0  0
M  END
$$$$

  -OEChem-01062216093D

 26 26  0     1  0  0  0  0  0999 V2000
   -1.7845   -3.9752   -0.8928 H   0  0  0  0  0  0  0  0  0  0  0  0
   -2.1059   -2.9310   -0.8443 C   0  0  0  0  0  0  0  0  0  0  0  0
   -2.5993   -2.7656    0.1168 H   0  0  0  0  0  0  0  0  0  0  0  0
   -2.8193   -2.7440   -1.6505 H   0  0  0  0  0  0  0  0  0  0  0  0
   -0.8991   -2.0098   -0.9887 C   0  0  0  0  0  0  0  0  0  0  0  0
   -0.0046   -2.3985   -1.7256 O   0  0  0  0  0  0  0  0  0  0  0  0
   -0.7467   -0.8949   -0.1520 N   0  0  0  0  0  0  0  0  0  0  0  0
   -1.8338    0.0224   -0.5162 C   0  0  0  0  0  0  0  0  0  0  0  0
   -2.2149    0.4935    0.3963 H   0  0  0  0  0  0  0  0  0  0  0  0
   -2.6936   -0.4403   -1.0134 H   0  0  0  0  0  0  0  0  0  0  0  0
   -1.2251    1.0943   -1.4348 C   0  0  0  0  0  0  0  0  0  0  0  0
   -1.8212    2.0116   -1.4689 H   0  0  0  0  0  0  0  0  0  0  0  0
   -1.0959    0.7094   -2.4522 H   0  0  0  0  0  0  0  0  0  0  0  0
    0.1060    1.2881   -0.7597 C   0  0  0  0  0  0  0  0  0  0  0  0
   -0.0142    2.0044    0.0623 H   0  0  0  0  0  0  0  0  0  0  0  0
    0.8507    1.6959   -1.4512 H   0  0  0  0  0  0  0  0  0  0  0  0
    0.5167   -0.1231   -0.2778 C   0  0  1  0  0  0  0  0  0  0  0  0
    1.2734   -0.5734   -0.9285 H   0  0  0  0  0  0  0  0  0  0  0  0
    1.1171    0.1930    1.1116 C   0  0  0  0  0  0  0  0  0  0  0  0
    2.3121    0.4331    1.2212 O   0  0  0  0  0  0  0  0  0  0  0  0
    0.2974    0.3504    2.2164 N   0  0  0  0  0  0  0  0  0  0  0  0
   -0.6646    0.0441    2.1043 H   0  0  0  0  0  0  0  0  0  0  0  0
    0.7994    0.6406    3.5535 C   0  0  0  0  0  0  0  0  0  0  0  0
    1.3762    1.5716    3.5528 H   0  0  0  0  0  0  0  0  0  0  0  0
   -0.0337    0.7530    4.2537 H   0  0  0  0  0  0  0  0  0  0  0  0
    1.4430   -0.1722    3.9057 H   0  0  0  0  0  0  0  0  0  0  0  0
  1  2  1  0  0  0  0
  2  3  1  0  0  0  0
  2  4  1  0  0  0  0
  2  5  1  0  0  0  0
  5  6  2  0  0  0  0
  5  7  1  0  0  0  0
  7  8  1  0  0  0  0
  7 17  1  0  0  0  0
  8  9  1  0  0  0  0
  8 10  1  0  0  0  0
  8 11  1  0  0  0  0
 11 12  1  0  0  0  0
 11 13  1  0  0  0  0
 11 14  1  0  0  0  0
 14 15  1  0  0  0  0
 14 16  1  0  0  0  0
 14 17  1  0  0  0  0
 17 18  1  0  0  0  0
 17 19  1  0  0  0  0
 19 20  2  0  0  0  0
 19 21  1  0  0  0  0
 21 22  1  0  0  0  0
 21 23  1  0  0  0  0
 23 24  1  0  0  0  0
 23 25  1  0  0  0  0
 23 26  1  0  0  0  0
M  END
$$$$

  -OEChem-01062216093D

 26 26  0     1  0  0  0  0  0999 V2000
   -1.8364   -3.9662   -0.9574 H   0  0  0  0  0  0  0  0  0  0  0  0
   -2.1326   -2.9153   -0.8962 C   0  0  0  0  0  0  0  0  0  0  0  0
   -2.6392   -2.7547    0.0586 H   0  0  0  0  0  0  0  0  0  0  0  0
   -2.8262   -2.6972   -1.7117 H   0  0  0  0  0  0  0  0  0  0  0  0
   -0.9008   -2.0213   -1.0019 C   0  0  0  0  0  0  0  0  0  0  0  0
    0.0178   -2.4499   -1.6849 O   0  0  0  0  0  0  0  0  0  0  0  0
   -0.7453   -0.9048   -0.1667 N   0  0  0  0  0  0  0  0  0  0  0  0
   -1.8344    0.0164   -0.5129 C   0  0  0  0  0  0  0  0  0  0  0  0
   -2.2034    0.4820    0.4075 H   0  0  0  0  0  0  0  0  0  0  0  0
   -2.7009   -0.4394   -1.0038 H   0  0  0  0  0  0  0  0  0  0  0  0
   -1.2341    1.0934   -1.4297 C   0  0  0  0  0  0  0  0  0  0  0  0
   -1.8275    2.0129   -1.4502 H   0  0  0  0  0  0  0  0  0  0  0  0
   -1.1165    0.7159   -2.4512 H   0  0  0  0  0  0  0  0  0  0  0  0
    0.1036    1.2771   -0.7663 C   0  0  0  0  0  0  0  0  0  0  0  0
   -0.0110    1.9850    0.0644 H   0  0  0  0  0  0  0  0  0  0  0  0
    0.8421    1.6927   -1.4598 H   0  0  0  0  0  0  0  0  0  0  0  0
    0.5220   -0.1377   -0.2975 C   0  0  1  0  0  0  0  0  0  0  0  0
    1.2728   -0.5837   -0.9577 H   0  0  0  0  0  0  0  0  0  0  0  0
    1.1364    0.1853    1.0848 C   0  0  0  0  0  0  0  0  0  0  0  0
    2.2661    0.6508    1.1638 O   0  0  0  0  0  0  0  0  0  0  0  0
    0.3828    0.0513    2.2377 N   0  0  0  0  0  0  0  0  0  0  0  0
   -0.5144   -0.4142    2.1328 H   0  0  0  0  0  0  0  0  0  0  0  0
    0.9012    0.3111    3.5744 C   0  0  0  0  0  0  0  0  0  0  0  0
    1.2532    1.3449    3.6543 H   0  0  0  0  0  0  0  0  0  0  0  0
    0.1167    0.1560    4.3212 H   0  0  0  0  0  0  0  0  0  0  0  0
    1.7338   -0.3634    3.7997 H   0  0  0  0  0  0  0  0  0  0  0  0
  1  2  1  0  0  0  0
  2  3  1  0  0  0  0
  2  4  1  0  0  0  0
  2  5  1  0  0  0  0
  5  6  2  0  0  0  0
  5  7  1  0  0  0  0
  7  8  1  0  0  0  0
  7 17  1  0  0  0  0
  8  9  1  0  0  0  0
  8 10  1  0  0  0  0
  8 11  1  0  0  0  0
 11 12  1  0  0  0  0
 11 13  1  0  0  0  0
 11 14  1  0  0  0  0
 14 15  1  0  0  0  0
 14 16  1  0  0  0  0
 14 17  1  0  0  0  0
 17 18  1  0  0  0  0
 17 19  1  0  0  0  0
 19 20  2  0  0  0  0
 19 21  1  0  0  0  0
 21 22  1  0  0  0  0
 21 23  1  0  0  0  0
 23 24  1  0  0  0  0
 23 25  1  0  0  0  0
 23 26  1  0  0  0  0
M  END
$$$$

  -OEChem-01062216093D

 26 26  0     1  0  0  0  0  0999 V2000
   -1.8679   -3.9516   -0.9715 H   0  0  0  0  0  0  0  0  0  0  0  0
   -2.1511   -2.8971   -0.9089 C   0  0  0  0  0  0  0  0  0  0  0  0
   -2.6575   -2.7326    0.0455 H   0  0  0  0  0  0  0  0  0  0  0  0
   -2.8407   -2.6696   -1.7253 H   0  0  0  0  0  0  0  0  0  0  0  0
   -0.9088   -2.0167   -1.0110 C   0  0  0  0  0  0  0  0  0  0  0  0
    0.0152   -2.4672   -1.6722 O   0  0  0  0  0  0  0  0  0  0  0  0
   -0.7444   -0.8985   -0.1795 N   0  0  0  0  0  0  0  0  0  0  0  0
   -1.8338    0.0245   -0.5178 C   0  0  0  0  0  0  0  0  0  0  0  0
   -2.1915    0.4932    0.4056 H   0  0  0  0  0  0  0  0  0  0  0  0
   -2.7070   -0.4284   -0.9986 H   0  0  0  0  0  0  0  0  0  0  0  0
   -1.2405    1.0979   -1.4428 C   0  0  0  0  0  0  0  0  0  0  0  0
   -1.8321    2.0186   -1.4592 H   0  0  0  0  0  0  0  0  0  0  0  0
   -1.1326    0.7188   -2.4646 H   0  0  0  0  0  0  0  0  0  0  0  0
    0.1025    1.2778   -0.7901 C   0  0  0  0  0  0  0  0  0  0  0  0
   -0.0071    1.9864    0.0408 H   0  0  0  0  0  0  0  0  0  0  0  0
    0.8364    1.6933   -1.4885 H   0  0  0  0  0  0  0  0  0  0  0  0
    0.5261   -0.1370   -0.3203 C   0  0  1  0  0  0  0  0  0  0  0  0
    1.2711   -0.5855   -0.9850 H   0  0  0  0  0  0  0  0  0  0  0  0
    1.1508    0.1872    1.0593 C   0  0  0  0  0  0  0  0  0  0  0  0
    2.1901    0.8314    1.1389 O   0  0  0  0  0  0  0  0  0  0  0  0
    0.5269   -0.2249    2.2230 N   0  0  0  0  0  0  0  0  0  0  0  0
   -0.2954   -0.8107    2.1066 H   0  0  0  0  0  0  0  0  0  0  0  0
    1.0799   -0.0216    3.5554 C   0  0  0  0  0  0  0  0  0  0  0  0
    1.1896    1.0474    3.7654 H   0  0  0  0  0  0  0  0  0  0  0  0
    0.4166   -0.4559    4.3094 H   0  0  0  0  0  0  0  0  0  0  0  0
    2.0610   -0.5007    3.6400 H   0  0  0  0  0  0  0  0  0  0  0  0
  1  2  1  0  0  0  0
  2  3  1  0  0  0  0
  2  4  1  0  0  0  0
  2  5  1  0  0  0  0
  5  6  2  0  0  0  0
  5  7  1  0  0  0  0
  7  8  1  0  0  0  0
  7 17  1  0  0  0  0
  8  9  1  0  0  0  0
  8 10  1  0  0  0  0
  8 11  1  0  0  0  0
 11 12  1  0  0  0  0
 11 13  1  0  0  0  0
 11 14  1  0  0  0  0
 14 15  1  0  0  0  0
 14 16  1  0  0  0  0
 14 17  1  0  0  0  0
 17 18  1  0  0  0  0
 17 19  1  0  0  0  0
 19 20  2  0  0  0  0
 19 21  1  0  0  0  0
 21 22  1  0  0  0  0
 21 23  1  0  0  0  0
 23 24  1  0  0  0  0
 23 25  1  0  0  0  0
 23 26  1  0  0  0  0
M  END
$$$$

  -OEChem-01062216093D

 26 26  0     1  0  0  0  0  0999 V2000
   -1.8886   -3.9351   -0.9932 H   0  0  0  0  0  0  0  0  0  0  0  0
   -2.1650   -2.8796   -0.9183 C   0  0  0  0  0  0  0  0  0  0  0  0
   -2.6664   -2.7219    0.0398 H   0  0  0  0  0  0  0  0  0  0  0  0
   -2.8565   -2.6397   -1.7296 H   0  0  0  0  0  0  0  0  0  0  0  0
   -0.9174   -2.0057   -1.0156 C   0  0  0  0  0  0  0  0  0  0  0  0
    0.0095   -2.4693   -1.6638 O   0  0  0  0  0  0  0  0  0  0  0  0
   -0.7467   -0.8876   -0.1844 N   0  0  0  0  0  0  0  0  0  0  0  0
   -1.8380    0.0344   -0.5185 C   0  0  0  0  0  0  0  0  0  0  0  0
   -2.1860    0.5080    0.4062 H   0  0  0  0  0  0  0  0  0  0  0  0
   -2.7174   -0.4184   -0.9881 H   0  0  0  0  0  0  0  0  0  0  0  0
   -1.2527    1.1021   -1.4551 C   0  0  0  0  0  0  0  0  0  0  0  0
   -1.8433    2.0235   -1.4717 H   0  0  0  0  0  0  0  0  0  0  0  0
   -1.1529    0.7171   -2.4756 H   0  0  0  0  0  0  0  0  0  0  0  0
    0.0941    1.2831   -0.8125 C   0  0  0  0  0  0  0  0  0  0  0  0
   -0.0152    1.9950    0.0155 H   0  0  0  0  0  0  0  0  0  0  0  0
    0.8233    1.6980   -1.5160 H   0  0  0  0  0  0  0  0  0  0  0  0
    0.5250   -0.1294   -0.3364 C   0  0  1  0  0  0  0  0  0  0  0  0
    1.2641   -0.5805   -1.0056 H   0  0  0  0  0  0  0  0  0  0  0  0
    1.1623    0.1937    1.0401 C   0  0  0  0  0  0  0  0  0  0  0  0
    2.0926    0.9863    1.1398 O   0  0  0  0  0  0  0  0  0  0  0  0
    0.7290   -0.4663    2.1758 N   0  0  0  0  0  0  0  0  0  0  0  0
   -0.0016   -1.1602    2.0424 H   0  0  0  0  0  0  0  0  0  0  0  0
    1.3348   -0.3045    3.4913 C   0  0  0  0  0  0  0  0  0  0  0  0
    1.2706    0.7388    3.8173 H   0  0  0  0  0  0  0  0  0  0  0  0
    0.8159   -0.9281    4.2255 H   0  0  0  0  0  0  0  0  0  0  0  0
    2.3883   -0.6023    3.4664 H   0  0  0  0  0  0  0  0  0  0  0  0
  1  2  1  0  0  0  0
  2  3  1  0  0  0  0
  2  4  1  0  0  0  0
  2  5  1  0  0  0  0
  5  6  2  0  0  0  0
  5  7  1  0  0  0  0
  7  8  1  0  0  0  0
  7 17  1  0  0  0  0
  8  9  1  0  0  0  0
  8 10  1  0  0  0  0
  8 11  1  0  0  0  0
 11 12  1  0  0  0  0
 11 13  1  0  0  0  0
 11 14  1  0  0  0  0
 14 15  1  0  0  0  0
 14 16  1  0  0  0  0
 14 17  1  0  0  0  0
 17 18  1  0  0  0  0
 17 19  1  0  0  0  0
 19 20  2  0  0  0  0
 19 21  1  0  0  0  0
 21 22  1  0  0  0  0
 21 23  1  0  0  0  0
 23 24  1  0  0  0  0
 23 25  1  0  0  0  0
 23 26  1  0  0  0  0
M  END
$$$$

  -OEChem-01062216093D

 26 26  0     1  0  0  0  0  0999 V2000
   -1.8901   -3.9176   -0.9566 H   0  0  0  0  0  0  0  0  0  0  0  0
   -2.1679   -2.8615   -0.8944 C   0  0  0  0  0  0  0  0  0  0  0  0
   -2.6650   -2.6922    0.0641 H   0  0  0  0  0  0  0  0  0  0  0  0
   -2.8639   -2.6337   -1.7054 H   0  0  0  0  0  0  0  0  0  0  0  0
   -0.9224   -1.9863   -1.0102 C   0  0  0  0  0  0  0  0  0  0  0  0
    0.0006   -2.4577   -1.6585 O   0  0  0  0  0  0  0  0  0  0  0  0
   -0.7405   -0.8674   -0.1825 N   0  0  0  0  0  0  0  0  0  0  0  0
   -1.8358    0.0508   -0.5139 C   0  0  0  0  0  0  0  0  0  0  0  0
   -2.1705    0.5349    0.4104 H   0  0  0  0  0  0  0  0  0  0  0  0
   -2.7227   -0.4062   -0.9654 H   0  0  0  0  0  0  0  0  0  0  0  0
   -1.2644    1.1090   -1.4702 C   0  0  0  0  0  0  0  0  0  0  0  0
   -1.8571    2.0290   -1.4902 H   0  0  0  0  0  0  0  0  0  0  0  0
   -1.1740    0.7131   -2.4873 H   0  0  0  0  0  0  0  0  0  0  0  0
    0.0872    1.2982   -0.8422 C   0  0  0  0  0  0  0  0  0  0  0  0
   -0.0243    2.0181   -0.0219 H   0  0  0  0  0  0  0  0  0  0  0  0
    0.8098    1.7102   -1.5542 H   0  0  0  0  0  0  0  0  0  0  0  0
    0.5286   -0.1092   -0.3534 C   0  0  1  0  0  0  0  0  0  0  0  0
    1.2619   -0.5648   -1.0260 H   0  0  0  0  0  0  0  0  0  0  0  0
    1.1743    0.2071    1.0233 C   0  0  0  0  0  0  0  0  0  0  0  0
    1.9693    1.1292    1.1768 O   0  0  0  0  0  0  0  0  0  0  0  0
    0.9714   -0.6626    2.0794 N   0  0  0  0  0  0  0  0  0  0  0  0
    0.3626   -1.4566    1.9007 H   0  0  0  0  0  0  0  0  0  0  0  0
    1.6208   -0.5341    3.3776 C   0  0  0  0  0  0  0  0  0  0  0  0
    1.3654    0.4252    3.8397 H   0  0  0  0  0  0  0  0  0  0  0  0
    1.2939   -1.3371    4.0450 H   0  0  0  0  0  0  0  0  0  0  0  0
    2.7087   -0.5953    3.2692 H   0  0  0  0  0  0  0  0  0  0  0  0
  1  2  1  0  0  0  0
  2  3  1  0  0  0  0
  2  4  1  0  0  0  0
  2  5  1  0  0  0  0
  5  6  2  0  0  0  0
  5  7  1  0  0  0  0
  7  8  1  0  0  0  0
  7 17  1  0  0  0  0
  8  9  1  0  0  0  0
  8 10  1  0  0  0  0
  8 11  1  0  0  0  0
 11 12  1  0  0  0  0
 11 13  1  0  0  0  0
 11 14  1  0  0  0  0
 14 15  1  0  0  0  0
 14 16  1  0  0  0  0
 14 17  1  0  0  0  0
 17 18  1  0  0  0  0
 17 19  1  0  0  0  0
 19 20  2  0  0  0  0
 19 21  1  0  0  0  0
 21 22  1  0  0  0  0
 21 23  1  0  0  0  0
 23 24  1  0  0  0  0
 23 25  1  0  0  0  0
 23 26  1  0  0  0  0
M  END
$$$$

  -OEChem-01062216093D

 26 26  0     1  0  0  0  0  0999 V2000
   -1.8796   -3.8998   -0.9209 H   0  0  0  0  0  0  0  0  0  0  0  0
   -2.1613   -2.8447   -0.8609 C   0  0  0  0  0  0  0  0  0  0  0  0
   -2.6524   -2.6736    0.1005 H   0  0  0  0  0  0  0  0  0  0  0  0
   -2.8641   -2.6233   -1.6677 H   0  0  0  0  0  0  0  0  0  0  0  0
   -0.9200   -1.9647   -0.9881 C   0  0  0  0  0  0  0  0  0  0  0  0
    0.0079   -2.4462   -1.6224 O   0  0  0  0  0  0  0  0  0  0  0  0
   -0.7355   -0.8414   -0.1669 N   0  0  0  0  0  0  0  0  0  0  0  0
   -1.8359    0.0672   -0.5078 C   0  0  0  0  0  0  0  0  0  0  0  0
   -2.1625    0.5697    0.4098 H   0  0  0  0  0  0  0  0  0  0  0  0
   -2.7278   -0.3991   -0.9391 H   0  0  0  0  0  0  0  0  0  0  0  0
   -1.2782    1.1084   -1.4918 C   0  0  0  0  0  0  0  0  0  0  0  0
   -1.8767    2.0241   -1.5275 H   0  0  0  0  0  0  0  0  0  0  0  0
   -1.1911    0.6915   -2.5007 H   0  0  0  0  0  0  0  0  0  0  0  0
    0.0744    1.3178   -0.8739 C   0  0  0  0  0  0  0  0  0  0  0  0
   -0.0468    2.0554   -0.0718 H   0  0  0  0  0  0  0  0  0  0  0  0
    0.7920    1.7208   -1.5957 H   0  0  0  0  0  0  0  0  0  0  0  0
    0.5274   -0.0786   -0.3578 C   0  0  1  0  0  0  0  0  0  0  0  0
    1.2600   -0.5396   -1.0269 H   0  0  0  0  0  0  0  0  0  0  0  0
    1.1730    0.2352    1.0219 C   0  0  0  0  0  0  0  0  0  0  0  0
    1.8008    1.2632    1.2594 O   0  0  0  0  0  0  0  0  0  0  0  0
    1.2318   -0.7825    1.9568 N   0  0  0  0  0  0  0  0  0  0  0  0
    0.7751   -1.6552    1.7055 H   0  0  0  0  0  0  0  0  0  0  0  0
    1.9410   -0.6877    3.2265 C   0  0  0  0  0  0  0  0  0  0  0  0
    1.5469    0.1408    3.8242 H   0  0  0  0  0  0  0  0  0  0  0  0
    1.8191   -1.6135    3.7968 H   0  0  0  0  0  0  0  0  0  0  0  0
    3.0102   -0.5238    3.0568 H   0  0  0  0  0  0  0  0  0  0  0  0
  1  2  1  0  0  0  0
  2  3  1  0  0  0  0
  2  4  1  0  0  0  0
  2  5  1  0  0  0  0
  5  6  2  0  0  0  0
  5  7  1  0  0  0  0
  7  8  1  0  0  0  0
  7 17  1  0  0  0  0
  8  9  1  0  0  0  0
  8 10  1  0  0  0  0
  8 11  1  0  0  0  0
 11 12  1  0  0  0  0
 11 13  1  0  0  0  0
 11 14  1  0  0  0  0
 14 15  1  0  0  0  0
 14 16  1  0  0  0  0
 14 17  1  0  0  0  0
 17 18  1  0  0  0  0
 17 19  1  0  0  0  0
 19 20  2  0  0  0  0
 19 21  1  0  0  0  0
 21 22  1  0  0  0  0
 21 23  1  0  0  0  0
 23 24  1  0  0  0  0
 23 25  1  0  0  0  0
 23 26  1  0  0  0  0
M  END
$$$$

  -OEChem-01062216093D

 26 26  0     1  0  0  0  0  0999 V2000
   -1.8626   -3.8843   -0.8680 H   0  0  0  0  0  0  0  0  0  0  0  0
   -2.1518   -2.8312   -0.8094 C   0  0  0  0  0  0  0  0  0  0  0  0
   -2.6244   -2.6573    0.1608 H   0  0  0  0  0  0  0  0  0  0  0  0
   -2.8730   -2.6209   -1.6029 H   0  0  0  0  0  0  0  0  0  0  0  0
   -0.9210   -1.9415   -0.9673 C   0  0  0  0  0  0  0  0  0  0  0  0
   -0.0018   -2.4187   -1.6181 O   0  0  0  0  0  0  0  0  0  0  0  0
   -0.7274   -0.8173   -0.1495 N   0  0  0  0  0  0  0  0  0  0  0  0
   -1.8304    0.0844   -0.4994 C   0  0  0  0  0  0  0  0  0  0  0  0
   -2.1452    0.6080    0.4105 H   0  0  0  0  0  0  0  0  0  0  0  0
   -2.7295   -0.3894   -0.9072 H   0  0  0  0  0  0  0  0  0  0  0  0
   -1.2852    1.1053   -1.5134 C   0  0  0  0  0  0  0  0  0  0  0  0
   -1.8885    2.0171   -1.5667 H   0  0  0  0  0  0  0  0  0  0  0  0
   -1.2022    0.6651   -2.5127 H   0  0  0  0  0  0  0  0  0  0  0  0
    0.0691    1.3346   -0.9065 C   0  0  0  0  0  0  0  0  0  0  0  0
   -0.0589    2.0948   -0.1286 H   0  0  0  0  0  0  0  0  0  0  0  0
    0.7823    1.7223   -1.6407 H   0  0  0  0  0  0  0  0  0  0  0  0
    0.5285   -0.0513   -0.3618 C   0  0  1  0  0  0  0  0  0  0  0  0
    1.2584   -0.5193   -1.0291 H   0  0  0  0  0  0  0  0  0  0  0  0
    1.1781    0.2522    1.0208 C   0  0  0  0  0  0  0  0  0  0  0  0
    1.5774    1.3539    1.3868 O   0  0  0  0  0  0  0  0  0  0  0  0
    1.5227   -0.8356    1.8032 N   0  0  0  0  0  0  0  0  0  0  0  0
    1.2410   -1.7506    1.4606 H   0  0  0  0  0  0  0  0  0  0  0  0
    2.2567   -0.7412    3.0591 C   0  0  0  0  0  0  0  0  0  0  0  0
    1.6998   -0.1380    3.7837 H   0  0  0  0  0  0  0  0  0  0  0  0
    2.4088   -1.7382    3.4834 H   0  0  0  0  0  0  0  0  0  0  0  0
    3.2374   -0.2818    2.8965 H   0  0  0  0  0  0  0  0  0  0  0  0
  1  2  1  0  0  0  0
  2  3  1  0  0  0  0
  2  4  1  0  0  0  0
  2  5  1  0  0  0  0
  5  6  2  0  0  0  0
  5  7  1  0  0  0  0
  7  8  1  0  0  0  0
  7 17  1  0  0  0  0
  8  9  1  0  0  0  0
  8 10  1  0  0  0  0
  8 11  1  0  0  0  0
 11 12  1  0  0  0  0
 11 13  1  0  0  0  0
 11 14  1  0  0  0  0
 14 15  1  0  0  0  0
 14 16  1  0  0  0  0
 14 17  1  0  0  0  0
 17 18  1  0  0  0  0
 17 19  1  0  0  0  0
 19 20  2  0  0  0  0
 19 21  1  0  0  0  0
 21 22  1  0  0  0  0
 21 23  1  0  0  0  0
 23 24  1  0  0  0  0
 23 25  1  0  0  0  0
 23 26  1  0  0  0  0
M  END
$$$$

  -OEChem-01062216093D

 26 26  0     1  0  0  0  0  0999 V2000
   -1.8339   -3.8740   -0.7866 H   0  0  0  0  0  0  0  0  0  0  0  0
   -2.1335   -2.8236   -0.7343 C   0  0  0  0  0  0  0  0  0  0  0  0
   -2.5775   -2.6404    0.2475 H   0  0  0  0  0  0  0  0  0  0  0  0
   -2.8813   -2.6328   -1.5077 H   0  0  0  0  0  0  0  0  0  0  0  0
   -0.9190   -1.9228   -0.9431 C   0  0  0  0  0  0  0  0  0  0  0  0
   -0.0231   -2.3883   -1.6348 O   0  0  0  0  0  0  0  0  0  0  0  0
   -0.7057   -0.7959   -0.1348 N   0  0  0  0  0  0  0  0  0  0  0  0
   -1.8126    0.1029   -0.4782 C   0  0  0  0  0  0  0  0  0  0  0  0
   -2.1029    0.6465    0.4282 H   0  0  0  0  0  0  0  0  0  0  0  0
   -2.7232   -0.3771   -0.8524 H   0  0  0  0  0  0  0  0  0  0  0  0
   -1.2894    1.1033   -1.5270 C   0  0  0  0  0  0  0  0  0  0  0  0
   -1.8970    2.0116   -1.5888 H   0  0  0  0  0  0  0  0  0  0  0  0
   -1.2238    0.6409   -2.5175 H   0  0  0  0  0  0  0  0  0  0  0  0
    0.0747    1.3511   -0.9495 C   0  0  0  0  0  0  0  0  0  0  0  0
   -0.0361    2.1386   -0.1988 H   0  0  0  0  0  0  0  0  0  0  0  0
    0.7737    1.7146   -1.7094 H   0  0  0  0  0  0  0  0  0  0  0  0
    0.5382   -0.0263   -0.3852 C   0  0  1  0  0  0  0  0  0  0  0  0
    1.2568   -0.5014   -1.0596 H   0  0  0  0  0  0  0  0  0  0  0  0
    1.2080    0.2703    0.9906 C   0  0  0  0  0  0  0  0  0  0  0  0
    1.2739    1.3630    1.5459 O   0  0  0  0  0  0  0  0  0  0  0  0
    1.8507   -0.7900    1.6049 N   0  0  0  0  0  0  0  0  0  0  0  0
    1.7608   -1.6992    1.1583 H   0  0  0  0  0  0  0  0  0  0  0  0
    2.5274   -0.6978    2.8932 C   0  0  0  0  0  0  0  0  0  0  0  0
    1.8177   -0.4211    3.6799 H   0  0  0  0  0  0  0  0  0  0  0  0
    2.9756   -1.6613    3.1544 H   0  0  0  0  0  0  0  0  0  0  0  0
    3.3233    0.0533    2.8553 H   0  0  0  0  0  0  0  0  0  0  0  0
  1  2  1  0  0  0  0
  2  3  1  0  0  0  0
  2  4  1  0  0  0  0
  2  5  1  0  0  0  0
  5  6  2  0  0  0  0
  5  7  1  0  0  0  0
  7  8  1  0  0  0  0
  7 17  1  0  0  0  0
  8  9  1  0  0  0  0
  8 10  1  0  0  0  0
  8 11  1  0  0  0  0
 11 12  1  0  0  0  0
 11 13  1  0  0  0  0
 11 14  1  0  0  0  0
 14 15  1  0  0  0  0
 14 16  1  0  0  0  0
 14 17  1  0  0  0  0
 17 18  1  0  0  0  0
 17 19  1  0  0  0  0
 19 20  2  0  0  0  0
 19 21  1  0  0  0  0
 21 22  1  0  0  0  0
 21 23  1  0  0  0  0
 23 24  1  0  0  0  0
 23 25  1  0  0  0  0
 23 26  1  0  0  0  0
M  END
$$$$

  -OEChem-01062216093D

 26 26  0     1  0  0  0  0  0999 V2000
   -1.8231   -3.8721   -0.7159 H   0  0  0  0  0  0  0  0  0  0  0  0
   -2.1217   -2.8213   -0.6645 C   0  0  0  0  0  0  0  0  0  0  0  0
   -2.5396   -2.6294    0.3272 H   0  0  0  0  0  0  0  0  0  0  0  0
   -2.8895   -2.6367   -1.4195 H   0  0  0  0  0  0  0  0  0  0  0  0
   -0.9136   -1.9227   -0.9132 C   0  0  0  0  0  0  0  0  0  0  0  0
   -0.0379   -2.3862   -1.6324 O   0  0  0  0  0  0  0  0  0  0  0  0
   -0.6877   -0.7825   -0.1289 N   0  0  0  0  0  0  0  0  0  0  0  0
   -1.7971    0.1165   -0.4627 C   0  0  0  0  0  0  0  0  0  0  0  0
   -2.0704    0.6711    0.4424 H   0  0  0  0  0  0  0  0  0  0  0  0
   -2.7140   -0.3669   -0.8161 H   0  0  0  0  0  0  0  0  0  0  0  0
   -1.2876    1.1038   -1.5325 C   0  0  0  0  0  0  0  0  0  0  0  0
   -1.8963    2.0113   -1.5966 H   0  0  0  0  0  0  0  0  0  0  0  0
   -1.2383    0.6287   -2.5179 H   0  0  0  0  0  0  0  0  0  0  0  0
    0.0873    1.3597   -0.9815 C   0  0  0  0  0  0  0  0  0  0  0  0
    0.0100    2.1630   -0.2435 H   0  0  0  0  0  0  0  0  0  0  0  0
    0.7721    1.7006   -1.7643 H   0  0  0  0  0  0  0  0  0  0  0  0
    0.5467   -0.0134   -0.4107 C   0  0  1  0  0  0  0  0  0  0  0  0
    1.2547   -0.4976   -1.0899 H   0  0  0  0  0  0  0  0  0  0  0  0
    1.2334    0.3061    0.9491 C   0  0  0  0  0  0  0  0  0  0  0  0
    0.9551    1.2515    1.6816 O   0  0  0  0  0  0  0  0  0  0  0  0
    2.1492   -0.6183    1.4195 N   0  0  0  0  0  0  0  0  0  0  0  0
    2.2610   -1.4681    0.8725 H   0  0  0  0  0  0  0  0  0  0  0  0
    2.7642   -0.5479    2.7394 C   0  0  0  0  0  0  0  0  0  0  0  0
    2.0033   -0.6408    3.5213 H   0  0  0  0  0  0  0  0  0  0  0  0
    3.4889   -1.3585    2.8618 H   0  0  0  0  0  0  0  0  0  0  0  0
    3.2889    0.4046    2.8685 H   0  0  0  0  0  0  0  0  0  0  0  0
  1  2  1  0  0  0  0
  2  3  1  0  0  0  0
  2  4  1  0  0  0  0
  2  5  1  0  0  0  0
  5  6  2  0  0  0  0
  5  7  1  0  0  0  0
  7  8  1  0  0  0  0
  7 17  1  0  0  0  0
  8  9  1  0  0  0  0
  8 10  1  0  0  0  0
  8 11  1  0  0  0  0
 11 12  1  0  0  0  0
 11 13  1  0  0  0  0
 11 14  1  0  0  0  0
 14 15  1  0  0  0  0
 14 16  1  0  0  0  0
 14 17  1  0  0  0  0
 17 18  1  0  0  0  0
 17 19  1  0  0  0  0
 19 20  2  0  0  0  0
 19 21  1  0  0  0  0
 21 22  1  0  0  0  0
 21 23  1  0  0  0  0
 23 24  1  0  0  0  0
 23 25  1  0  0  0  0
 23 26  1  0  0  0  0
M  END
$$$$

  -OEChem-01062216093D

 26 26  0     1  0  0  0  0  0999 V2000
   -1.8322   -3.8790   -0.6648 H   0  0  0  0  0  0  0  0  0  0  0  0
   -2.1293   -2.8271   -0.6355 C   0  0  0  0  0  0  0  0  0  0  0  0
   -2.5515   -2.6151    0.3502 H   0  0  0  0  0  0  0  0  0  0  0  0
   -2.8934   -2.6556   -1.3974 H   0  0  0  0  0  0  0  0  0  0  0  0
   -0.9187   -1.9355   -0.8952 C   0  0  0  0  0  0  0  0  0  0  0  0
   -0.0478   -2.4025   -1.6182 O   0  0  0  0  0  0  0  0  0  0  0  0
   -0.6962   -0.7824   -0.1304 N   0  0  0  0  0  0  0  0  0  0  0  0
   -1.8020    0.1188   -0.4705 C   0  0  0  0  0  0  0  0  0  0  0  0
   -2.0840    0.6709    0.4333 H   0  0  0  0  0  0  0  0  0  0  0  0
   -2.7141   -0.3650   -0.8362 H   0  0  0  0  0  0  0  0  0  0  0  0
   -1.2790    1.1058   -1.5330 C   0  0  0  0  0  0  0  0  0  0  0  0
   -1.8813    2.0173   -1.5976 H   0  0  0  0  0  0  0  0  0  0  0  0
   -1.2287    0.6325   -2.5193 H   0  0  0  0  0  0  0  0  0  0  0  0
    0.0963    1.3538   -0.9776 C   0  0  0  0  0  0  0  0  0  0  0  0
    0.0301    2.1531   -0.2325 H   0  0  0  0  0  0  0  0  0  0  0  0
    0.7844    1.6917   -1.7587 H   0  0  0  0  0  0  0  0  0  0  0  0
    0.5431   -0.0210   -0.4089 C   0  0  1  0  0  0  0  0  0  0  0  0
    1.2498   -0.5119   -1.0844 H   0  0  0  0  0  0  0  0  0  0  0  0
    1.2284    0.3320    0.9406 C   0  0  0  0  0  0  0  0  0  0  0  0
    0.7561    1.1073    1.7681 O   0  0  0  0  0  0  0  0  0  0  0  0
    2.3576   -0.3840    1.2973 N   0  0  0  0  0  0  0  0  0  0  0  0
    2.6390   -1.1361    0.6738 H   0  0  0  0  0  0  0  0  0  0  0  0
    2.9880   -0.2890    2.6087 C   0  0  0  0  0  0  0  0  0  0  0  0
    2.3059   -0.6461    3.3873 H   0  0  0  0  0  0  0  0  0  0  0  0
    3.8966   -0.8980    2.6363 H   0  0  0  0  0  0  0  0  0  0  0  0
    3.2628    0.7479    2.8290 H   0  0  0  0  0  0  0  0  0  0  0  0
  1  2  1  0  0  0  0
  2  3  1  0  0  0  0
  2  4  1  0  0  0  0
  2  5  1  0  0  0  0
  5  6  2  0  0  0  0
  5  7  1  0  0  0  0
  7  8  1  0  0  0  0
  7 17  1  0  0  0  0
  8  9  1  0  0  0  0
  8 10  1  0  0  0  0
  8 11  1  0  0  0  0
 11 12  1  0  0  0  0
 11 13  1  0  0  0  0
 11 14  1  0  0  0  0
 14 15  1  0  0  0  0
 14 16  1  0  0  0  0
 14 17  1  0  0  0  0
 17 18  1  0  0  0  0
 17 19  1  0  0  0  0
 19 20  2  0  0  0  0
 19 21  1  0  0  0  0
 21 22  1  0  0  0  0
 21 23  1  0  0  0  0
 23 24  1  0  0  0  0
 23 25  1  0  0  0  0
 23 26  1  0  0  0  0
M  END
$$$$

  -OEChem-01062216093D

 26 26  0     1  0  0  0  0  0999 V2000
   -1.8557   -3.8902   -0.6745 H   0  0  0  0  0  0  0  0  0  0  0  0
   -2.1456   -2.8365   -0.6373 C   0  0  0  0  0  0  0  0  0  0  0  0
   -2.5700   -2.6300    0.3487 H   0  0  0  0  0  0  0  0  0  0  0  0
   -2.9056   -2.6530   -1.4006 H   0  0  0  0  0  0  0  0  0  0  0  0
   -0.9275   -1.9518   -0.8837 C   0  0  0  0  0  0  0  0  0  0  0  0
   -0.0511   -2.4214   -1.5987 O   0  0  0  0  0  0  0  0  0  0  0  0
   -0.7164   -0.7908   -0.1283 N   0  0  0  0  0  0  0  0  0  0  0  0
   -1.8132    0.1148   -0.4836 C   0  0  0  0  0  0  0  0  0  0  0  0
   -2.1118    0.6628    0.4176 H   0  0  0  0  0  0  0  0  0  0  0  0
   -2.7179   -0.3659   -0.8708 H   0  0  0  0  0  0  0  0  0  0  0  0
   -1.2644    1.1045   -1.5291 C   0  0  0  0  0  0  0  0  0  0  0  0
   -1.8589    2.0210   -1.5978 H   0  0  0  0  0  0  0  0  0  0  0  0
   -1.2021    0.6371   -2.5174 H   0  0  0  0  0  0  0  0  0  0  0  0
    0.1045    1.3390   -0.9511 C   0  0  0  0  0  0  0  0  0  0  0  0
    0.0330    2.1285   -0.1947 H   0  0  0  0  0  0  0  0  0  0  0  0
    0.8063    1.6805   -1.7184 H   0  0  0  0  0  0  0  0  0  0  0  0
    0.5342   -0.0398   -0.3838 C   0  0  1  0  0  0  0  0  0  0  0  0
    1.2467   -0.5364   -1.0488 H   0  0  0  0  0  0  0  0  0  0  0  0
    1.2062    0.3395    0.9633 C   0  0  0  0  0  0  0  0  0  0  0  0
    0.6260    0.9603    1.8503 O   0  0  0  0  0  0  0  0  0  0  0  0
    2.4836   -0.1272    1.2197 N   0  0  0  0  0  0  0  0  0  0  0  0
    2.8913   -0.7569    0.5342 H   0  0  0  0  0  0  0  0  0  0  0  0
    3.1621    0.0513    2.4980 C   0  0  0  0  0  0  0  0  0  0  0  0
    2.6216   -0.4710    3.2943 H   0  0  0  0  0  0  0  0  0  0  0  0
    4.1782   -0.3512    2.4459 H   0  0  0  0  0  0  0  0  0  0  0  0
    3.2264    1.1142    2.7535 H   0  0  0  0  0  0  0  0  0  0  0  0
  1  2  1  0  0  0  0
  2  3  1  0  0  0  0
  2  4  1  0  0  0  0
  2  5  1  0  0  0  0
  5  6  2  0  0  0  0
  5  7  1  0  0  0  0
  7  8  1  0  0  0  0
  7 17  1  0  0  0  0
  8  9  1  0  0  0  0
  8 10  1  0  0  0  0
  8 11  1  0  0  0  0
 11 12  1  0  0  0  0
 11 13  1  0  0  0  0
 11 14  1  0  0  0  0
 14 15  1  0  0  0  0
 14 16  1  0  0  0  0
 14 17  1  0  0  0  0
 17 18  1  0  0  0  0
 17 19  1  0  0  0  0
 19 20  2  0  0  0  0
 19 21  1  0  0  0  0
 21 22  1  0  0  0  0
 21 23  1  0  0  0  0
 23 24  1  0  0  0  0
 23 25  1  0  0  0  0
 23 26  1  0  0  0  0
M  END
$$$$

  -OEChem-01062216093D

 26 26  0     1  0  0  0  0  0999 V2000
   -1.8676   -3.8981   -0.6441 H   0  0  0  0  0  0  0  0  0  0  0  0
   -2.1574   -2.8438   -0.6356 C   0  0  0  0  0  0  0  0  0  0  0  0
   -2.6060   -2.6164    0.3351 H   0  0  0  0  0  0  0  0  0  0  0  0
   -2.8978   -2.6750   -1.4211 H   0  0  0  0  0  0  0  0  0  0  0  0
   -0.9328   -1.9653   -0.8708 C   0  0  0  0  0  0  0  0  0  0  0  0
   -0.0507   -2.4376   -1.5768 O   0  0  0  0  0  0  0  0  0  0  0  0
   -0.7333   -0.7974   -0.1239 N   0  0  0  0  0  0  0  0  0  0  0  0
   -1.8212    0.1103   -0.4997 C   0  0  0  0  0  0  0  0  0  0  0  0
   -2.1430    0.6524    0.3968 H   0  0  0  0  0  0  0  0  0  0  0  0
   -2.7140   -0.3692   -0.9149 H   0  0  0  0  0  0  0  0  0  0  0  0
   -1.2449    1.1036   -1.5246 C   0  0  0  0  0  0  0  0  0  0  0  0
   -1.8331    2.0236   -1.5990 H   0  0  0  0  0  0  0  0  0  0  0  0
   -1.1651    0.6432   -2.5150 H   0  0  0  0  0  0  0  0  0  0  0  0
    0.1143    1.3260   -0.9186 C   0  0  0  0  0  0  0  0  0  0  0  0
    0.0297    2.1050   -0.1512 H   0  0  0  0  0  0  0  0  0  0  0  0
    0.8328    1.6733   -1.6676 H   0  0  0  0  0  0  0  0  0  0  0  0
    0.5290   -0.0559   -0.3513 C   0  0  1  0  0  0  0  0  0  0  0  0
    1.2491   -0.5584   -1.0036 H   0  0  0  0  0  0  0  0  0  0  0  0
    1.1854    0.3475    0.9949 C   0  0  0  0  0  0  0  0  0  0  0  0
    0.5389    0.8041    1.9336 O   0  0  0  0  0  0  0  0  0  0  0  0
    2.5464    0.1591    1.1602 N   0  0  0  0  0  0  0  0  0  0  0  0
    3.0422   -0.3214    0.4148 H   0  0  0  0  0  0  0  0  0  0  0  0
    3.2450    0.4176    2.4136 C   0  0  0  0  0  0  0  0  0  0  0  0
    2.8896   -0.2606    3.1963 H   0  0  0  0  0  0  0  0  0  0  0  0
    4.3209    0.2659    2.2843 H   0  0  0  0  0  0  0  0  0  0  0  0
    3.0805    1.4500    2.7399 H   0  0  0  0  0  0  0  0  0  0  0  0
  1  2  1  0  0  0  0
  2  3  1  0  0  0  0
  2  4  1  0  0  0  0
  2  5  1  0  0  0  0
  5  6  2  0  0  0  0
  5  7  1  0  0  0  0
  7  8  1  0  0  0  0
  7 17  1  0  0  0  0
  8  9  1  0  0  0  0
  8 10  1  0  0  0  0
  8 11  1  0  0  0  0
 11 12  1  0  0  0  0
 11 13  1  0  0  0  0
 11 14  1  0  0  0  0
 14 15  1  0  0  0  0
 14 16  1  0  0  0  0
 14 17  1  0  0  0  0
 17 18  1  0  0  0  0
 17 19  1  0  0  0  0
 19 20  2  0  0  0  0
 19 21  1  0  0  0  0
 21 22  1  0  0  0  0
 21 23  1  0  0  0  0
 23 24  1  0  0  0  0
 23 25  1  0  0  0  0
 23 26  1  0  0  0  0
M  END
$$$$

  -OEChem-01062216093D

 26 26  0     1  0  0  0  0  0999 V2000
   -1.8767   -3.9067   -0.6509 H   0  0  0  0  0  0  0  0  0  0  0  0
   -2.1643   -2.8517   -0.6476 C   0  0  0  0  0  0  0  0  0  0  0  0
   -2.6292   -2.6234    0.3150 H   0  0  0  0  0  0  0  0  0  0  0  0
   -2.8901   -2.6811   -1.4462 H   0  0  0  0  0  0  0  0  0  0  0  0
   -0.9335   -1.9765   -0.8606 C   0  0  0  0  0  0  0  0  0  0  0  0
   -0.0414   -2.4493   -1.5537 O   0  0  0  0  0  0  0  0  0  0  0  0
   -0.7478   -0.8049   -0.1163 N   0  0  0  0  0  0  0  0  0  0  0  0
   -1.8266    0.1051   -0.5099 C   0  0  0  0  0  0  0  0  0  0  0  0
   -2.1685    0.6411    0.3828 H   0  0  0  0  0  0  0  0  0  0  0  0
   -2.7094   -0.3718   -0.9491 H   0  0  0  0  0  0  0  0  0  0  0  0
   -1.2250    1.1031   -1.5136 C   0  0  0  0  0  0  0  0  0  0  0  0
   -1.8069    2.0267   -1.5912 H   0  0  0  0  0  0  0  0  0  0  0  0
   -1.1285    0.6506   -2.5062 H   0  0  0  0  0  0  0  0  0  0  0  0
    0.1233    1.3138   -0.8795 C   0  0  0  0  0  0  0  0  0  0  0  0
    0.0249    2.0841   -0.1040 H   0  0  0  0  0  0  0  0  0  0  0  0
    0.8569    1.6673   -1.6108 H   0  0  0  0  0  0  0  0  0  0  0  0
    0.5255   -0.0718   -0.3131 C   0  0  1  0  0  0  0  0  0  0  0  0
    1.2555   -0.5772   -0.9518 H   0  0  0  0  0  0  0  0  0  0  0  0
    1.1634    0.3471    1.0365 C   0  0  0  0  0  0  0  0  0  0  0  0
    0.4875    0.6249    2.0223 O   0  0  0  0  0  0  0  0  0  0  0  0
    2.5406    0.4517    1.1280 N   0  0  0  0  0  0  0  0  0  0  0  0
    3.0855    0.1481    0.3263 H   0  0  0  0  0  0  0  0  0  0  0  0
    3.2376    0.7953    2.3616 C   0  0  0  0  0  0  0  0  0  0  0  0
    3.0657    0.0290    3.1247 H   0  0  0  0  0  0  0  0  0  0  0  0
    4.3140    0.8685    2.1791 H   0  0  0  0  0  0  0  0  0  0  0  0
    2.8876    1.7595    2.7450 H   0  0  0  0  0  0  0  0  0  0  0  0
  1  2  1  0  0  0  0
  2  3  1  0  0  0  0
  2  4  1  0  0  0  0
  2  5  1  0  0  0  0
  5  6  2  0  0  0  0
  5  7  1  0  0  0  0
  7  8  1  0  0  0  0
  7 17  1  0  0  0  0
  8  9  1  0  0  0  0
  8 10  1  0  0  0  0
  8 11  1  0  0  0  0
 11 12  1  0  0  0  0
 11 13  1  0  0  0  0
 11 14  1  0  0  0  0
 14 15  1  0  0  0  0
 14 16  1  0  0  0  0
 14 17  1  0  0  0  0
 17 18  1  0  0  0  0
 17 19  1  0  0  0  0
 19 20  2  0  0  0  0
 19 21  1  0  0  0  0
 21 22  1  0  0  0  0
 21 23  1  0  0  0  0
 23 24  1  0  0  0  0
 23 25  1  0  0  0  0
 23 26  1  0  0  0  0
M  END
$$$$

  -OEChem-01062216093D

 26 26  0     1  0  0  0  0  0999 V2000
   -1.8737   -3.9103   -0.6407 H   0  0  0  0  0  0  0  0  0  0  0  0
   -2.1646   -2.8564   -0.6520 C   0  0  0  0  0  0  0  0  0  0  0  0
   -2.6455   -2.6201    0.3008 H   0  0  0  0  0  0  0  0  0  0  0  0
   -2.8780   -2.6954   -1.4636 H   0  0  0  0  0  0  0  0  0  0  0  0
   -0.9334   -1.9792   -0.8526 C   0  0  0  0  0  0  0  0  0  0  0  0
   -0.0377   -2.4436   -1.5468 O   0  0  0  0  0  0  0  0  0  0  0  0
   -0.7613   -0.8061   -0.1077 N   0  0  0  0  0  0  0  0  0  0  0  0
   -1.8315    0.1029   -0.5241 C   0  0  0  0  0  0  0  0  0  0  0  0
   -2.1964    0.6356    0.3614 H   0  0  0  0  0  0  0  0  0  0  0  0
   -2.7019   -0.3743   -0.9872 H   0  0  0  0  0  0  0  0  0  0  0  0
   -1.2055    1.1025   -1.5090 C   0  0  0  0  0  0  0  0  0  0  0  0
   -1.7833    2.0278   -1.5974 H   0  0  0  0  0  0  0  0  0  0  0  0
   -1.0871    0.6527   -2.5004 H   0  0  0  0  0  0  0  0  0  0  0  0
    0.1294    1.3063   -0.8450 C   0  0  0  0  0  0  0  0  0  0  0  0
    0.0120    2.0706   -0.0657 H   0  0  0  0  0  0  0  0  0  0  0  0
    0.8780    1.6652   -1.5584 H   0  0  0  0  0  0  0  0  0  0  0  0
    0.5217   -0.0805   -0.2733 C   0  0  1  0  0  0  0  0  0  0  0  0
    1.2627   -0.5885   -0.8972 H   0  0  0  0  0  0  0  0  0  0  0  0
    1.1418    0.3489    1.0818 C   0  0  0  0  0  0  0  0  0  0  0  0
    0.4802    0.4100    2.1126 O   0  0  0  0  0  0  0  0  0  0  0  0
    2.4672    0.7484    1.1239 N   0  0  0  0  0  0  0  0  0  0  0  0
    3.0164    0.6332    0.2773 H   0  0  0  0  0  0  0  0  0  0  0  0
    3.1454    1.1466    2.3518 C   0  0  0  0  0  0  0  0  0  0  0  0
    3.1935    0.3062    3.0521 H   0  0  0  0  0  0  0  0  0  0  0  0
    4.1661    1.4733    2.1309 H   0  0  0  0  0  0  0  0  0  0  0  0
    2.6155    1.9760    2.8321 H   0  0  0  0  0  0  0  0  0  0  0  0
  1  2  1  0  0  0  0
  2  3  1  0  0  0  0
  2  4  1  0  0  0  0
  2  5  1  0  0  0  0
  5  6  2  0  0  0  0
  5  7  1  0  0  0  0
  7  8  1  0  0  0  0
  7 17  1  0  0  0  0
  8  9  1  0  0  0  0
  8 10  1  0  0  0  0
  8 11  1  0  0  0  0
 11 12  1  0  0  0  0
 11 13  1  0  0  0  0
 11 14  1  0  0  0  0
 14 15  1  0  0  0  0
 14 16  1  0  0  0  0
 14 17  1  0  0  0  0
 17 18  1  0  0  0  0
 17 19  1  0  0  0  0
 19 20  2  0  0  0  0
 19 21  1  0  0  0  0
 21 22  1  0  0  0  0
 21 23  1  0  0  0  0
 23 24  1  0  0  0  0
 23 25  1  0  0  0  0
 23 26  1  0  0  0  0
M  END
$$$$

  -OEChem-01062216093D

 26 26  0     1  0  0  0  0  0999 V2000
   -1.9036   -3.9168   -0.5625 H   0  0  0  0  0  0  0  0  0  0  0  0
   -2.1430   -2.8534   -0.6508 C   0  0  0  0  0  0  0  0  0  0  0  0
   -2.7466   -2.5633    0.2130 H   0  0  0  0  0  0  0  0  0  0  0  0
   -2.7220   -2.6986   -1.5641 H   0  0  0  0  0  0  0  0  0  0  0  0
   -0.8590   -2.0314   -0.6946 C   0  0  0  0  0  0  0  0  0  0  0  0
    0.1464   -2.6089   -1.0886 O   0  0  0  0  0  0  0  0  0  0  0  0
   -0.7861   -0.7482   -0.1410 N   0  0  0  0  0  0  0  0  0  0  0  0
   -1.8795    0.1070   -0.6013 C   0  0  0  0  0  0  0  0  0  0  0  0
   -2.3296    0.6036    0.2655 H   0  0  0  0  0  0  0  0  0  0  0  0
   -2.6807   -0.4119   -1.1360 H   0  0  0  0  0  0  0  0  0  0  0  0
   -1.2329    1.1404   -1.5249 C   0  0  0  0  0  0  0  0  0  0  0  0
   -1.8275    2.0550   -1.6138 H   0  0  0  0  0  0  0  0  0  0  0  0
   -1.0718    0.7181   -2.5224 H   0  0  0  0  0  0  0  0  0  0  0  0
    0.0823    1.3660   -0.8208 C   0  0  0  0  0  0  0  0  0  0  0  0
   -0.0738    2.0995   -0.0197 H   0  0  0  0  0  0  0  0  0  0  0  0
    0.8398    1.7634   -1.5037 H   0  0  0  0  0  0  0  0  0  0  0  0
    0.4953   -0.0146   -0.2623 C   0  0  1  0  0  0  0  0  0  0  0  0
    1.2274   -0.4989   -0.9154 H   0  0  0  0  0  0  0  0  0  0  0  0
    1.1326    0.3433    1.1050 C   0  0  0  0  0  0  0  0  0  0  0  0
    0.5699    0.1045    2.1673 O   0  0  0  0  0  0  0  0  0  0  0  0
    2.3360    1.0291    1.1391 N   0  0  0  0  0  0  0  0  0  0  0  0
    2.8202    1.1651    0.2571 H   0  0  0  0  0  0  0  0  0  0  0  0
    3.0167    1.3907    2.3769 C   0  0  0  0  0  0  0  0  0  0  0  0
    3.2953    0.4918    2.9368 H   0  0  0  0  0  0  0  0  0  0  0  0
    3.9259    1.9579    2.1561 H   0  0  0  0  0  0  0  0  0  0  0  0
    2.3686    2.0107    3.0054 H   0  0  0  0  0  0  0  0  0  0  0  0
  1  2  1  0  0  0  0
  2  3  1  0  0  0  0
  2  4  1  0  0  0  0
  2  5  1  0  0  0  0
  5  6  2  0  0  0  0
  5  7  1  0  0  0  0
  7  8  1  0  0  0  0
  7 17  1  0  0  0  0
  8  9  1  0  0  0  0
  8 10  1  0  0  0  0
  8 11  1  0  0  0  0
 11 12  1  0  0  0  0
 11 13  1  0  0  0  0
 11 14  1  0  0  0  0
 14 15  1  0  0  0  0
 14 16  1  0  0  0  0
 14 17  1  0  0  0  0
 17 18  1  0  0  0  0
 17 19  1  0  0  0  0
 19 20  2  0  0  0  0
 19 21  1  0  0  0  0
 21 22  1  0  0  0  0
 21 23  1  0  0  0  0
 23 24  1  0  0  0  0
 23 25  1  0  0  0  0
 23 26  1  0  0  0  0
M  END
$$$$

  -OEChem-01062216093D

 26 26  0     1  0  0  0  0  0999 V2000
   -1.8723   -3.9190   -0.5427 H   0  0  0  0  0  0  0  0  0  0  0  0
   -2.1282   -2.8599   -0.6359 C   0  0  0  0  0  0  0  0  0  0  0  0
   -2.7205   -2.5709    0.2360 H   0  0  0  0  0  0  0  0  0  0  0  0
   -2.7256   -2.7207   -1.5398 H   0  0  0  0  0  0  0  0  0  0  0  0
   -0.8565   -2.0213   -0.7095 C   0  0  0  0  0  0  0  0  0  0  0  0
    0.1412   -2.5788   -1.1488 O   0  0  0  0  0  0  0  0  0  0  0  0
   -0.7886   -0.7431   -0.1432 N   0  0  0  0  0  0  0  0  0  0  0  0
   -1.8824    0.1051   -0.6146 C   0  0  0  0  0  0  0  0  0  0  0  0
   -2.3430    0.6004    0.2472 H   0  0  0  0  0  0  0  0  0  0  0  0
   -2.6762   -0.4195   -1.1551 H   0  0  0  0  0  0  0  0  0  0  0  0
   -1.2338    1.1400   -1.5340 C   0  0  0  0  0  0  0  0  0  0  0  0
   -1.8318    2.0518   -1.6290 H   0  0  0  0  0  0  0  0  0  0  0  0
   -1.0621    0.7168   -2.5293 H   0  0  0  0  0  0  0  0  0  0  0  0
    0.0739    1.3713   -0.8185 C   0  0  0  0  0  0  0  0  0  0  0  0
   -0.0979    2.1036   -0.0200 H   0  0  0  0  0  0  0  0  0  0  0  0
    0.8346    1.7733   -1.4951 H   0  0  0  0  0  0  0  0  0  0  0  0
    0.4933   -0.0067   -0.2527 C   0  0  1  0  0  0  0  0  0  0  0  0
    1.2336   -0.4857   -0.9005 H   0  0  0  0  0  0  0  0  0  0  0  0
    1.1203    0.3363    1.1264 C   0  0  0  0  0  0  0  0  0  0  0  0
    0.7053   -0.1658    2.1641 O   0  0  0  0  0  0  0  0  0  0  0  0
    2.1391    1.2728    1.2212 N   0  0  0  0  0  0  0  0  0  0  0  0
    2.5148    1.6451    0.3547 H   0  0  0  0  0  0  0  0  0  0  0  0
    2.7862    1.6293    2.4786 C   0  0  0  0  0  0  0  0  0  0  0  0
    3.2783    0.7548    2.9170 H   0  0  0  0  0  0  0  0  0  0  0  0
    3.5410    2.4031    2.3096 H   0  0  0  0  0  0  0  0  0  0  0  0
    2.0511    2.0152    3.1928 H   0  0  0  0  0  0  0  0  0  0  0  0
  1  2  1  0  0  0  0
  2  3  1  0  0  0  0
  2  4  1  0  0  0  0
  2  5  1  0  0  0  0
  5  6  2  0  0  0  0
  5  7  1  0  0  0  0
  7  8  1  0  0  0  0
  7 17  1  0  0  0  0
  8  9  1  0  0  0  0
  8 10  1  0  0  0  0
  8 11  1  0  0  0  0
 11 12  1  0  0  0  0
 11 13  1  0  0  0  0
 11 14  1  0  0  0  0
 14 15  1  0  0  0  0
 14 16  1  0  0  0  0
 14 17  1  0  0  0  0
 17 18  1  0  0  0  0
 17 19  1  0  0  0  0
 19 20  2  0  0  0  0
 19 21  1  0  0  0  0
 21 22  1  0  0  0  0
 21 23  1  0  0  0  0
 23 24  1  0  0  0  0
 23 25  1  0  0  0  0
 23 26  1  0  0  0  0
M  END
$$$$

  -OEChem-01062216093D

 26 26  0     1  0  0  0  0  0999 V2000
   -1.8230   -3.9169   -0.4962 H   0  0  0  0  0  0  0  0  0  0  0  0
   -2.1055   -2.8656   -0.6004 C   0  0  0  0  0  0  0  0  0  0  0  0
   -2.6771   -2.5729    0.2840 H   0  0  0  0  0  0  0  0  0  0  0  0
   -2.7328   -2.7555   -1.4878 H   0  0  0  0  0  0  0  0  0  0  0  0
   -0.8556   -2.0019   -0.7287 C   0  0  0  0  0  0  0  0  0  0  0  0
    0.1252   -2.5295   -1.2369 O   0  0  0  0  0  0  0  0  0  0  0  0
   -0.7910   -0.7306   -0.1465 N   0  0  0  0  0  0  0  0  0  0  0  0
   -1.8863    0.1067   -0.6345 C   0  0  0  0  0  0  0  0  0  0  0  0
   -2.3567    0.6082    0.2182 H   0  0  0  0  0  0  0  0  0  0  0  0
   -2.6738   -0.4286   -1.1748 H   0  0  0  0  0  0  0  0  0  0  0  0
   -1.2392    1.1357   -1.5606 C   0  0  0  0  0  0  0  0  0  0  0  0
   -1.8429    2.0422   -1.6685 H   0  0  0  0  0  0  0  0  0  0  0  0
   -1.0586    0.7037   -2.5506 H   0  0  0  0  0  0  0  0  0  0  0  0
    0.0613    1.3818   -0.8383 C   0  0  0  0  0  0  0  0  0  0  0  0
   -0.1315    2.1202   -0.0515 H   0  0  0  0  0  0  0  0  0  0  0  0
    0.8246    1.7842   -1.5117 H   0  0  0  0  0  0  0  0  0  0  0  0
    0.4884    0.0118   -0.2539 C   0  0  1  0  0  0  0  0  0  0  0  0
    1.2352   -0.4653   -0.8955 H   0  0  0  0  0  0  0  0  0  0  0  0
    1.1088    0.3319    1.1364 C   0  0  0  0  0  0  0  0  0  0  0  0
    0.9012   -0.3979    2.0980 O   0  0  0  0  0  0  0  0  0  0  0  0
    1.8938    1.4574    1.3461 N   0  0  0  0  0  0  0  0  0  0  0  0
    2.1077    2.0364    0.5405 H   0  0  0  0  0  0  0  0  0  0  0  0
    2.5105    1.7803    2.6277 C   0  0  0  0  0  0  0  0  0  0  0  0
    3.2241    1.0012    2.9158 H   0  0  0  0  0  0  0  0  0  0  0  0
    3.0448    2.7328    2.5613 H   0  0  0  0  0  0  0  0  0  0  0  0
    1.7485    1.8670    3.4094 H   0  0  0  0  0  0  0  0  0  0  0  0
  1  2  1  0  0  0  0
  2  3  1  0  0  0  0
  2  4  1  0  0  0  0
  2  5  1  0  0  0  0
  5  6  2  0  0  0  0
  5  7  1  0  0  0  0
  7  8  1  0  0  0  0
  7 17  1  0  0  0  0
  8  9  1  0  0  0  0
  8 10  1  0  0  0  0
  8 11  1  0  0  0  0
 11 12  1  0  0  0  0
 11 13  1  0  0  0  0
 11 14  1  0  0  0  0
 14 15  1  0  0  0  0
 14 16  1  0  0  0  0
 14 17  1  0  0  0  0
 17 18  1  0  0  0  0
 17 19  1  0  0  0  0
 19 20  2  0  0  0  0
 19 21  1  0  0  0  0
 21 22  1  0  0  0  0
 21 23  1  0  0  0  0
 23 24  1  0  0  0  0
 23 25  1  0  0  0  0
 23 26  1  0  0  0  0
M  END
$$$$

  -OEChem-01062216093D

 26 26  0     1  0  0  0  0  0999 V2000
   -1.7625   -3.9170   -0.4547 H   0  0  0  0  0  0  0  0  0  0  0  0
   -2.0775   -2.8755   -0.5626 C   0  0  0  0  0  0  0  0  0  0  0  0
   -2.6250   -2.5855    0.3377 H   0  0  0  0  0  0  0  0  0  0  0  0
   -2.7392   -2.7946   -1.4279 H   0  0  0  0  0  0  0  0  0  0  0  0
   -0.8570   -1.9811   -0.7476 C   0  0  0  0  0  0  0  0  0  0  0  0
    0.1009   -2.4715   -1.3309 O   0  0  0  0  0  0  0  0  0  0  0  0
   -0.7983   -0.7168   -0.1493 N   0  0  0  0  0  0  0  0  0  0  0  0
   -1.8931    0.1073   -0.6606 C   0  0  0  0  0  0  0  0  0  0  0  0
   -2.3741    0.6193    0.1800 H   0  0  0  0  0  0  0  0  0  0  0  0
   -2.6739   -0.4408   -1.1989 H   0  0  0  0  0  0  0  0  0  0  0  0
   -1.2448    1.1269   -1.5969 C   0  0  0  0  0  0  0  0  0  0  0  0
   -1.8547    2.0264   -1.7270 H   0  0  0  0  0  0  0  0  0  0  0  0
   -1.0491    0.6798   -2.5774 H   0  0  0  0  0  0  0  0  0  0  0  0
    0.0454    1.3950   -0.8645 C   0  0  0  0  0  0  0  0  0  0  0  0
   -0.1730    2.1457   -0.0983 H   0  0  0  0  0  0  0  0  0  0  0  0
    0.8150    1.7935   -1.5334 H   0  0  0  0  0  0  0  0  0  0  0  0
    0.4759    0.0355   -0.2546 C   0  0  1  0  0  0  0  0  0  0  0  0
    1.2293   -0.4418   -0.8884 H   0  0  0  0  0  0  0  0  0  0  0  0
    1.0898    0.3341    1.1456 C   0  0  0  0  0  0  0  0  0  0  0  0
    1.1167   -0.5475    1.9950 O   0  0  0  0  0  0  0  0  0  0  0  0
    1.6091    1.5709    1.5051 N   0  0  0  0  0  0  0  0  0  0  0  0
    1.6347    2.2931    0.7929 H   0  0  0  0  0  0  0  0  0  0  0  0
    2.2142    1.8451    2.8039 C   0  0  0  0  0  0  0  0  0  0  0  0
    3.0948    1.2124    2.9572 H   0  0  0  0  0  0  0  0  0  0  0  0
    2.5259    2.8923    2.8624 H   0  0  0  0  0  0  0  0  0  0  0  0
    1.4979    1.6534    3.6098 H   0  0  0  0  0  0  0  0  0  0  0  0
  1  2  1  0  0  0  0
  2  3  1  0  0  0  0
  2  4  1  0  0  0  0
  2  5  1  0  0  0  0
  5  6  2  0  0  0  0
  5  7  1  0  0  0  0
  7  8  1  0  0  0  0
  7 17  1  0  0  0  0
  8  9  1  0  0  0  0
  8 10  1  0  0  0  0
  8 11  1  0  0  0  0
 11 12  1  0  0  0  0
 11 13  1  0  0  0  0
 11 14  1  0  0  0  0
 14 15  1  0  0  0  0
 14 16  1  0  0  0  0
 14 17  1  0  0  0  0
 17 18  1  0  0  0  0
 17 19  1  0  0  0  0
 19 20  2  0  0  0  0
 19 21  1  0  0  0  0
 21 22  1  0  0  0  0
 21 23  1  0  0  0  0
 23 24  1  0  0  0  0
 23 25  1  0  0  0  0
 23 26  1  0  0  0  0
M  END
$$$$

  -OEChem-01062216093D

 26 26  0     1  0  0  0  0  0999 V2000
   -1.7103   -3.9173   -0.4290 H   0  0  0  0  0  0  0  0  0  0  0  0
   -2.0513   -2.8835   -0.5334 C   0  0  0  0  0  0  0  0  0  0  0  0
   -2.5766   -2.5983    0.3816 H   0  0  0  0  0  0  0  0  0  0  0  0
   -2.7415   -2.8216   -1.3779 H   0  0  0  0  0  0  0  0  0  0  0  0
   -0.8570   -1.9653   -0.7626 C   0  0  0  0  0  0  0  0  0  0  0  0
    0.0755   -2.4225   -1.4099 O   0  0  0  0  0  0  0  0  0  0  0  0
   -0.8007   -0.7075   -0.1508 N   0  0  0  0  0  0  0  0  0  0  0  0
   -1.8947    0.1090   -0.6761 C   0  0  0  0  0  0  0  0  0  0  0  0
   -2.3777    0.6317    0.1566 H   0  0  0  0  0  0  0  0  0  0  0  0
   -2.6751   -0.4478   -1.2066 H   0  0  0  0  0  0  0  0  0  0  0  0
   -1.2471    1.1185   -1.6259 C   0  0  0  0  0  0  0  0  0  0  0  0
   -1.8609    2.0125   -1.7740 H   0  0  0  0  0  0  0  0  0  0  0  0
   -1.0436    0.6570   -2.5981 H   0  0  0  0  0  0  0  0  0  0  0  0
    0.0378    1.4053   -0.8912 C   0  0  0  0  0  0  0  0  0  0  0  0
   -0.1915    2.1708   -0.1457 H   0  0  0  0  0  0  0  0  0  0  0  0
    0.8114    1.7943   -1.5612 H   0  0  0  0  0  0  0  0  0  0  0  0
    0.4669    0.0540   -0.2616 C   0  0  1  0  0  0  0  0  0  0  0  0
    1.2243   -0.4251   -0.8896 H   0  0  0  0  0  0  0  0  0  0  0  0
    1.0764    0.3301    1.1454 C   0  0  0  0  0  0  0  0  0  0  0  0
    1.3481   -0.6224    1.8648 O   0  0  0  0  0  0  0  0  0  0  0  0
    1.3198    1.5943    1.6663 N   0  0  0  0  0  0  0  0  0  0  0  0
    1.1365    2.3922    1.0677 H   0  0  0  0  0  0  0  0  0  0  0  0
    1.8947    1.8271    2.9867 C   0  0  0  0  0  0  0  0  0  0  0  0
    2.8940    1.3842    3.0530 H   0  0  0  0  0  0  0  0  0  0  0  0
    1.9788    2.9011    3.1782 H   0  0  0  0  0  0  0  0  0  0  0  0
    1.2612    1.3869    3.7640 H   0  0  0  0  0  0  0  0  0  0  0  0
  1  2  1  0  0  0  0
  2  3  1  0  0  0  0
  2  4  1  0  0  0  0
  2  5  1  0  0  0  0
  5  6  2  0  0  0  0
  5  7  1  0  0  0  0
  7  8  1  0  0  0  0
  7 17  1  0  0  0  0
  8  9  1  0  0  0  0
  8 10  1  0  0  0  0
  8 11  1  0  0  0  0
 11 12  1  0  0  0  0
 11 13  1  0  0  0  0
 11 14  1  0  0  0  0
 14 15  1  0  0  0  0
 14 16  1  0  0  0  0
 14 17  1  0  0  0  0
 17 18  1  0  0  0  0
 17 19  1  0  0  0  0
 19 20  2  0  0  0  0
 19 21  1  0  0  0  0
 21 22  1  0  0  0  0
 21 23  1  0  0  0  0
 23 24  1  0  0  0  0
 23 25  1  0  0  0  0
 23 26  1  0  0  0  0
M  END
$$$$

  -OEChem-01062216093D

 26 26  0     1  0  0  0  0  0999 V2000
   -1.6895   -3.9188   -0.4217 H   0  0  0  0  0  0  0  0  0  0  0  0
   -2.0413   -2.8893   -0.5305 C   0  0  0  0  0  0  0  0  0  0  0  0
   -2.5659   -2.6045    0.3850 H   0  0  0  0  0  0  0  0  0  0  0  0
   -2.7357   -2.8394   -1.3724 H   0  0  0  0  0  0  0  0  0  0  0  0
   -0.8568   -1.9611   -0.7706 C   0  0  0  0  0  0  0  0  0  0  0  0
    0.0651   -2.4037   -1.4422 O   0  0  0  0  0  0  0  0  0  0  0  0
   -0.8014   -0.7071   -0.1500 N   0  0  0  0  0  0  0  0  0  0  0  0
   -1.8913    0.1102   -0.6842 C   0  0  0  0  0  0  0  0  0  0  0  0
   -2.3736    0.6411    0.1437 H   0  0  0  0  0  0  0  0  0  0  0  0
   -2.6734   -0.4484   -1.2106 H   0  0  0  0  0  0  0  0  0  0  0  0
   -1.2406    1.1126   -1.6419 C   0  0  0  0  0  0  0  0  0  0  0  0
   -1.8562    2.0029   -1.8034 H   0  0  0  0  0  0  0  0  0  0  0  0
   -1.0307    0.6411   -2.6082 H   0  0  0  0  0  0  0  0  0  0  0  0
    0.0403    1.4116   -0.9045 C   0  0  0  0  0  0  0  0  0  0  0  0
   -0.1820    2.1927   -0.1753 H   0  0  0  0  0  0  0  0  0  0  0  0
    0.8175    1.7860   -1.5787 H   0  0  0  0  0  0  0  0  0  0  0  0
    0.4594    0.0633   -0.2642 C   0  0  1  0  0  0  0  0  0  0  0  0
    1.2199   -0.4182   -0.8871 H   0  0  0  0  0  0  0  0  0  0  0  0
    1.0602    0.3213    1.1488 C   0  0  0  0  0  0  0  0  0  0  0  0
    1.6009   -0.6128    1.7257 O   0  0  0  0  0  0  0  0  0  0  0  0
    1.0281    1.5351    1.8227 N   0  0  0  0  0  0  0  0  0  0  0  0
    0.5630    2.3139    1.3706 H   0  0  0  0  0  0  0  0  0  0  0  0
    1.5940    1.7353    3.1524 C   0  0  0  0  0  0  0  0  0  0  0  0
    2.6708    1.5359    3.1444 H   0  0  0  0  0  0  0  0  0  0  0  0
    1.4365    2.7675    3.4792 H   0  0  0  0  0  0  0  0  0  0  0  0
    1.1168    1.0672    3.8773 H   0  0  0  0  0  0  0  0  0  0  0  0
  1  2  1  0  0  0  0
  2  3  1  0  0  0  0
  2  4  1  0  0  0  0
  2  5  1  0  0  0  0
  5  6  2  0  0  0  0
  5  7  1  0  0  0  0
  7  8  1  0  0  0  0
  7 17  1  0  0  0  0
  8  9  1  0  0  0  0
  8 10  1  0  0  0  0
  8 11  1  0  0  0  0
 11 12  1  0  0  0  0
 11 13  1  0  0  0  0
 11 14  1  0  0  0  0
 14 15  1  0  0  0  0
 14 16  1  0  0  0  0
 14 17  1  0  0  0  0
 17 18  1  0  0  0  0
 17 19  1  0  0  0  0
 19 20  2  0  0  0  0
 19 21  1  0  0  0  0
 21 22  1  0  0  0  0
 21 23  1  0  0  0  0
 23 24  1  0  0  0  0
 23 25  1  0  0  0  0
 23 26  1  0  0  0  0
M  END
$$$$

  -OEChem-01062216093D

 26 26  0     1  0  0  0  0  0999 V2000
   -1.7150   -3.9260   -0.4696 H   0  0  0  0  0  0  0  0  0  0  0  0
   -2.0505   -2.8901   -0.5691 C   0  0  0  0  0  0  0  0  0  0  0  0
   -2.5867   -2.6114    0.3414 H   0  0  0  0  0  0  0  0  0  0  0  0
   -2.7292   -2.8188   -1.4222 H   0  0  0  0  0  0  0  0  0  0  0  0
   -0.8494   -1.9751   -0.7758 C   0  0  0  0  0  0  0  0  0  0  0  0
    0.0910   -2.4357   -1.4072 O   0  0  0  0  0  0  0  0  0  0  0  0
   -0.7921   -0.7236   -0.1498 N   0  0  0  0  0  0  0  0  0  0  0  0
   -1.8835    0.1027   -0.6702 C   0  0  0  0  0  0  0  0  0  0  0  0
   -2.3613    0.6259    0.1651 H   0  0  0  0  0  0  0  0  0  0  0  0
   -2.6690   -0.4484   -1.1990 H   0  0  0  0  0  0  0  0  0  0  0  0
   -1.2356    1.1144   -1.6223 C   0  0  0  0  0  0  0  0  0  0  0  0
   -1.8520    2.0059   -1.7738 H   0  0  0  0  0  0  0  0  0  0  0  0
   -1.0299    0.6518   -2.5937 H   0  0  0  0  0  0  0  0  0  0  0  0
    0.0493    1.4095   -0.8891 C   0  0  0  0  0  0  0  0  0  0  0  0
   -0.1497    2.1932   -0.1559 H   0  0  0  0  0  0  0  0  0  0  0  0
    0.8239    1.7777   -1.5696 H   0  0  0  0  0  0  0  0  0  0  0  0
    0.4631    0.0537   -0.2659 C   0  0  1  0  0  0  0  0  0  0  0  0
    1.2227   -0.4220   -0.8947 H   0  0  0  0  0  0  0  0  0  0  0  0
    1.0594    0.2998    1.1486 C   0  0  0  0  0  0  0  0  0  0  0  0
    1.8698   -0.5049    1.5874 O   0  0  0  0  0  0  0  0  0  0  0  0
    0.7630    1.3967    1.9457 N   0  0  0  0  0  0  0  0  0  0  0  0
    0.0232    2.0140    1.6296 H   0  0  0  0  0  0  0  0  0  0  0  0
    1.3161    1.5933    3.2810 C   0  0  0  0  0  0  0  0  0  0  0  0
    2.4091    1.6478    3.2388 H   0  0  0  0  0  0  0  0  0  0  0  0
    0.9416    2.5267    3.7120 H   0  0  0  0  0  0  0  0  0  0  0  0
    1.0296    0.7672    3.9402 H   0  0  0  0  0  0  0  0  0  0  0  0
  1  2  1  0  0  0  0
  2  3  1  0  0  0  0
  2  4  1  0  0  0  0
  2  5  1  0  0  0  0
  5  6  2  0  0  0  0
  5  7  1  0  0  0  0
  7  8  1  0  0  0  0
  7 17  1  0  0  0  0
  8  9  1  0  0  0  0
  8 10  1  0  0  0  0
  8 11  1  0  0  0  0
 11 12  1  0  0  0  0
 11 13  1  0  0  0  0
 11 14  1  0  0  0  0
 14 15  1  0  0  0  0
 14 16  1  0  0  0  0
 14 17  1  0  0  0  0
 17 18  1  0  0  0  0
 17 19  1  0  0  0  0
 19 20  2  0  0  0  0
 19 21  1  0  0  0  0
 21 22  1  0  0  0  0
 21 23  1  0  0  0  0
 23 24  1  0  0  0  0
 23 25  1  0  0  0  0
 23 26  1  0  0  0  0
M  END
$$$$

  -OEChem-01062216093D

 26 26  0     1  0  0  0  0  0999 V2000
   -1.7659   -3.9413   -0.5635 H   0  0  0  0  0  0  0  0  0  0  0  0
   -2.0719   -2.8943   -0.6424 C   0  0  0  0  0  0  0  0  0  0  0  0
   -2.6307   -2.6293    0.2587 H   0  0  0  0  0  0  0  0  0  0  0  0
   -2.7204   -2.7818   -1.5144 H   0  0  0  0  0  0  0  0  0  0  0  0
   -0.8424   -2.0036   -0.7825 C   0  0  0  0  0  0  0  0  0  0  0  0
    0.1304   -2.4990   -1.3320 O   0  0  0  0  0  0  0  0  0  0  0  0
   -0.7838   -0.7538   -0.1521 N   0  0  0  0  0  0  0  0  0  0  0  0
   -1.8792    0.0864   -0.6435 C   0  0  0  0  0  0  0  0  0  0  0  0
   -2.3503    0.5902    0.2073 H   0  0  0  0  0  0  0  0  0  0  0  0
   -2.6684   -0.4500   -1.1806 H   0  0  0  0  0  0  0  0  0  0  0  0
   -1.2367    1.1193   -1.5774 C   0  0  0  0  0  0  0  0  0  0  0  0
   -1.8522    2.0157   -1.7019 H   0  0  0  0  0  0  0  0  0  0  0  0
   -1.0415    0.6792   -2.5613 H   0  0  0  0  0  0  0  0  0  0  0  0
    0.0566    1.3966   -0.8516 C   0  0  0  0  0  0  0  0  0  0  0  0
   -0.1217    2.1648   -0.0953 H   0  0  0  0  0  0  0  0  0  0  0  0
    0.8248    1.7751   -1.5337 H   0  0  0  0  0  0  0  0  0  0  0  0
    0.4696    0.0268   -0.2655 C   0  0  1  0  0  0  0  0  0  0  0  0
    1.2249   -0.4385   -0.9077 H   0  0  0  0  0  0  0  0  0  0  0  0
    1.0676    0.2692    1.1457 C   0  0  0  0  0  0  0  0  0  0  0  0
    2.0952   -0.3133    1.4638 O   0  0  0  0  0  0  0  0  0  0  0  0
    0.5427    1.1860    2.0450 N   0  0  0  0  0  0  0  0  0  0  0  0
   -0.3608    1.5867    1.8157 H   0  0  0  0  0  0  0  0  0  0  0  0
    1.0909    1.4063    3.3782 C   0  0  0  0  0  0  0  0  0  0  0  0
    2.1356    1.7287    3.3146 H   0  0  0  0  0  0  0  0  0  0  0  0
    0.5221    2.1838    3.8969 H   0  0  0  0  0  0  0  0  0  0  0  0
    1.0412    0.4861    3.9697 H   0  0  0  0  0  0  0  0  0  0  0  0
  1  2  1  0  0  0  0
  2  3  1  0  0  0  0
  2  4  1  0  0  0  0
  2  5  1  0  0  0  0
  5  6  2  0  0  0  0
  5  7  1  0  0  0  0
  7  8  1  0  0  0  0
  7 17  1  0  0  0  0
  8  9  1  0  0  0  0
  8 10  1  0  0  0  0
  8 11  1  0  0  0  0
 11 12  1  0  0  0  0
 11 13  1  0  0  0  0
 11 14  1  0  0  0  0
 14 15  1  0  0  0  0
 14 16  1  0  0  0  0
 14 17  1  0  0  0  0
 17 18  1  0  0  0  0
 17 19  1  0  0  0  0
 19 20  2  0  0  0  0
 19 21  1  0  0  0  0
 21 22  1  0  0  0  0
 21 23  1  0  0  0  0
 23 24  1  0  0  0  0
 23 25  1  0  0  0  0
 23 26  1  0  0  0  0
M  END
$$$$

  -OEChem-01062216093D

 26 26  0     1  0  0  0  0  0999 V2000
   -1.8228   -3.9559   -0.6834 H   0  0  0  0  0  0  0  0  0  0  0  0
   -2.0950   -2.8980   -0.7371 C   0  0  0  0  0  0  0  0  0  0  0  0
   -2.6898   -2.6500    0.1454 H   0  0  0  0  0  0  0  0  0  0  0  0
   -2.6963   -2.7362   -1.6347 H   0  0  0  0  0  0  0  0  0  0  0  0
   -0.8359   -2.0385   -0.7853 C   0  0  0  0  0  0  0  0  0  0  0  0
    0.1649   -2.5706   -1.2418 O   0  0  0  0  0  0  0  0  0  0  0  0
   -0.7781   -0.7892   -0.1527 N   0  0  0  0  0  0  0  0  0  0  0  0
   -1.8786    0.0653   -0.6087 C   0  0  0  0  0  0  0  0  0  0  0  0
   -2.3384    0.5477    0.2604 H   0  0  0  0  0  0  0  0  0  0  0  0
   -2.6751   -0.4538   -1.1511 H   0  0  0  0  0  0  0  0  0  0  0  0
   -1.2440    1.1200   -1.5224 C   0  0  0  0  0  0  0  0  0  0  0  0
   -1.8576    2.0217   -1.6141 H   0  0  0  0  0  0  0  0  0  0  0  0
   -1.0644    0.7060   -2.5204 H   0  0  0  0  0  0  0  0  0  0  0  0
    0.0612    1.3737   -0.8093 C   0  0  0  0  0  0  0  0  0  0  0  0
   -0.0975    2.1176   -0.0226 H   0  0  0  0  0  0  0  0  0  0  0  0
    0.8207    1.7689   -1.4918 H   0  0  0  0  0  0  0  0  0  0  0  0
    0.4770   -0.0102   -0.2658 C   0  0  1  0  0  0  0  0  0  0  0  0
    1.2244   -0.4646   -0.9248 H   0  0  0  0  0  0  0  0  0  0  0  0
    1.0871    0.2380    1.1350 C   0  0  0  0  0  0  0  0  0  0  0  0
    2.2534   -0.0627    1.3485 O   0  0  0  0  0  0  0  0  0  0  0  0
    0.3941    0.9231    2.1213 N   0  0  0  0  0  0  0  0  0  0  0  0
   -0.5963    1.0726    1.9578 H   0  0  0  0  0  0  0  0  0  0  0  0
    0.9357    1.1789    3.4503 C   0  0  0  0  0  0  0  0  0  0  0  0
    1.8685    1.7485    3.3811 H   0  0  0  0  0  0  0  0  0  0  0  0
    0.2222    1.7586    4.0436 H   0  0  0  0  0  0  0  0  0  0  0  0
    1.1362    0.2363    3.9702 H   0  0  0  0  0  0  0  0  0  0  0  0
  1  2  1  0  0  0  0
  2  3  1  0  0  0  0
  2  4  1  0  0  0  0
  2  5  1  0  0  0  0
  5  6  2  0  0  0  0
  5  7  1  0  0  0  0
  7  8  1  0  0  0  0
  7 17  1  0  0  0  0
  8  9  1  0  0  0  0
  8 10  1  0  0  0  0
  8 11  1  0  0  0  0
 11 12  1  0  0  0  0
 11 13  1  0  0  0  0
 11 14  1  0  0  0  0
 14 15  1  0  0  0  0
 14 16  1  0  0  0  0
 14 17  1  0  0  0  0
 17 18  1  0  0  0  0
 17 19  1  0  0  0  0
 19 20  2  0  0  0  0
 19 21  1  0  0  0  0
 21 22  1  0  0  0  0
 21 23  1  0  0  0  0
 23 24  1  0  0  0  0
 23 25  1  0  0  0  0
 23 26  1  0  0  0  0
M  END
$$$$

  -OEChem-01062216093D

 26 26  0     1  0  0  0  0  0999 V2000
   -1.8683   -3.9650   -0.7847 H   0  0  0  0  0  0  0  0  0  0  0  0
   -2.1143   -2.8997   -0.8181 C   0  0  0  0  0  0  0  0  0  0  0  0
   -2.7393   -2.6638    0.0466 H   0  0  0  0  0  0  0  0  0  0  0  0
   -2.6748   -2.6995   -1.7342 H   0  0  0  0  0  0  0  0  0  0  0  0
   -0.8355   -2.0679   -0.7904 C   0  0  0  0  0  0  0  0  0  0  0  0
    0.1813   -2.6310   -1.1674 O   0  0  0  0  0  0  0  0  0  0  0  0
   -0.7765   -0.8176   -0.1594 N   0  0  0  0  0  0  0  0  0  0  0  0
   -1.8804    0.0491   -0.5846 C   0  0  0  0  0  0  0  0  0  0  0  0
   -2.3303    0.5142    0.2991 H   0  0  0  0  0  0  0  0  0  0  0  0
   -2.6834   -0.4546   -1.1309 H   0  0  0  0  0  0  0  0  0  0  0  0
   -1.2514    1.1206   -1.4806 C   0  0  0  0  0  0  0  0  0  0  0  0
   -1.8598    2.0283   -1.5417 H   0  0  0  0  0  0  0  0  0  0  0  0
   -1.0885    0.7303   -2.4908 H   0  0  0  0  0  0  0  0  0  0  0  0
    0.0654    1.3500   -0.7807 C   0  0  0  0  0  0  0  0  0  0  0  0
   -0.0794    2.0684    0.0339 H   0  0  0  0  0  0  0  0  0  0  0  0
    0.8171    1.7629   -1.4614 H   0  0  0  0  0  0  0  0  0  0  0  0
    0.4840   -0.0451   -0.2738 C   0  0  1  0  0  0  0  0  0  0  0  0
    1.2219   -0.4929   -0.9480 H   0  0  0  0  0  0  0  0  0  0  0  0
    1.1106    0.2147    1.1143 C   0  0  0  0  0  0  0  0  0  0  0  0
    2.3269    0.2076    1.2461 O   0  0  0  0  0  0  0  0  0  0  0  0
    0.3265    0.6323    2.1772 N   0  0  0  0  0  0  0  0  0  0  0  0
   -0.6772    0.5373    2.0575 H   0  0  0  0  0  0  0  0  0  0  0  0
    0.8582    0.9007    3.5072 C   0  0  0  0  0  0  0  0  0  0  0  0
    1.6242    1.6821    3.4635 H   0  0  0  0  0  0  0  0  0  0  0  0
    0.0587    1.2404    4.1724 H   0  0  0  0  0  0  0  0  0  0  0  0
    1.3027   -0.0055    3.9317 H   0  0  0  0  0  0  0  0  0  0  0  0
  1  2  1  0  0  0  0
  2  3  1  0  0  0  0
  2  4  1  0  0  0  0
  2  5  1  0  0  0  0
  5  6  2  0  0  0  0
  5  7  1  0  0  0  0
  7  8  1  0  0  0  0
  7 17  1  0  0  0  0
  8  9  1  0  0  0  0
  8 10  1  0  0  0  0
  8 11  1  0  0  0  0
 11 12  1  0  0  0  0
 11 13  1  0  0  0  0
 11 14  1  0  0  0  0
 14 15  1  0  0  0  0
 14 16  1  0  0  0  0
 14 17  1  0  0  0  0
 17 18  1  0  0  0  0
 17 19  1  0  0  0  0
 19 20  2  0  0  0  0
 19 21  1  0  0  0  0
 21 22  1  0  0  0  0
 21 23  1  0  0  0  0
 23 24  1  0  0  0  0
 23 25  1  0  0  0  0
 23 26  1  0  0  0  0
M  END
$$$$

  -OEChem-01062216093D

 26 26  0     1  0  0  0  0  0999 V2000
   -1.8998   -3.9648   -0.8687 H   0  0  0  0  0  0  0  0  0  0  0  0
   -2.1299   -2.8954   -0.8768 C   0  0  0  0  0  0  0  0  0  0  0  0
   -2.7717   -2.6752   -0.0202 H   0  0  0  0  0  0  0  0  0  0  0  0
   -2.6653   -2.6614   -1.7999 H   0  0  0  0  0  0  0  0  0  0  0  0
   -0.8406   -2.0834   -0.7958 C   0  0  0  0  0  0  0  0  0  0  0  0
    0.1836   -2.6682   -1.1160 O   0  0  0  0  0  0  0  0  0  0  0  0
   -0.7806   -0.8312   -0.1685 N   0  0  0  0  0  0  0  0  0  0  0  0
   -1.8850    0.0428   -0.5771 C   0  0  0  0  0  0  0  0  0  0  0  0
   -2.3259    0.5013    0.3145 H   0  0  0  0  0  0  0  0  0  0  0  0
   -2.6939   -0.4518   -1.1221 H   0  0  0  0  0  0  0  0  0  0  0  0
   -1.2590    1.1203   -1.4660 C   0  0  0  0  0  0  0  0  0  0  0  0
   -1.8628    2.0322   -1.5104 H   0  0  0  0  0  0  0  0  0  0  0  0
   -1.1076    0.7414   -2.4824 H   0  0  0  0  0  0  0  0  0  0  0  0
    0.0653    1.3333   -0.7752 C   0  0  0  0  0  0  0  0  0  0  0  0
   -0.0720    2.0379    0.0538 H   0  0  0  0  0  0  0  0  0  0  0  0
    0.8132    1.7546   -1.4550 H   0  0  0  0  0  0  0  0  0  0  0  0
    0.4860   -0.0668   -0.2859 C   0  0  1  0  0  0  0  0  0  0  0  0
    1.2162   -0.5139   -0.9689 H   0  0  0  0  0  0  0  0  0  0  0  0
    1.1279    0.2049    1.0917 C   0  0  0  0  0  0  0  0  0  0  0  0
    2.3230    0.4559    1.1723 O   0  0  0  0  0  0  0  0  0  0  0  0
    0.3352    0.3356    2.2188 N   0  0  0  0  0  0  0  0  0  0  0  0
   -0.6286    0.0296    2.1220 H   0  0  0  0  0  0  0  0  0  0  0  0
    0.8731    0.5771    3.5514 C   0  0  0  0  0  0  0  0  0  0  0  0
    1.4396    1.5140    3.5721 H   0  0  0  0  0  0  0  0  0  0  0  0
    0.0597    0.6505    4.2795 H   0  0  0  0  0  0  0  0  0  0  0  0
    1.5352   -0.2420    3.8508 H   0  0  0  0  0  0  0  0  0  0  0  0
  1  2  1  0  0  0  0
  2  3  1  0  0  0  0
  2  4  1  0  0  0  0
  2  5  1  0  0  0  0
  5  6  2  0  0  0  0
  5  7  1  0  0  0  0
  7  8  1  0  0  0  0
  7 17  1  0  0  0  0
  8  9  1  0  0  0  0
  8 10  1  0  0  0  0
  8 11  1  0  0  0  0
 11 12  1  0  0  0  0
 11 13  1  0  0  0  0
 11 14  1  0  0  0  0
 14 15  1  0  0  0  0
 14 16  1  0  0  0  0
 14 17  1  0  0  0  0
 17 18  1  0  0  0  0
 17 19  1  0  0  0  0
 19 20  2  0  0  0  0
 19 21  1  0  0  0  0
 21 22  1  0  0  0  0
 21 23  1  0  0  0  0
 23 24  1  0  0  0  0
 23 25  1  0  0  0  0
 23 26  1  0  0  0  0
M  END
$$$$

  -OEChem-01062216093D

 26 26  0     1  0  0  0  0  0999 V2000
   -1.9289   -3.9585   -0.9061 H   0  0  0  0  0  0  0  0  0  0  0  0
   -2.1475   -2.8867   -0.9121 C   0  0  0  0  0  0  0  0  0  0  0  0
   -2.7982   -2.6639   -0.0628 H   0  0  0  0  0  0  0  0  0  0  0  0
   -2.6684   -2.6429   -1.8410 H   0  0  0  0  0  0  0  0  0  0  0  0
   -0.8511   -2.0879   -0.8109 C   0  0  0  0  0  0  0  0  0  0  0  0
    0.1725   -2.6842   -1.1114 O   0  0  0  0  0  0  0  0  0  0  0  0
   -0.7840   -0.8368   -0.1821 N   0  0  0  0  0  0  0  0  0  0  0  0
   -1.8870    0.0444   -0.5781 C   0  0  0  0  0  0  0  0  0  0  0  0
   -2.3182    0.4999    0.3201 H   0  0  0  0  0  0  0  0  0  0  0  0
   -2.7027   -0.4427   -1.1196 H   0  0  0  0  0  0  0  0  0  0  0  0
   -1.2626    1.1239   -1.4646 C   0  0  0  0  0  0  0  0  0  0  0  0
   -1.8614    2.0395   -1.4976 H   0  0  0  0  0  0  0  0  0  0  0  0
   -1.1210    0.7512   -2.4846 H   0  0  0  0  0  0  0  0  0  0  0  0
    0.0672    1.3240   -0.7814 C   0  0  0  0  0  0  0  0  0  0  0  0
   -0.0637    2.0213    0.0552 H   0  0  0  0  0  0  0  0  0  0  0  0
    0.8121    1.7495   -1.4618 H   0  0  0  0  0  0  0  0  0  0  0  0
    0.4883   -0.0803   -0.3024 C   0  0  1  0  0  0  0  0  0  0  0  0
    1.2113   -0.5274   -0.9929 H   0  0  0  0  0  0  0  0  0  0  0  0
    1.1441    0.1919    1.0694 C   0  0  0  0  0  0  0  0  0  0  0  0
    2.2703    0.6686    1.1299 O   0  0  0  0  0  0  0  0  0  0  0  0
    0.4183    0.0275    2.2355 N   0  0  0  0  0  0  0  0  0  0  0  0
   -0.4790   -0.4395    2.1391 H   0  0  0  0  0  0  0  0  0  0  0  0
    0.9721    0.2421    3.5659 C   0  0  0  0  0  0  0  0  0  0  0  0
    1.3167    1.2756    3.6756 H   0  0  0  0  0  0  0  0  0  0  0  0
    0.2101    0.0506    4.3273 H   0  0  0  0  0  0  0  0  0  0  0  0
    1.8165   -0.4322    3.7427 H   0  0  0  0  0  0  0  0  0  0  0  0
  1  2  1  0  0  0  0
  2  3  1  0  0  0  0
  2  4  1  0  0  0  0
  2  5  1  0  0  0  0
  5  6  2  0  0  0  0
  5  7  1  0  0  0  0
  7  8  1  0  0  0  0
  7 17  1  0  0  0  0
  8  9  1  0  0  0  0
  8 10  1  0  0  0  0
  8 11  1  0  0  0  0
 11 12  1  0  0  0  0
 11 13  1  0  0  0  0
 11 14  1  0  0  0  0
 14 15  1  0  0  0  0
 14 16  1  0  0  0  0
 14 17  1  0  0  0  0
 17 18  1  0  0  0  0
 17 19  1  0  0  0  0
 19 20  2  0  0  0  0
 19 21  1  0  0  0  0
 21 22  1  0  0  0  0
 21 23  1  0  0  0  0
 23 24  1  0  0  0  0
 23 25  1  0  0  0  0
 23 26  1  0  0  0  0
M  END
$$$$

  -OEChem-01062216093D

 26 26  0     1  0  0  0  0  0999 V2000
   -1.9569   -3.9449   -0.9646 H   0  0  0  0  0  0  0  0  0  0  0  0
   -2.1653   -2.8712   -0.9454 C   0  0  0  0  0  0  0  0  0  0  0  0
   -2.8199   -2.6634   -0.0954 H   0  0  0  0  0  0  0  0  0  0  0  0
   -2.6772   -2.6005   -1.8719 H   0  0  0  0  0  0  0  0  0  0  0  0
   -0.8626   -2.0867   -0.8149 C   0  0  0  0  0  0  0  0  0  0  0  0
    0.1614   -2.6985   -1.0818 O   0  0  0  0  0  0  0  0  0  0  0  0
   -0.7891   -0.8348   -0.1875 N   0  0  0  0  0  0  0  0  0  0  0  0
   -1.8909    0.0514   -0.5747 C   0  0  0  0  0  0  0  0  0  0  0  0
   -2.3098    0.5105    0.3274 H   0  0  0  0  0  0  0  0  0  0  0  0
   -2.7156   -0.4305   -1.1068 H   0  0  0  0  0  0  0  0  0  0  0  0
   -1.2701    1.1268   -1.4682 C   0  0  0  0  0  0  0  0  0  0  0  0
   -1.8638    2.0458   -1.4961 H   0  0  0  0  0  0  0  0  0  0  0  0
   -1.1391    0.7531   -2.4891 H   0  0  0  0  0  0  0  0  0  0  0  0
    0.0656    1.3190   -0.7959 C   0  0  0  0  0  0  0  0  0  0  0  0
   -0.0580    2.0163    0.0419 H   0  0  0  0  0  0  0  0  0  0  0  0
    0.8072    1.7430   -1.4807 H   0  0  0  0  0  0  0  0  0  0  0  0
    0.4882   -0.0867   -0.3175 C   0  0  1  0  0  0  0  0  0  0  0  0
    1.2028   -0.5385   -1.0135 H   0  0  0  0  0  0  0  0  0  0  0  0
    1.1589    0.1869    1.0487 C   0  0  0  0  0  0  0  0  0  0  0  0
    2.1906    0.8446    1.1138 O   0  0  0  0  0  0  0  0  0  0  0  0
    0.5671   -0.2524    2.2188 N   0  0  0  0  0  0  0  0  0  0  0  0
   -0.2480   -0.8498    2.1114 H   0  0  0  0  0  0  0  0  0  0  0  0
    1.1561   -0.0744    3.5393 C   0  0  0  0  0  0  0  0  0  0  0  0
    1.2749    0.9905    3.7655 H   0  0  0  0  0  0  0  0  0  0  0  0
    0.5119   -0.5198    4.3035 H   0  0  0  0  0  0  0  0  0  0  0  0
    2.1377   -0.5573    3.5885 H   0  0  0  0  0  0  0  0  0  0  0  0
  1  2  1  0  0  0  0
  2  3  1  0  0  0  0
  2  4  1  0  0  0  0
  2  5  1  0  0  0  0
  5  6  2  0  0  0  0
  5  7  1  0  0  0  0
  7  8  1  0  0  0  0
  7 17  1  0  0  0  0
  8  9  1  0  0  0  0
  8 10  1  0  0  0  0
  8 11  1  0  0  0  0
 11 12  1  0  0  0  0
 11 13  1  0  0  0  0
 11 14  1  0  0  0  0
 14 15  1  0  0  0  0
 14 16  1  0  0  0  0
 14 17  1  0  0  0  0
 17 18  1  0  0  0  0
 17 19  1  0  0  0  0
 19 20  2  0  0  0  0
 19 21  1  0  0  0  0
 21 22  1  0  0  0  0
 21 23  1  0  0  0  0
 23 24  1  0  0  0  0
 23 25  1  0  0  0  0
 23 26  1  0  0  0  0
M  END
$$$$

  -OEChem-01062216093D

 26 26  0     1  0  0  0  0  0999 V2000
   -1.9723   -3.9260   -0.9710 H   0  0  0  0  0  0  0  0  0  0  0  0
   -2.1743   -2.8510   -0.9584 C   0  0  0  0  0  0  0  0  0  0  0  0
   -2.8455   -2.6373   -0.1229 H   0  0  0  0  0  0  0  0  0  0  0  0
   -2.6652   -2.5792   -1.8959 H   0  0  0  0  0  0  0  0  0  0  0  0
   -0.8695   -2.0742   -0.8035 C   0  0  0  0  0  0  0  0  0  0  0  0
    0.1555   -2.6986   -1.0360 O   0  0  0  0  0  0  0  0  0  0  0  0
   -0.7932   -0.8202   -0.1807 N   0  0  0  0  0  0  0  0  0  0  0  0
   -1.8964    0.0641   -0.5678 C   0  0  0  0  0  0  0  0  0  0  0  0
   -2.3039    0.5344    0.3339 H   0  0  0  0  0  0  0  0  0  0  0  0
   -2.7294   -0.4198   -1.0843 H   0  0  0  0  0  0  0  0  0  0  0  0
   -1.2844    1.1286   -1.4803 C   0  0  0  0  0  0  0  0  0  0  0  0
   -1.8782    2.0475   -1.5133 H   0  0  0  0  0  0  0  0  0  0  0  0
   -1.1620    0.7433   -2.4981 H   0  0  0  0  0  0  0  0  0  0  0  0
    0.0556    1.3263   -0.8197 C   0  0  0  0  0  0  0  0  0  0  0  0
   -0.0660    2.0318    0.0114 H   0  0  0  0  0  0  0  0  0  0  0  0
    0.7925    1.7452   -1.5129 H   0  0  0  0  0  0  0  0  0  0  0  0
    0.4843   -0.0749   -0.3273 C   0  0  1  0  0  0  0  0  0  0  0  0
    1.1924   -0.5338   -1.0252 H   0  0  0  0  0  0  0  0  0  0  0  0
    1.1664    0.2009    1.0354 C   0  0  0  0  0  0  0  0  0  0  0  0
    2.0820    1.0107    1.1314 O   0  0  0  0  0  0  0  0  0  0  0  0
    0.7605   -0.4855    2.1651 N   0  0  0  0  0  0  0  0  0  0  0  0
    0.0623   -1.2102    2.0220 H   0  0  0  0  0  0  0  0  0  0  0  0
    1.4115   -0.3652    3.4631 C   0  0  0  0  0  0  0  0  0  0  0  0
    1.3646    0.6688    3.8205 H   0  0  0  0  0  0  0  0  0  0  0  0
    0.9134   -1.0069    4.1962 H   0  0  0  0  0  0  0  0  0  0  0  0
    2.4618   -0.6674    3.3944 H   0  0  0  0  0  0  0  0  0  0  0  0
  1  2  1  0  0  0  0
  2  3  1  0  0  0  0
  2  4  1  0  0  0  0
  2  5  1  0  0  0  0
  5  6  2  0  0  0  0
  5  7  1  0  0  0  0
  7  8  1  0  0  0  0
  7 17  1  0  0  0  0
  8  9  1  0  0  0  0
  8 10  1  0  0  0  0
  8 11  1  0  0  0  0
 11 12  1  0  0  0  0
 11 13  1  0  0  0  0
 11 14  1  0  0  0  0
 14 15  1  0  0  0  0
 14 16  1  0  0  0  0
 14 17  1  0  0  0  0
 17 18  1  0  0  0  0
 17 19  1  0  0  0  0
 19 20  2  0  0  0  0
 19 21  1  0  0  0  0
 21 22  1  0  0  0  0
 21 23  1  0  0  0  0
 23 24  1  0  0  0  0
 23 25  1  0  0  0  0
 23 26  1  0  0  0  0
M  END
$$$$

  -OEChem-01062216093D

 26 26  0     1  0  0  0  0  0999 V2000
   -1.9776   -3.9052   -0.9754 H   0  0  0  0  0  0  0  0  0  0  0  0
   -2.1757   -2.8297   -0.9522 C   0  0  0  0  0  0  0  0  0  0  0  0
   -2.8515   -2.6230   -0.1186 H   0  0  0  0  0  0  0  0  0  0  0  0
   -2.6591   -2.5463   -1.8902 H   0  0  0  0  0  0  0  0  0  0  0  0
   -0.8699   -2.0581   -0.7788 C   0  0  0  0  0  0  0  0  0  0  0  0
    0.1563   -2.6941   -0.9733 O   0  0  0  0  0  0  0  0  0  0  0  0
   -0.7910   -0.8004   -0.1639 N   0  0  0  0  0  0  0  0  0  0  0  0
   -1.8977    0.0785   -0.5533 C   0  0  0  0  0  0  0  0  0  0  0  0
   -2.2910    0.5660    0.3456 H   0  0  0  0  0  0  0  0  0  0  0  0
   -2.7406   -0.4111   -1.0473 H   0  0  0  0  0  0  0  0  0  0  0  0
   -1.2985    1.1268   -1.4930 C   0  0  0  0  0  0  0  0  0  0  0  0
   -1.8941    2.0441   -1.5363 H   0  0  0  0  0  0  0  0  0  0  0  0
   -1.1859    0.7229   -2.5046 H   0  0  0  0  0  0  0  0  0  0  0  0
    0.0466    1.3369   -0.8481 C   0  0  0  0  0  0  0  0  0  0  0  0
   -0.0750    2.0576   -0.0305 H   0  0  0  0  0  0  0  0  0  0  0  0
    0.7768    1.7461   -1.5539 H   0  0  0  0  0  0  0  0  0  0  0  0
    0.4837   -0.0559   -0.3339 C   0  0  1  0  0  0  0  0  0  0  0  0
    1.1861   -0.5239   -1.0312 H   0  0  0  0  0  0  0  0  0  0  0  0
    1.1733    0.2204    1.0270 C   0  0  0  0  0  0  0  0  0  0  0  0
    1.9448    1.1611    1.1857 O   0  0  0  0  0  0  0  0  0  0  0  0
    0.9922   -0.6703    2.0689 N   0  0  0  0  0  0  0  0  0  0  0  0
    0.4430   -1.4997    1.8577 H   0  0  0  0  0  0  0  0  0  0  0  0
    1.7022   -0.5895    3.3386 C   0  0  0  0  0  0  0  0  0  0  0  0
    1.4911    0.3632    3.8352 H   0  0  0  0  0  0  0  0  0  0  0  0
    1.3851   -1.4011    4.0003 H   0  0  0  0  0  0  0  0  0  0  0  0
    2.7823   -0.6732    3.1796 H   0  0  0  0  0  0  0  0  0  0  0  0
  1  2  1  0  0  0  0
  2  3  1  0  0  0  0
  2  4  1  0  0  0  0
  2  5  1  0  0  0  0
  5  6  2  0  0  0  0
  5  7  1  0  0  0  0
  7  8  1  0  0  0  0
  7 17  1  0  0  0  0
  8  9  1  0  0  0  0
  8 10  1  0  0  0  0
  8 11  1  0  0  0  0
 11 12  1  0  0  0  0
 11 13  1  0  0  0  0
 11 14  1  0  0  0  0
 14 15  1  0  0  0  0
 14 16  1  0  0  0  0
 14 17  1  0  0  0  0
 17 18  1  0  0  0  0
 17 19  1  0  0  0  0
 19 20  2  0  0  0  0
 19 21  1  0  0  0  0
 21 22  1  0  0  0  0
 21 23  1  0  0  0  0
 23 24  1  0  0  0  0
 23 25  1  0  0  0  0
 23 26  1  0  0  0  0
M  END
$$$$

  -OEChem-01062216093D

 26 26  0     1  0  0  0  0  0999 V2000
   -1.9703   -3.8878   -0.9582 H   0  0  0  0  0  0  0  0  0  0  0  0
   -2.1698   -2.8126   -0.9335 C   0  0  0  0  0  0  0  0  0  0  0  0
   -2.8537   -2.6096   -0.1056 H   0  0  0  0  0  0  0  0  0  0  0  0
   -2.6446   -2.5277   -1.8753 H   0  0  0  0  0  0  0  0  0  0  0  0
   -0.8664   -2.0397   -0.7453 C   0  0  0  0  0  0  0  0  0  0  0  0
    0.1626   -2.6823   -0.9046 O   0  0  0  0  0  0  0  0  0  0  0  0
   -0.7882   -0.7777   -0.1391 N   0  0  0  0  0  0  0  0  0  0  0  0
   -1.8987    0.0934   -0.5353 C   0  0  0  0  0  0  0  0  0  0  0  0
   -2.2799    0.5998    0.3582 H   0  0  0  0  0  0  0  0  0  0  0  0
   -2.7497   -0.4043   -1.0066 H   0  0  0  0  0  0  0  0  0  0  0  0
   -1.3120    1.1229   -1.5039 C   0  0  0  0  0  0  0  0  0  0  0  0
   -1.9103    2.0378   -1.5614 H   0  0  0  0  0  0  0  0  0  0  0  0
   -1.2070    0.6977   -2.5075 H   0  0  0  0  0  0  0  0  0  0  0  0
    0.0371    1.3489   -0.8743 C   0  0  0  0  0  0  0  0  0  0  0  0
   -0.0888    2.0877   -0.0744 H   0  0  0  0  0  0  0  0  0  0  0  0
    0.7617    1.7467   -1.5919 H   0  0  0  0  0  0  0  0  0  0  0  0
    0.4826   -0.0336   -0.3340 C   0  0  1  0  0  0  0  0  0  0  0  0
    1.1800   -0.5113   -1.0299 H   0  0  0  0  0  0  0  0  0  0  0  0
    1.1770    0.2432    1.0257 C   0  0  0  0  0  0  0  0  0  0  0  0
    1.7825    1.2819    1.2722 O   0  0  0  0  0  0  0  0  0  0  0  0
    1.2512   -0.7911    1.9400 N   0  0  0  0  0  0  0  0  0  0  0  0
    0.8562   -1.6809    1.6429 H   0  0  0  0  0  0  0  0  0  0  0  0
    2.0193   -0.7304    3.1767 C   0  0  0  0  0  0  0  0  0  0  0  0
    1.6711    0.0972    3.8034 H   0  0  0  0  0  0  0  0  0  0  0  0
    1.9030   -1.6616    3.7392 H   0  0  0  0  0  0  0  0  0  0  0  0
    3.0830   -0.5864    2.9603 H   0  0  0  0  0  0  0  0  0  0  0  0
  1  2  1  0  0  0  0
  2  3  1  0  0  0  0
  2  4  1  0  0  0  0
  2  5  1  0  0  0  0
  5  6  2  0  0  0  0
  5  7  1  0  0  0  0
  7  8  1  0  0  0  0
  7 17  1  0  0  0  0
  8  9  1  0  0  0  0
  8 10  1  0  0  0  0
  8 11  1  0  0  0  0
 11 12  1  0  0  0  0
 11 13  1  0  0  0  0
 11 14  1  0  0  0  0
 14 15  1  0  0  0  0
 14 16  1  0  0  0  0
 14 17  1  0  0  0  0
 17 18  1  0  0  0  0
 17 19  1  0  0  0  0
 19 20  2  0  0  0  0
 19 21  1  0  0  0  0
 21 22  1  0  0  0  0
 21 23  1  0  0  0  0
 23 24  1  0  0  0  0
 23 25  1  0  0  0  0
 23 26  1  0  0  0  0
M  END
$$$$

  -OEChem-01062216093D

 26 26  0     1  0  0  0  0  0999 V2000
   -1.9490   -3.8756   -0.9155 H   0  0  0  0  0  0  0  0  0  0  0  0
   -2.1556   -2.8018   -0.8898 C   0  0  0  0  0  0  0  0  0  0  0  0
   -2.8315   -2.6027   -0.0541 H   0  0  0  0  0  0  0  0  0  0  0  0
   -2.6435   -2.5211   -1.8263 H   0  0  0  0  0  0  0  0  0  0  0  0
   -0.8553   -2.0195   -0.7170 C   0  0  0  0  0  0  0  0  0  0  0  0
    0.1767   -2.6588   -0.8769 O   0  0  0  0  0  0  0  0  0  0  0  0
   -0.7770   -0.7548   -0.1163 N   0  0  0  0  0  0  0  0  0  0  0  0
   -1.8926    0.1068   -0.5184 C   0  0  0  0  0  0  0  0  0  0  0  0
   -2.2631    0.6320    0.3689 H   0  0  0  0  0  0  0  0  0  0  0  0
   -2.7500   -0.4010   -0.9667 H   0  0  0  0  0  0  0  0  0  0  0  0
   -1.3200    1.1174   -1.5162 C   0  0  0  0  0  0  0  0  0  0  0  0
   -1.9234    2.0278   -1.5884 H   0  0  0  0  0  0  0  0  0  0  0  0
   -1.2215    0.6702   -2.5106 H   0  0  0  0  0  0  0  0  0  0  0  0
    0.0326    1.3633   -0.9023 C   0  0  0  0  0  0  0  0  0  0  0  0
   -0.0964    2.1233   -0.1242 H   0  0  0  0  0  0  0  0  0  0  0  0
    0.7504    1.7473   -1.6340 H   0  0  0  0  0  0  0  0  0  0  0  0
    0.4866   -0.0083   -0.3363 C   0  0  1  0  0  0  0  0  0  0  0  0
    1.1808   -0.4918   -1.0312 H   0  0  0  0  0  0  0  0  0  0  0  0
    1.1852    0.2645    1.0230 C   0  0  0  0  0  0  0  0  0  0  0  0
    1.5791    1.3658    1.3950 O   0  0  0  0  0  0  0  0  0  0  0  0
    1.5365   -0.8402    1.7763 N   0  0  0  0  0  0  0  0  0  0  0  0
    1.2776   -1.7486    1.3943 H   0  0  0  0  0  0  0  0  0  0  0  0
    2.3280   -0.7783    2.9979 C   0  0  0  0  0  0  0  0  0  0  0  0
    1.8399   -0.1365    3.7386 H   0  0  0  0  0  0  0  0  0  0  0  0
    2.4379   -1.7787    3.4271 H   0  0  0  0  0  0  0  0  0  0  0  0
    3.3258   -0.3797    2.7872 H   0  0  0  0  0  0  0  0  0  0  0  0
  1  2  1  0  0  0  0
  2  3  1  0  0  0  0
  2  4  1  0  0  0  0
  2  5  1  0  0  0  0
  5  6  2  0  0  0  0
  5  7  1  0  0  0  0
  7  8  1  0  0  0  0
  7 17  1  0  0  0  0
  8  9  1  0  0  0  0
  8 10  1  0  0  0  0
  8 11  1  0  0  0  0
 11 12  1  0  0  0  0
 11 13  1  0  0  0  0
 11 14  1  0  0  0  0
 14 15  1  0  0  0  0
 14 16  1  0  0  0  0
 14 17  1  0  0  0  0
 17 18  1  0  0  0  0
 17 19  1  0  0  0  0
 19 20  2  0  0  0  0
 19 21  1  0  0  0  0
 21 22  1  0  0  0  0
 21 23  1  0  0  0  0
 23 24  1  0  0  0  0
 23 25  1  0  0  0  0
 23 26  1  0  0  0  0
M  END
$$$$

  -OEChem-01062216093D

 26 26  0     1  0  0  0  0  0999 V2000
   -1.9202   -3.8693   -0.7843 H   0  0  0  0  0  0  0  0  0  0  0  0
   -2.1369   -2.7972   -0.7937 C   0  0  0  0  0  0  0  0  0  0  0  0
   -2.7789   -2.5701    0.0611 H   0  0  0  0  0  0  0  0  0  0  0  0
   -2.6670   -2.5582   -1.7188 H   0  0  0  0  0  0  0  0  0  0  0  0
   -0.8387   -1.9977   -0.7089 C   0  0  0  0  0  0  0  0  0  0  0  0
    0.1894   -2.6229   -0.9388 O   0  0  0  0  0  0  0  0  0  0  0  0
   -0.7464   -0.7321   -0.1124 N   0  0  0  0  0  0  0  0  0  0  0  0
   -1.8703    0.1232   -0.5034 C   0  0  0  0  0  0  0  0  0  0  0  0
   -2.2217    0.6614    0.3840 H   0  0  0  0  0  0  0  0  0  0  0  0
   -2.7365   -0.3926   -0.9255 H   0  0  0  0  0  0  0  0  0  0  0  0
   -1.3203    1.1205   -1.5290 C   0  0  0  0  0  0  0  0  0  0  0  0
   -1.9293    2.0268   -1.6047 H   0  0  0  0  0  0  0  0  0  0  0  0
   -1.2388    0.6572   -2.5176 H   0  0  0  0  0  0  0  0  0  0  0  0
    0.0425    1.3828   -0.9437 C   0  0  0  0  0  0  0  0  0  0  0  0
   -0.0727    2.1628   -0.1851 H   0  0  0  0  0  0  0  0  0  0  0  0
    0.7449    1.7511   -1.6979 H   0  0  0  0  0  0  0  0  0  0  0  0
    0.5060    0.0185   -0.3661 C   0  0  1  0  0  0  0  0  0  0  0  0
    1.1899   -0.4661   -1.0702 H   0  0  0  0  0  0  0  0  0  0  0  0
    1.2235    0.2840    0.9854 C   0  0  0  0  0  0  0  0  0  0  0  0
    1.3263    1.3763    1.5352 O   0  0  0  0  0  0  0  0  0  0  0  0
    1.8655   -0.7965    1.5614 N   0  0  0  0  0  0  0  0  0  0  0  0
    1.7233   -1.6999    1.1119 H   0  0  0  0  0  0  0  0  0  0  0  0
    2.5808   -0.7386    2.8296 C   0  0  0  0  0  0  0  0  0  0  0  0
    1.8947   -0.4858    3.6445 H   0  0  0  0  0  0  0  0  0  0  0  0
    3.0383   -1.7081    3.0485 H   0  0  0  0  0  0  0  0  0  0  0  0
    3.3742    0.0150    2.7888 H   0  0  0  0  0  0  0  0  0  0  0  0
  1  2  1  0  0  0  0
  2  3  1  0  0  0  0
  2  4  1  0  0  0  0
  2  5  1  0  0  0  0
  5  6  2  0  0  0  0
  5  7  1  0  0  0  0
  7  8  1  0  0  0  0
  7 17  1  0  0  0  0
  8  9  1  0  0  0  0
  8 10  1  0  0  0  0
  8 11  1  0  0  0  0
 11 12  1  0  0  0  0
 11 13  1  0  0  0  0
 11 14  1  0  0  0  0
 14 15  1  0  0  0  0
 14 16  1  0  0  0  0
 14 17  1  0  0  0  0
 17 18  1  0  0  0  0
 17 19  1  0  0  0  0
 19 20  2  0  0  0  0
 19 21  1  0  0  0  0
 21 22  1  0  0  0  0
 21 23  1  0  0  0  0
 23 24  1  0  0  0  0
 23 25  1  0  0  0  0
 23 26  1  0  0  0  0
M  END
$$$$

  -OEChem-01062216093D

 26 26  0     1  0  0  0  0  0999 V2000
   -1.8954   -3.8705   -0.6817 H   0  0  0  0  0  0  0  0  0  0  0  0
   -2.1233   -2.8012   -0.7121 C   0  0  0  0  0  0  0  0  0  0  0  0
   -2.7296   -2.5546    0.1633 H   0  0  0  0  0  0  0  0  0  0  0  0
   -2.6957   -2.5927   -1.6190 H   0  0  0  0  0  0  0  0  0  0  0  0
   -0.8309   -1.9888   -0.7062 C   0  0  0  0  0  0  0  0  0  0  0  0
    0.1881   -2.5977   -1.0098 O   0  0  0  0  0  0  0  0  0  0  0  0
   -0.7307   -0.7194   -0.1205 N   0  0  0  0  0  0  0  0  0  0  0  0
   -1.8584    0.1327   -0.5062 C   0  0  0  0  0  0  0  0  0  0  0  0
   -2.2057    0.6729    0.3816 H   0  0  0  0  0  0  0  0  0  0  0  0
   -2.7244   -0.3888   -0.9220 H   0  0  0  0  0  0  0  0  0  0  0  0
   -1.3155    1.1274   -1.5394 C   0  0  0  0  0  0  0  0  0  0  0  0
   -1.9275    2.0317   -1.6150 H   0  0  0  0  0  0  0  0  0  0  0  0
   -1.2394    0.6601   -2.5266 H   0  0  0  0  0  0  0  0  0  0  0  0
    0.0514    1.3966   -0.9647 C   0  0  0  0  0  0  0  0  0  0  0  0
   -0.0482    2.1846   -0.2125 H   0  0  0  0  0  0  0  0  0  0  0  0
    0.7467    1.7547   -1.7302 H   0  0  0  0  0  0  0  0  0  0  0  0
    0.5152    0.0341   -0.3861 C   0  0  1  0  0  0  0  0  0  0  0  0
    1.1952   -0.4496   -1.0946 H   0  0  0  0  0  0  0  0  0  0  0  0
    1.2408    0.3105    0.9580 C   0  0  0  0  0  0  0  0  0  0  0  0
    1.0413    1.2854    1.6765 O   0  0  0  0  0  0  0  0  0  0  0  0
    2.1504   -0.6398    1.3847 N   0  0  0  0  0  0  0  0  0  0  0  0
    2.1807   -1.5059    0.8499 H   0  0  0  0  0  0  0  0  0  0  0  0
    2.8202   -0.5901    2.6784 C   0  0  0  0  0  0  0  0  0  0  0  0
    2.0901   -0.6670    3.4908 H   0  0  0  0  0  0  0  0  0  0  0  0
    3.5291   -1.4189    2.7681 H   0  0  0  0  0  0  0  0  0  0  0  0
    3.3734    0.3485    2.7886 H   0  0  0  0  0  0  0  0  0  0  0  0
  1  2  1  0  0  0  0
  2  3  1  0  0  0  0
  2  4  1  0  0  0  0
  2  5  1  0  0  0  0
  5  6  2  0  0  0  0
  5  7  1  0  0  0  0
  7  8  1  0  0  0  0
  7 17  1  0  0  0  0
  8  9  1  0  0  0  0
  8 10  1  0  0  0  0
  8 11  1  0  0  0  0
 11 12  1  0  0  0  0
 11 13  1  0  0  0  0
 11 14  1  0  0  0  0
 14 15  1  0  0  0  0
 14 16  1  0  0  0  0
 14 17  1  0  0  0  0
 17 18  1  0  0  0  0
 17 19  1  0  0  0  0
 19 20  2  0  0  0  0
 19 21  1  0  0  0  0
 21 22  1  0  0  0  0
 21 23  1  0  0  0  0
 23 24  1  0  0  0  0
 23 25  1  0  0  0  0
 23 26  1  0  0  0  0
M  END
$$$$

  -OEChem-01062216093D

 26 26  0     1  0  0  0  0  0999 V2000
   -1.8888   -3.8783   -0.6199 H   0  0  0  0  0  0  0  0  0  0  0  0
   -2.1231   -2.8110   -0.6652 C   0  0  0  0  0  0  0  0  0  0  0  0
   -2.7106   -2.5501    0.2188 H   0  0  0  0  0  0  0  0  0  0  0  0
   -2.7168   -2.6217   -1.5626 H   0  0  0  0  0  0  0  0  0  0  0  0
   -0.8355   -1.9930   -0.7032 C   0  0  0  0  0  0  0  0  0  0  0  0
    0.1751   -2.5915   -1.0518 O   0  0  0  0  0  0  0  0  0  0  0  0
   -0.7344   -0.7178   -0.1321 N   0  0  0  0  0  0  0  0  0  0  0  0
   -1.8601    0.1344   -0.5226 C   0  0  0  0  0  0  0  0  0  0  0  0
   -2.2187    0.6686    0.3644 H   0  0  0  0  0  0  0  0  0  0  0  0
   -2.7185   -0.3892   -0.9523 H   0  0  0  0  0  0  0  0  0  0  0  0
   -1.3058    1.1340   -1.5447 C   0  0  0  0  0  0  0  0  0  0  0  0
   -1.9155    2.0398   -1.6201 H   0  0  0  0  0  0  0  0  0  0  0  0
   -1.2239    0.6717   -2.5339 H   0  0  0  0  0  0  0  0  0  0  0  0
    0.0589    1.3984   -0.9604 C   0  0  0  0  0  0  0  0  0  0  0  0
   -0.0352    2.1807   -0.2006 H   0  0  0  0  0  0  0  0  0  0  0  0
    0.7585    1.7573   -1.7215 H   0  0  0  0  0  0  0  0  0  0  0  0
    0.5138    0.0338   -0.3870 C   0  0  1  0  0  0  0  0  0  0  0  0
    1.1962   -0.4512   -1.0918 H   0  0  0  0  0  0  0  0  0  0  0  0
    1.2343    0.3340    0.9531 C   0  0  0  0  0  0  0  0  0  0  0  0
    0.8251    1.1435    1.7804 O   0  0  0  0  0  0  0  0  0  0  0  0
    2.3592   -0.4095    1.2612 N   0  0  0  0  0  0  0  0  0  0  0  0
    2.5627   -1.1948    0.6472 H   0  0  0  0  0  0  0  0  0  0  0  0
    3.0362   -0.3392    2.5503 C   0  0  0  0  0  0  0  0  0  0  0  0
    2.3718   -0.6817    3.3504 H   0  0  0  0  0  0  0  0  0  0  0  0
    3.9277   -0.9733    2.5433 H   0  0  0  0  0  0  0  0  0  0  0  0
    3.3473    0.6885    2.7651 H   0  0  0  0  0  0  0  0  0  0  0  0
  1  2  1  0  0  0  0
  2  3  1  0  0  0  0
  2  4  1  0  0  0  0
  2  5  1  0  0  0  0
  5  6  2  0  0  0  0
  5  7  1  0  0  0  0
  7  8  1  0  0  0  0
  7 17  1  0  0  0  0
  8  9  1  0  0  0  0
  8 10  1  0  0  0  0
  8 11  1  0  0  0  0
 11 12  1  0  0  0  0
 11 13  1  0  0  0  0
 11 14  1  0  0  0  0
 14 15  1  0  0  0  0
 14 16  1  0  0  0  0
 14 17  1  0  0  0  0
 17 18  1  0  0  0  0
 17 19  1  0  0  0  0
 19 20  2  0  0  0  0
 19 21  1  0  0  0  0
 21 22  1  0  0  0  0
 21 23  1  0  0  0  0
 23 24  1  0  0  0  0
 23 25  1  0  0  0  0
 23 26  1  0  0  0  0
M  END
$$$$

  -OEChem-01062216093D

 26 26  0     1  0  0  0  0  0999 V2000
   -1.8990   -3.8880   -0.5914 H   0  0  0  0  0  0  0  0  0  0  0  0
   -2.1329   -2.8212   -0.6481 C   0  0  0  0  0  0  0  0  0  0  0  0
   -2.7161   -2.5492    0.2353 H   0  0  0  0  0  0  0  0  0  0  0  0
   -2.7305   -2.6416   -1.5448 H   0  0  0  0  0  0  0  0  0  0  0  0
   -0.8450   -2.0049   -0.7010 C   0  0  0  0  0  0  0  0  0  0  0  0
    0.1613   -2.6002   -1.0665 O   0  0  0  0  0  0  0  0  0  0  0  0
   -0.7461   -0.7251   -0.1416 N   0  0  0  0  0  0  0  0  0  0  0  0
   -1.8662    0.1294   -0.5412 C   0  0  0  0  0  0  0  0  0  0  0  0
   -2.2411    0.6540    0.3448 H   0  0  0  0  0  0  0  0  0  0  0  0
   -2.7145   -0.3924   -0.9930 H   0  0  0  0  0  0  0  0  0  0  0  0
   -1.2933    1.1378   -1.5432 C   0  0  0  0  0  0  0  0  0  0  0  0
   -1.8988    2.0467   -1.6164 H   0  0  0  0  0  0  0  0  0  0  0  0
   -1.2002    0.6863   -2.5364 H   0  0  0  0  0  0  0  0  0  0  0  0
    0.0654    1.3918   -0.9389 C   0  0  0  0  0  0  0  0  0  0  0  0
   -0.0327    2.1619   -0.1658 H   0  0  0  0  0  0  0  0  0  0  0  0
    0.7750    1.7586   -1.6871 H   0  0  0  0  0  0  0  0  0  0  0  0
    0.5093    0.0221   -0.3737 C   0  0  1  0  0  0  0  0  0  0  0  0
    1.1980   -0.4640   -1.0711 H   0  0  0  0  0  0  0  0  0  0  0  0
    1.2159    0.3438    0.9676 C   0  0  0  0  0  0  0  0  0  0  0  0
    0.6762    0.9838    1.8657 O   0  0  0  0  0  0  0  0  0  0  0  0
    2.4929   -0.1449    1.1786 N   0  0  0  0  0  0  0  0  0  0  0  0
    2.8447   -0.8096    0.4944 H   0  0  0  0  0  0  0  0  0  0  0  0
    3.1990   -0.0115    2.4472 C   0  0  0  0  0  0  0  0  0  0  0  0
    2.6696   -0.5529    3.2382 H   0  0  0  0  0  0  0  0  0  0  0  0
    4.2099   -0.4214    2.3615 H   0  0  0  0  0  0  0  0  0  0  0  0
    3.2793    1.0424    2.7338 H   0  0  0  0  0  0  0  0  0  0  0  0
  1  2  1  0  0  0  0
  2  3  1  0  0  0  0
  2  4  1  0  0  0  0
  2  5  1  0  0  0  0
  5  6  2  0  0  0  0
  5  7  1  0  0  0  0
  7  8  1  0  0  0  0
  7 17  1  0  0  0  0
  8  9  1  0  0  0  0
  8 10  1  0  0  0  0
  8 11  1  0  0  0  0
 11 12  1  0  0  0  0
 11 13  1  0  0  0  0
 11 14  1  0  0  0  0
 14 15  1  0  0  0  0
 14 16  1  0  0  0  0
 14 17  1  0  0  0  0
 17 18  1  0  0  0  0
 17 19  1  0  0  0  0
 19 20  2  0  0  0  0
 19 21  1  0  0  0  0
 21 22  1  0  0  0  0
 21 23  1  0  0  0  0
 23 24  1  0  0  0  0
 23 25  1  0  0  0  0
 23 26  1  0  0  0  0
M  END
$$$$

  -OEChem-01062216093D

 26 26  0     1  0  0  0  0  0999 V2000
   -1.9128   -3.8989   -0.5829 H   0  0  0  0  0  0  0  0  0  0  0  0
   -2.1432   -2.8320   -0.6509 C   0  0  0  0  0  0  0  0  0  0  0  0
   -2.7362   -2.5515    0.2233 H   0  0  0  0  0  0  0  0  0  0  0  0
   -2.7295   -2.6579   -1.5562 H   0  0  0  0  0  0  0  0  0  0  0  0
   -0.8527   -2.0195   -0.6945 C   0  0  0  0  0  0  0  0  0  0  0  0
    0.1536   -2.6148   -1.0595 O   0  0  0  0  0  0  0  0  0  0  0  0
   -0.7589   -0.7360   -0.1436 N   0  0  0  0  0  0  0  0  0  0  0  0
   -1.8716    0.1218   -0.5549 C   0  0  0  0  0  0  0  0  0  0  0  0
   -2.2647    0.6372    0.3287 H   0  0  0  0  0  0  0  0  0  0  0  0
   -2.7091   -0.3973   -1.0297 H   0  0  0  0  0  0  0  0  0  0  0  0
   -1.2773    1.1386   -1.5348 C   0  0  0  0  0  0  0  0  0  0  0  0
   -1.8780    2.0504   -1.6094 H   0  0  0  0  0  0  0  0  0  0  0  0
   -1.1685    0.6971   -2.5308 H   0  0  0  0  0  0  0  0  0  0  0  0
    0.0726    1.3812   -0.9064 C   0  0  0  0  0  0  0  0  0  0  0  0
   -0.0361    2.1385   -0.1210 H   0  0  0  0  0  0  0  0  0  0  0  0
    0.7948    1.7571   -1.6378 H   0  0  0  0  0  0  0  0  0  0  0  0
    0.5043    0.0065   -0.3483 C   0  0  1  0  0  0  0  0  0  0  0  0
    1.2018   -0.4811   -1.0360 H   0  0  0  0  0  0  0  0  0  0  0  0
    1.1936    0.3469    0.9960 C   0  0  0  0  0  0  0  0  0  0  0  0
    0.5747    0.8117    1.9487 O   0  0  0  0  0  0  0  0  0  0  0  0
    2.5562    0.1432    1.1243 N   0  0  0  0  0  0  0  0  0  0  0  0
    3.0185   -0.3599    0.3722 H   0  0  0  0  0  0  0  0  0  0  0  0
    3.2819    0.3582    2.3704 C   0  0  0  0  0  0  0  0  0  0  0  0
    2.9168   -0.3204    3.1485 H   0  0  0  0  0  0  0  0  0  0  0  0
    4.3501    0.1731    2.2216 H   0  0  0  0  0  0  0  0  0  0  0  0
    3.1566    1.3903    2.7149 H   0  0  0  0  0  0  0  0  0  0  0  0
  1  2  1  0  0  0  0
  2  3  1  0  0  0  0
  2  4  1  0  0  0  0
  2  5  1  0  0  0  0
  5  6  2  0  0  0  0
  5  7  1  0  0  0  0
  7  8  1  0  0  0  0
  7 17  1  0  0  0  0
  8  9  1  0  0  0  0
  8 10  1  0  0  0  0
  8 11  1  0  0  0  0
 11 12  1  0  0  0  0
 11 13  1  0  0  0  0
 11 14  1  0  0  0  0
 14 15  1  0  0  0  0
 14 16  1  0  0  0  0
 14 17  1  0  0  0  0
 17 18  1  0  0  0  0
 17 19  1  0  0  0  0
 19 20  2  0  0  0  0
 19 21  1  0  0  0  0
 21 22  1  0  0  0  0
 21 23  1  0  0  0  0
 23 24  1  0  0  0  0
 23 25  1  0  0  0  0
 23 26  1  0  0  0  0
M  END
$$$$

  -OEChem-01062216093D

 26 26  0     1  0  0  0  0  0999 V2000
   -1.9243   -3.9076   -0.5886 H   0  0  0  0  0  0  0  0  0  0  0  0
   -2.1510   -2.8400   -0.6588 C   0  0  0  0  0  0  0  0  0  0  0  0
   -2.7514   -2.5575    0.2098 H   0  0  0  0  0  0  0  0  0  0  0  0
   -2.7277   -2.6638   -1.5697 H   0  0  0  0  0  0  0  0  0  0  0  0
   -0.8579   -2.0314   -0.6892 C   0  0  0  0  0  0  0  0  0  0  0  0
    0.1496   -2.6268   -1.0503 O   0  0  0  0  0  0  0  0  0  0  0  0
   -0.7704   -0.7461   -0.1424 N   0  0  0  0  0  0  0  0  0  0  0  0
   -1.8748    0.1141   -0.5688 C   0  0  0  0  0  0  0  0  0  0  0  0
   -2.2872    0.6205    0.3111 H   0  0  0  0  0  0  0  0  0  0  0  0
   -2.7005   -0.4015   -1.0673 H   0  0  0  0  0  0  0  0  0  0  0  0
   -1.2586    1.1384   -1.5256 C   0  0  0  0  0  0  0  0  0  0  0  0
   -1.8547    2.0531   -1.6015 H   0  0  0  0  0  0  0  0  0  0  0  0
   -1.1331    0.7067   -2.5240 H   0  0  0  0  0  0  0  0  0  0  0  0
    0.0804    1.3697   -0.8698 C   0  0  0  0  0  0  0  0  0  0  0  0
   -0.0425    2.1151   -0.0744 H   0  0  0  0  0  0  0  0  0  0  0  0
    0.8169    1.7543   -1.5825 H   0  0  0  0  0  0  0  0  0  0  0  0
    0.5014   -0.0092   -0.3164 C   0  0  1  0  0  0  0  0  0  0  0  0
    1.2097   -0.4974   -0.9923 H   0  0  0  0  0  0  0  0  0  0  0  0
    1.1733    0.3451    1.0324 C   0  0  0  0  0  0  0  0  0  0  0  0
    0.5170    0.6138    2.0336 O   0  0  0  0  0  0  0  0  0  0  0  0
    2.5524    0.4407    1.0966 N   0  0  0  0  0  0  0  0  0  0  0  0
    3.0768    0.1268    0.2853 H   0  0  0  0  0  0  0  0  0  0  0  0
    3.2756    0.7375    2.3270 C   0  0  0  0  0  0  0  0  0  0  0  0
    3.1057   -0.0489    3.0698 H   0  0  0  0  0  0  0  0  0  0  0  0
    4.3496    0.8015    2.1277 H   0  0  0  0  0  0  0  0  0  0  0  0
    2.9460    1.6946    2.7450 H   0  0  0  0  0  0  0  0  0  0  0  0
  1  2  1  0  0  0  0
  2  3  1  0  0  0  0
  2  4  1  0  0  0  0
  2  5  1  0  0  0  0
  5  6  2  0  0  0  0
  5  7  1  0  0  0  0
  7  8  1  0  0  0  0
  7 17  1  0  0  0  0
  8  9  1  0  0  0  0
  8 10  1  0  0  0  0
  8 11  1  0  0  0  0
 11 12  1  0  0  0  0
 11 13  1  0  0  0  0
 11 14  1  0  0  0  0
 14 15  1  0  0  0  0
 14 16  1  0  0  0  0
 14 17  1  0  0  0  0
 17 18  1  0  0  0  0
 17 19  1  0  0  0  0
 19 20  2  0  0  0  0
 19 21  1  0  0  0  0
 21 22  1  0  0  0  0
 21 23  1  0  0  0  0
 23 24  1  0  0  0  0
 23 25  1  0  0  0  0
 23 26  1  0  0  0  0
M  END
$$$$

  -OEChem-01062216093D

 26 26  0     1  0  0  0  0  0999 V2000
   -1.9172   -3.9121   -0.5682 H   0  0  0  0  0  0  0  0  0  0  0  0
   -2.1491   -2.8468   -0.6530 C   0  0  0  0  0  0  0  0  0  0  0  0
   -2.7538   -2.5559    0.2099 H   0  0  0  0  0  0  0  0  0  0  0  0
   -2.7237   -2.6847   -1.5678 H   0  0  0  0  0  0  0  0  0  0  0  0
   -0.8597   -2.0332   -0.6895 C   0  0  0  0  0  0  0  0  0  0  0  0
    0.1476   -2.6222   -1.0614 O   0  0  0  0  0  0  0  0  0  0  0  0
   -0.7797   -0.7479   -0.1424 N   0  0  0  0  0  0  0  0  0  0  0  0
   -1.8775    0.1105   -0.5878 C   0  0  0  0  0  0  0  0  0  0  0  0
   -2.3123    0.6108    0.2845 H   0  0  0  0  0  0  0  0  0  0  0  0
   -2.6889   -0.4065   -1.1084 H   0  0  0  0  0  0  0  0  0  0  0  0
   -1.2425    1.1403   -1.5248 C   0  0  0  0  0  0  0  0  0  0  0  0
   -1.8368    2.0557   -1.6078 H   0  0  0  0  0  0  0  0  0  0  0  0
   -1.0975    0.7144   -2.5231 H   0  0  0  0  0  0  0  0  0  0  0  0
    0.0837    1.3666   -0.8415 C   0  0  0  0  0  0  0  0  0  0  0  0
   -0.0569    2.1041   -0.0413 H   0  0  0  0  0  0  0  0  0  0  0  0
    0.8326    1.7589   -1.5366 H   0  0  0  0  0  0  0  0  0  0  0  0
    0.4983   -0.0140   -0.2867 C   0  0  1  0  0  0  0  0  0  0  0  0
    1.2188   -0.5013   -0.9503 H   0  0  0  0  0  0  0  0  0  0  0  0
    1.1514    0.3469    1.0703 C   0  0  0  0  0  0  0  0  0  0  0  0
    0.5082    0.3768    2.1138 O   0  0  0  0  0  0  0  0  0  0  0  0
    2.4773    0.7449    1.0988 N   0  0  0  0  0  0  0  0  0  0  0  0
    3.0116    0.6433    0.2412 H   0  0  0  0  0  0  0  0  0  0  0  0
    3.1837    1.0836    2.3286 C   0  0  0  0  0  0  0  0  0  0  0  0
    3.2416    0.2118    2.9887 H   0  0  0  0  0  0  0  0  0  0  0  0
    4.2011    1.4152    2.1004 H   0  0  0  0  0  0  0  0  0  0  0  0
    2.6694    1.8927    2.8578 H   0  0  0  0  0  0  0  0  0  0  0  0
  1  2  1  0  0  0  0
  2  3  1  0  0  0  0
  2  4  1  0  0  0  0
  2  5  1  0  0  0  0
  5  6  2  0  0  0  0
  5  7  1  0  0  0  0
  7  8  1  0  0  0  0
  7 17  1  0  0  0  0
  8  9  1  0  0  0  0
  8 10  1  0  0  0  0
  8 11  1  0  0  0  0
 11 12  1  0  0  0  0
 11 13  1  0  0  0  0
 11 14  1  0  0  0  0
 14 15  1  0  0  0  0
 14 16  1  0  0  0  0
 14 17  1  0  0  0  0
 17 18  1  0  0  0  0
 17 19  1  0  0  0  0
 19 20  2  0  0  0  0
 19 21  1  0  0  0  0
 21 22  1  0  0  0  0
 21 23  1  0  0  0  0
 23 24  1  0  0  0  0
 23 25  1  0  0  0  0
 23 26  1  0  0  0  0
M  END
$$$$

  -OEChem-01062216093D

 26 26  0     1  0  0  0  0  0999 V2000
   -1.8862   -3.9182   -0.4371 H   0  0  0  0  0  0  0  0  0  0  0  0
   -2.1045   -2.8596   -0.6036 C   0  0  0  0  0  0  0  0  0  0  0  0
   -2.7969   -2.5239    0.1724 H   0  0  0  0  0  0  0  0  0  0  0  0
   -2.5766   -2.7487   -1.5825 H   0  0  0  0  0  0  0  0  0  0  0  0
   -0.8169   -2.0461   -0.5453 C   0  0  0  0  0  0  0  0  0  0  0  0
    0.2334   -2.6508   -0.7200 O   0  0  0  0  0  0  0  0  0  0  0  0
   -0.8043   -0.6926   -0.2000 N   0  0  0  0  0  0  0  0  0  0  0  0
   -1.9183    0.1183   -0.6839 C   0  0  0  0  0  0  0  0  0  0  0  0
   -2.4323    0.5758    0.1686 H   0  0  0  0  0  0  0  0  0  0  0  0
   -2.6585   -0.4328   -1.2715 H   0  0  0  0  0  0  0  0  0  0  0  0
   -1.2625    1.1864   -1.5531 C   0  0  0  0  0  0  0  0  0  0  0  0
   -1.8727    2.0915   -1.6318 H   0  0  0  0  0  0  0  0  0  0  0  0
   -1.0729    0.7960   -2.5584 H   0  0  0  0  0  0  0  0  0  0  0  0
    0.0416    1.4279   -0.8238 C   0  0  0  0  0  0  0  0  0  0  0  0
   -0.1368    2.1316   -0.0018 H   0  0  0  0  0  0  0  0  0  0  0  0
    0.8002    1.8575   -1.4854 H   0  0  0  0  0  0  0  0  0  0  0  0
    0.4709    0.0481   -0.2899 C   0  0  1  0  0  0  0  0  0  0  0  0
    1.1833   -0.4231   -0.9743 H   0  0  0  0  0  0  0  0  0  0  0  0
    1.1386    0.3253    1.0797 C   0  0  0  0  0  0  0  0  0  0  0  0
    0.5889    0.0434    2.1381 O   0  0  0  0  0  0  0  0  0  0  0  0
    2.3414    1.0113    1.1248 N   0  0  0  0  0  0  0  0  0  0  0  0
    2.8115    1.1867    0.2422 H   0  0  0  0  0  0  0  0  0  0  0  0
    3.0434    1.3135    2.3665 C   0  0  0  0  0  0  0  0  0  0  0  0
    3.3206    0.3890    2.8839 H   0  0  0  0  0  0  0  0  0  0  0  0
    3.9553    1.8805    2.1566 H   0  0  0  0  0  0  0  0  0  0  0  0
    2.4105    1.9129    3.0295 H   0  0  0  0  0  0  0  0  0  0  0  0
  1  2  1  0  0  0  0
  2  3  1  0  0  0  0
  2  4  1  0  0  0  0
  2  5  1  0  0  0  0
  5  6  2  0  0  0  0
  5  7  1  0  0  0  0
  7  8  1  0  0  0  0
  7 17  1  0  0  0  0
  8  9  1  0  0  0  0
  8 10  1  0  0  0  0
  8 11  1  0  0  0  0
 11 12  1  0  0  0  0
 11 13  1  0  0  0  0
 11 14  1  0  0  0  0
 14 15  1  0  0  0  0
 14 16  1  0  0  0  0
 14 17  1  0  0  0  0
 17 18  1  0  0  0  0
 17 19  1  0  0  0  0
 19 20  2  0  0  0  0
 19 21  1  0  0  0  0
 21 22  1  0  0  0  0
 21 23  1  0  0  0  0
 23 24  1  0  0  0  0
 23 25  1  0  0  0  0
 23 26  1  0  0  0  0
M  END
$$$$

  -OEChem-01062216093D

 26 26  0     1  0  0  0  0  0999 V2000
   -1.8637   -3.9175   -0.4104 H   0  0  0  0  0  0  0  0  0  0  0  0
   -2.0941   -2.8627   -0.5845 C   0  0  0  0  0  0  0  0  0  0  0  0
   -2.7727   -2.5232    0.2019 H   0  0  0  0  0  0  0  0  0  0  0  0
   -2.5875   -2.7663   -1.5542 H   0  0  0  0  0  0  0  0  0  0  0  0
   -0.8122   -2.0387   -0.5614 C   0  0  0  0  0  0  0  0  0  0  0  0
    0.2359   -2.6332   -0.7782 O   0  0  0  0  0  0  0  0  0  0  0  0
   -0.8058   -0.6878   -0.2046 N   0  0  0  0  0  0  0  0  0  0  0  0
   -1.9206    0.1142   -0.7005 C   0  0  0  0  0  0  0  0  0  0  0  0
   -2.4460    0.5702    0.1455 H   0  0  0  0  0  0  0  0  0  0  0  0
   -2.6516   -0.4433   -1.2936 H   0  0  0  0  0  0  0  0  0  0  0  0
   -1.2643    1.1842   -1.5659 C   0  0  0  0  0  0  0  0  0  0  0  0
   -1.8796    2.0852   -1.6524 H   0  0  0  0  0  0  0  0  0  0  0  0
   -1.0630    0.7923   -2.5685 H   0  0  0  0  0  0  0  0  0  0  0  0
    0.0316    1.4345   -0.8255 C   0  0  0  0  0  0  0  0  0  0  0  0
   -0.1625    2.1384   -0.0074 H   0  0  0  0  0  0  0  0  0  0  0  0
    0.7925    1.8687   -1.4814 H   0  0  0  0  0  0  0  0  0  0  0  0
    0.4679    0.0581   -0.2836 C   0  0  1  0  0  0  0  0  0  0  0  0
    1.1895   -0.4070   -0.9629 H   0  0  0  0  0  0  0  0  0  0  0  0
    1.1250    0.3229    1.0965 C   0  0  0  0  0  0  0  0  0  0  0  0
    0.7236   -0.2232    2.1172 O   0  0  0  0  0  0  0  0  0  0  0  0
    2.1410    1.2590    1.2152 N   0  0  0  0  0  0  0  0  0  0  0  0
    2.5033    1.6663    0.3590 H   0  0  0  0  0  0  0  0  0  0  0  0
    2.8179    1.5506    2.4735 C   0  0  0  0  0  0  0  0  0  0  0  0
    3.3245    0.6562    2.8510 H   0  0  0  0  0  0  0  0  0  0  0  0
    3.5648    2.3367    2.3282 H   0  0  0  0  0  0  0  0  0  0  0  0
    2.0996    1.8929    3.2260 H   0  0  0  0  0  0  0  0  0  0  0  0
  1  2  1  0  0  0  0
  2  3  1  0  0  0  0
  2  4  1  0  0  0  0
  2  5  1  0  0  0  0
  5  6  2  0  0  0  0
  5  7  1  0  0  0  0
  7  8  1  0  0  0  0
  7 17  1  0  0  0  0
  8  9  1  0  0  0  0
  8 10  1  0  0  0  0
  8 11  1  0  0  0  0
 11 12  1  0  0  0  0
 11 13  1  0  0  0  0
 11 14  1  0  0  0  0
 14 15  1  0  0  0  0
 14 16  1  0  0  0  0
 14 17  1  0  0  0  0
 17 18  1  0  0  0  0
 17 19  1  0  0  0  0
 19 20  2  0  0  0  0
 19 21  1  0  0  0  0
 21 22  1  0  0  0  0
 21 23  1  0  0  0  0
 23 24  1  0  0  0  0
 23 25  1  0  0  0  0
 23 26  1  0  0  0  0
M  END
$$$$

  -OEChem-01062216093D

 26 26  0     1  0  0  0  0  0999 V2000
   -1.8433   -3.9149   -0.3874 H   0  0  0  0  0  0  0  0  0  0  0  0
   -2.0848   -2.8644   -0.5713 C   0  0  0  0  0  0  0  0  0  0  0  0
   -2.7574   -2.5220    0.2189 H   0  0  0  0  0  0  0  0  0  0  0  0
   -2.5897   -2.7839   -1.5366 H   0  0  0  0  0  0  0  0  0  0  0  0
   -0.8095   -2.0299   -0.5736 C   0  0  0  0  0  0  0  0  0  0  0  0
    0.2347   -2.6137   -0.8330 O   0  0  0  0  0  0  0  0  0  0  0  0
   -0.8080   -0.6819   -0.2024 N   0  0  0  0  0  0  0  0  0  0  0  0
   -1.9240    0.1113   -0.7103 C   0  0  0  0  0  0  0  0  0  0  0  0
   -2.4555    0.5722    0.1293 H   0  0  0  0  0  0  0  0  0  0  0  0
   -2.6504   -0.4541   -1.3019 H   0  0  0  0  0  0  0  0  0  0  0  0
   -1.2703    1.1769   -1.5822 C   0  0  0  0  0  0  0  0  0  0  0  0
   -1.8900    2.0737   -1.6789 H   0  0  0  0  0  0  0  0  0  0  0  0
   -1.0628    0.7772   -2.5804 H   0  0  0  0  0  0  0  0  0  0  0  0
    0.0203    1.4391   -0.8378 C   0  0  0  0  0  0  0  0  0  0  0  0
   -0.1902    2.1490   -0.0296 H   0  0  0  0  0  0  0  0  0  0  0  0
    0.7827    1.8730   -1.4923 H   0  0  0  0  0  0  0  0  0  0  0  0
    0.4639    0.0687   -0.2809 C   0  0  1  0  0  0  0  0  0  0  0  0
    1.1892   -0.3934   -0.9583 H   0  0  0  0  0  0  0  0  0  0  0  0
    1.1209    0.3166    1.1051 C   0  0  0  0  0  0  0  0  0  0  0  0
    0.9181   -0.4402    2.0465 O   0  0  0  0  0  0  0  0  0  0  0  0
    1.9046    1.4376    1.3387 N   0  0  0  0  0  0  0  0  0  0  0  0
    2.1055    2.0409    0.5477 H   0  0  0  0  0  0  0  0  0  0  0  0
    2.5474    1.7179    2.6175 C   0  0  0  0  0  0  0  0  0  0  0  0
    3.2773    0.9378    2.8579 H   0  0  0  0  0  0  0  0  0  0  0  0
    3.0679    2.6794    2.5763 H   0  0  0  0  0  0  0  0  0  0  0  0
    1.8033    1.7639    3.4197 H   0  0  0  0  0  0  0  0  0  0  0  0
  1  2  1  0  0  0  0
  2  3  1  0  0  0  0
  2  4  1  0  0  0  0
  2  5  1  0  0  0  0
  5  6  2  0  0  0  0
  5  7  1  0  0  0  0
  7  8  1  0  0  0  0
  7 17  1  0  0  0  0
  8  9  1  0  0  0  0
  8 10  1  0  0  0  0
  8 11  1  0  0  0  0
 11 12  1  0  0  0  0
 11 13  1  0  0  0  0
 11 14  1  0  0  0  0
 14 15  1  0  0  0  0
 14 16  1  0  0  0  0
 14 17  1  0  0  0  0
 17 18  1  0  0  0  0
 17 19  1  0  0  0  0
 19 20  2  0  0  0  0
 19 21  1  0  0  0  0
 21 22  1  0  0  0  0
 21 23  1  0  0  0  0
 23 24  1  0  0  0  0
 23 25  1  0  0  0  0
 23 26  1  0  0  0  0
M  END
$$$$

  -OEChem-01062216093D

 26 26  0     1  0  0  0  0  0999 V2000
   -1.8028   -3.9115   -0.3443 H   0  0  0  0  0  0  0  0  0  0  0  0
   -2.0663   -2.8680   -0.5383 C   0  0  0  0  0  0  0  0  0  0  0  0
   -2.7199   -2.5219    0.2662 H   0  0  0  0  0  0  0  0  0  0  0  0
   -2.6018   -2.8109   -1.4887 H   0  0  0  0  0  0  0  0  0  0  0  0
   -0.8043   -2.0152   -0.5928 C   0  0  0  0  0  0  0  0  0  0  0  0
    0.2336   -2.5824   -0.9064 O   0  0  0  0  0  0  0  0  0  0  0  0
   -0.8109   -0.6710   -0.2065 N   0  0  0  0  0  0  0  0  0  0  0  0
   -1.9275    0.1080   -0.7346 C   0  0  0  0  0  0  0  0  0  0  0  0
   -2.4685    0.5767    0.0944 H   0  0  0  0  0  0  0  0  0  0  0  0
   -2.6460   -0.4706   -1.3235 H   0  0  0  0  0  0  0  0  0  0  0  0
   -1.2764    1.1670   -1.6167 C   0  0  0  0  0  0  0  0  0  0  0  0
   -1.9041    2.0558   -1.7346 H   0  0  0  0  0  0  0  0  0  0  0  0
   -1.0541    0.7536   -2.6062 H   0  0  0  0  0  0  0  0  0  0  0  0
    0.0039    1.4524   -0.8639 C   0  0  0  0  0  0  0  0  0  0  0  0
   -0.2321    2.1731   -0.0740 H   0  0  0  0  0  0  0  0  0  0  0  0
    0.7704    1.8860   -1.5143 H   0  0  0  0  0  0  0  0  0  0  0  0
    0.4544    0.0919   -0.2836 C   0  0  1  0  0  0  0  0  0  0  0  0
    1.1872   -0.3674   -0.9547 H   0  0  0  0  0  0  0  0  0  0  0  0
    1.1051    0.3217    1.1102 C   0  0  0  0  0  0  0  0  0  0  0  0
    1.1411   -0.5857    1.9312 O   0  0  0  0  0  0  0  0  0  0  0  0
    1.6209    1.5501    1.4993 N   0  0  0  0  0  0  0  0  0  0  0  0
    1.6258    2.2951    0.8107 H   0  0  0  0  0  0  0  0  0  0  0  0
    2.2511    1.7851    2.7935 C   0  0  0  0  0  0  0  0  0  0  0  0
    3.1352    1.1493    2.9092 H   0  0  0  0  0  0  0  0  0  0  0  0
    2.5628    2.8305    2.8781 H   0  0  0  0  0  0  0  0  0  0  0  0
    1.5509    1.5670    3.6068 H   0  0  0  0  0  0  0  0  0  0  0  0
  1  2  1  0  0  0  0
  2  3  1  0  0  0  0
  2  4  1  0  0  0  0
  2  5  1  0  0  0  0
  5  6  2  0  0  0  0
  5  7  1  0  0  0  0
  7  8  1  0  0  0  0
  7 17  1  0  0  0  0
  8  9  1  0  0  0  0
  8 10  1  0  0  0  0
  8 11  1  0  0  0  0
 11 12  1  0  0  0  0
 11 13  1  0  0  0  0
 11 14  1  0  0  0  0
 14 15  1  0  0  0  0
 14 16  1  0  0  0  0
 14 17  1  0  0  0  0
 17 18  1  0  0  0  0
 17 19  1  0  0  0  0
 19 20  2  0  0  0  0
 19 21  1  0  0  0  0
 21 22  1  0  0  0  0
 21 23  1  0  0  0  0
 23 24  1  0  0  0  0
 23 25  1  0  0  0  0
 23 26  1  0  0  0  0
M  END
$$$$

  -OEChem-01062216093D

 26 26  0     1  0  0  0  0  0999 V2000
   -1.7779   -3.9084   -0.3209 H   0  0  0  0  0  0  0  0  0  0  0  0
   -2.0539   -2.8692   -0.5206 C   0  0  0  0  0  0  0  0  0  0  0  0
   -2.6980   -2.5214    0.2907 H   0  0  0  0  0  0  0  0  0  0  0  0
   -2.6048   -2.8264   -1.4629 H   0  0  0  0  0  0  0  0  0  0  0  0
   -0.8005   -2.0061   -0.6034 C   0  0  0  0  0  0  0  0  0  0  0  0
    0.2316   -2.5634   -0.9502 O   0  0  0  0  0  0  0  0  0  0  0  0
   -0.8107   -0.6643   -0.2071 N   0  0  0  0  0  0  0  0  0  0  0  0
   -1.9275    0.1066   -0.7472 C   0  0  0  0  0  0  0  0  0  0  0  0
   -2.4698    0.5850    0.0756 H   0  0  0  0  0  0  0  0  0  0  0  0
   -2.6459   -0.4801   -1.3282 H   0  0  0  0  0  0  0  0  0  0  0  0
   -1.2793    1.1570   -1.6433 C   0  0  0  0  0  0  0  0  0  0  0  0
   -1.9111    2.0406   -1.7771 H   0  0  0  0  0  0  0  0  0  0  0  0
   -1.0509    0.7303   -2.6257 H   0  0  0  0  0  0  0  0  0  0  0  0
   -0.0038    1.4604   -0.8899 C   0  0  0  0  0  0  0  0  0  0  0  0
   -0.2508    2.1954   -0.1189 H   0  0  0  0  0  0  0  0  0  0  0  0
    0.7650    1.8859   -1.5431 H   0  0  0  0  0  0  0  0  0  0  0  0
    0.4485    0.1077   -0.2906 C   0  0  1  0  0  0  0  0  0  0  0  0
    1.1840   -0.3527   -0.9579 H   0  0  0  0  0  0  0  0  0  0  0  0
    1.0974    0.3220    1.1076 C   0  0  0  0  0  0  0  0  0  0  0  0
    1.3810   -0.6500    1.7947 O   0  0  0  0  0  0  0  0  0  0  0  0
    1.3387    1.5726    1.6599 N   0  0  0  0  0  0  0  0  0  0  0  0
    1.1270    2.3859    1.0923 H   0  0  0  0  0  0  0  0  0  0  0  0
    1.9355    1.7717    2.9761 C   0  0  0  0  0  0  0  0  0  0  0  0
    2.9436    1.3451    3.0079 H   0  0  0  0  0  0  0  0  0  0  0  0
    2.0045    2.8399    3.2027 H   0  0  0  0  0  0  0  0  0  0  0  0
    1.3259    1.2939    3.7503 H   0  0  0  0  0  0  0  0  0  0  0  0
  1  2  1  0  0  0  0
  2  3  1  0  0  0  0
  2  4  1  0  0  0  0
  2  5  1  0  0  0  0
  5  6  2  0  0  0  0
  5  7  1  0  0  0  0
  7  8  1  0  0  0  0
  7 17  1  0  0  0  0
  8  9  1  0  0  0  0
  8 10  1  0  0  0  0
  8 11  1  0  0  0  0
 11 12  1  0  0  0  0
 11 13  1  0  0  0  0
 11 14  1  0  0  0  0
 14 15  1  0  0  0  0
 14 16  1  0  0  0  0
 14 17  1  0  0  0  0
 17 18  1  0  0  0  0
 17 19  1  0  0  0  0
 19 20  2  0  0  0  0
 19 21  1  0  0  0  0
 21 22  1  0  0  0  0
 21 23  1  0  0  0  0
 23 24  1  0  0  0  0
 23 25  1  0  0  0  0
 23 26  1  0  0  0  0
M  END
$$$$

  -OEChem-01062216093D

 26 26  0     1  0  0  0  0  0999 V2000
   -1.7763   -3.9093   -0.3275 H   0  0  0  0  0  0  0  0  0  0  0  0
   -2.0532   -2.8713   -0.5325 C   0  0  0  0  0  0  0  0  0  0  0  0
   -2.7057   -2.5231    0.2720 H   0  0  0  0  0  0  0  0  0  0  0  0
   -2.5959   -2.8328   -1.4798 H   0  0  0  0  0  0  0  0  0  0  0  0
   -0.8008   -2.0055   -0.6073 C   0  0  0  0  0  0  0  0  0  0  0  0
    0.2332   -2.5620   -0.9470 O   0  0  0  0  0  0  0  0  0  0  0  0
   -0.8142   -0.6657   -0.2031 N   0  0  0  0  0  0  0  0  0  0  0  0
   -1.9265    0.1042   -0.7562 C   0  0  0  0  0  0  0  0  0  0  0  0
   -2.4734    0.5895    0.0594 H   0  0  0  0  0  0  0  0  0  0  0  0
   -2.6431   -0.4851   -1.3371 H   0  0  0  0  0  0  0  0  0  0  0  0
   -1.2731    1.1486   -1.6578 C   0  0  0  0  0  0  0  0  0  0  0  0
   -1.9065    2.0289   -1.8050 H   0  0  0  0  0  0  0  0  0  0  0  0
   -1.0360    0.7135   -2.6346 H   0  0  0  0  0  0  0  0  0  0  0  0
   -0.0039    1.4636   -0.8984 C   0  0  0  0  0  0  0  0  0  0  0  0
   -0.2498    2.2135   -0.1437 H   0  0  0  0  0  0  0  0  0  0  0  0
    0.7706    1.8764   -1.5529 H   0  0  0  0  0  0  0  0  0  0  0  0
    0.4397    0.1145   -0.2864 C   0  0  1  0  0  0  0  0  0  0  0  0
    1.1791   -0.3479   -0.9489 H   0  0  0  0  0  0  0  0  0  0  0  0
    1.0825    0.3168    1.1154 C   0  0  0  0  0  0  0  0  0  0  0  0
    1.6547   -0.6237    1.6485 O   0  0  0  0  0  0  0  0  0  0  0  0
    1.0498    1.5122    1.8200 N   0  0  0  0  0  0  0  0  0  0  0  0
    0.5466    2.2888    1.4062 H   0  0  0  0  0  0  0  0  0  0  0  0
    1.6431    1.6865    3.1412 C   0  0  0  0  0  0  0  0  0  0  0  0
    2.7184    1.4815    3.1085 H   0  0  0  0  0  0  0  0  0  0  0  0
    1.4985    2.7141    3.4881 H   0  0  0  0  0  0  0  0  0  0  0  0
    1.1763    1.0083    3.8633 H   0  0  0  0  0  0  0  0  0  0  0  0
  1  2  1  0  0  0  0
  2  3  1  0  0  0  0
  2  4  1  0  0  0  0
  2  5  1  0  0  0  0
  5  6  2  0  0  0  0
  5  7  1  0  0  0  0
  7  8  1  0  0  0  0
  7 17  1  0  0  0  0
  8  9  1  0  0  0  0
  8 10  1  0  0  0  0
  8 11  1  0  0  0  0
 11 12  1  0  0  0  0
 11 13  1  0  0  0  0
 11 14  1  0  0  0  0
 14 15  1  0  0  0  0
 14 16  1  0  0  0  0
 14 17  1  0  0  0  0
 17 18  1  0  0  0  0
 17 19  1  0  0  0  0
 19 20  2  0  0  0  0
 19 21  1  0  0  0  0
 21 22  1  0  0  0  0
 21 23  1  0  0  0  0
 23 24  1  0  0  0  0
 23 25  1  0  0  0  0
 23 26  1  0  0  0  0
M  END
$$$$

  -OEChem-01062216093D

 26 26  0     1  0  0  0  0  0999 V2000
   -1.8056   -3.9181   -0.3922 H   0  0  0  0  0  0  0  0  0  0  0  0
   -2.0648   -2.8728   -0.5828 C   0  0  0  0  0  0  0  0  0  0  0  0
   -2.7382   -2.5347    0.2087 H   0  0  0  0  0  0  0  0  0  0  0  0
   -2.5772   -2.8086   -1.5455 H   0  0  0  0  0  0  0  0  0  0  0  0
   -0.8017   -2.0193   -0.6013 C   0  0  0  0  0  0  0  0  0  0  0  0
    0.2417   -2.5908   -0.8800 O   0  0  0  0  0  0  0  0  0  0  0  0
   -0.8133   -0.6796   -0.1956 N   0  0  0  0  0  0  0  0  0  0  0  0
   -1.9230    0.1010   -0.7414 C   0  0  0  0  0  0  0  0  0  0  0  0
   -2.4631    0.5864    0.0783 H   0  0  0  0  0  0  0  0  0  0  0  0
   -2.6464   -0.4798   -1.3218 H   0  0  0  0  0  0  0  0  0  0  0  0
   -1.2670    1.1464   -1.6420 C   0  0  0  0  0  0  0  0  0  0  0  0
   -1.8976    2.0293   -1.7863 H   0  0  0  0  0  0  0  0  0  0  0  0
   -1.0339    0.7124   -2.6203 H   0  0  0  0  0  0  0  0  0  0  0  0
    0.0056    1.4568   -0.8857 C   0  0  0  0  0  0  0  0  0  0  0  0
   -0.2200    2.2126   -0.1304 H   0  0  0  0  0  0  0  0  0  0  0  0
    0.7807    1.8596   -1.5458 H   0  0  0  0  0  0  0  0  0  0  0  0
    0.4385    0.1025   -0.2821 C   0  0  1  0  0  0  0  0  0  0  0  0
    1.1752   -0.3617   -0.9469 H   0  0  0  0  0  0  0  0  0  0  0  0
    1.0779    0.2983    1.1196 C   0  0  0  0  0  0  0  0  0  0  0  0
    1.9249   -0.4945    1.5062 O   0  0  0  0  0  0  0  0  0  0  0  0
    0.7881    1.3726    1.9483 N   0  0  0  0  0  0  0  0  0  0  0  0
    0.0257    1.9804    1.6696 H   0  0  0  0  0  0  0  0  0  0  0  0
    1.3735    1.5457    3.2729 C   0  0  0  0  0  0  0  0  0  0  0  0
    2.4648    1.6077    3.2045 H   0  0  0  0  0  0  0  0  0  0  0  0
    1.0048    2.4679    3.7319 H   0  0  0  0  0  0  0  0  0  0  0  0
    1.1082    0.7046    3.9220 H   0  0  0  0  0  0  0  0  0  0  0  0
  1  2  1  0  0  0  0
  2  3  1  0  0  0  0
  2  4  1  0  0  0  0
  2  5  1  0  0  0  0
  5  6  2  0  0  0  0
  5  7  1  0  0  0  0
  7  8  1  0  0  0  0
  7 17  1  0  0  0  0
  8  9  1  0  0  0  0
  8 10  1  0  0  0  0
  8 11  1  0  0  0  0
 11 12  1  0  0  0  0
 11 13  1  0  0  0  0
 11 14  1  0  0  0  0
 14 15  1  0  0  0  0
 14 16  1  0  0  0  0
 14 17  1  0  0  0  0
 17 18  1  0  0  0  0
 17 19  1  0  0  0  0
 19 20  2  0  0  0  0
 19 21  1  0  0  0  0
 21 22  1  0  0  0  0
 21 23  1  0  0  0  0
 23 24  1  0  0  0  0
 23 25  1  0  0  0  0
 23 26  1  0  0  0  0
M  END
$$$$

  -OEChem-01062216093D

 26 26  0     1  0  0  0  0  0999 V2000
   -1.8460   -3.9367   -0.5030 H   0  0  0  0  0  0  0  0  0  0  0  0
   -2.0821   -2.8814   -0.6671 C   0  0  0  0  0  0  0  0  0  0  0  0
   -2.7863   -2.5617    0.1049 H   0  0  0  0  0  0  0  0  0  0  0  0
   -2.5490   -2.7765   -1.6493 H   0  0  0  0  0  0  0  0  0  0  0  0
   -0.8086   -2.0458   -0.5984 C   0  0  0  0  0  0  0  0  0  0  0  0
    0.2435   -2.6359   -0.7901 O   0  0  0  0  0  0  0  0  0  0  0  0
   -0.8175   -0.7069   -0.1898 N   0  0  0  0  0  0  0  0  0  0  0  0
   -1.9248    0.0922   -0.7157 C   0  0  0  0  0  0  0  0  0  0  0  0
   -2.4570    0.5669    0.1155 H   0  0  0  0  0  0  0  0  0  0  0  0
   -2.6557   -0.4714   -1.3032 H   0  0  0  0  0  0  0  0  0  0  0  0
   -1.2648    1.1486   -1.6010 C   0  0  0  0  0  0  0  0  0  0  0  0
   -1.8892    2.0388   -1.7256 H   0  0  0  0  0  0  0  0  0  0  0  0
   -1.0407    0.7308   -2.5883 H   0  0  0  0  0  0  0  0  0  0  0  0
    0.0153    1.4375   -0.8483 C   0  0  0  0  0  0  0  0  0  0  0  0
   -0.1889    2.1817   -0.0741 H   0  0  0  0  0  0  0  0  0  0  0  0
    0.7893    1.8432   -1.5078 H   0  0  0  0  0  0  0  0  0  0  0  0
    0.4375    0.0701   -0.2731 C   0  0  1  0  0  0  0  0  0  0  0  0
    1.1676   -0.3924   -0.9466 H   0  0  0  0  0  0  0  0  0  0  0  0
    1.0790    0.2632    1.1242 C   0  0  0  0  0  0  0  0  0  0  0  0
    2.1377   -0.2909    1.3847 O   0  0  0  0  0  0  0  0  0  0  0  0
    0.5696    1.1558    2.0551 N   0  0  0  0  0  0  0  0  0  0  0  0
   -0.3499    1.5400    1.8642 H   0  0  0  0  0  0  0  0  0  0  0  0
    1.1594    1.3642    3.3722 C   0  0  0  0  0  0  0  0  0  0  0  0
    2.1993    1.6946    3.2789 H   0  0  0  0  0  0  0  0  0  0  0  0
    0.6030    2.1316    3.9188 H   0  0  0  0  0  0  0  0  0  0  0  0
    1.1350    0.4364    3.9534 H   0  0  0  0  0  0  0  0  0  0  0  0
  1  2  1  0  0  0  0
  2  3  1  0  0  0  0
  2  4  1  0  0  0  0
  2  5  1  0  0  0  0
  5  6  2  0  0  0  0
  5  7  1  0  0  0  0
  7  8  1  0  0  0  0
  7 17  1  0  0  0  0
  8  9  1  0  0  0  0
  8 10  1  0  0  0  0
  8 11  1  0  0  0  0
 11 12  1  0  0  0  0
 11 13  1  0  0  0  0
 11 14  1  0  0  0  0
 14 15  1  0  0  0  0
 14 16  1  0  0  0  0
 14 17  1  0  0  0  0
 17 18  1  0  0  0  0
 17 19  1  0  0  0  0
 19 20  2  0  0  0  0
 19 21  1  0  0  0  0
 21 22  1  0  0  0  0
 21 23  1  0  0  0  0
 23 24  1  0  0  0  0
 23 25  1  0  0  0  0
 23 26  1  0  0  0  0
M  END
$$$$

  -OEChem-01062216093D

 26 26  0     1  0  0  0  0  0999 V2000
   -1.8749   -3.9509   -0.5972 H   0  0  0  0  0  0  0  0  0  0  0  0
   -2.0949   -2.8879   -0.7317 C   0  0  0  0  0  0  0  0  0  0  0  0
   -2.8155   -2.5860    0.0324 H   0  0  0  0  0  0  0  0  0  0  0  0
   -2.5351   -2.7457   -1.7215 H   0  0  0  0  0  0  0  0  0  0  0  0
   -0.8148   -2.0697   -0.6027 C   0  0  0  0  0  0  0  0  0  0  0  0
    0.2381   -2.6750   -0.7324 O   0  0  0  0  0  0  0  0  0  0  0  0
   -0.8163   -0.7315   -0.1937 N   0  0  0  0  0  0  0  0  0  0  0  0
   -1.9244    0.0854   -0.6911 C   0  0  0  0  0  0  0  0  0  0  0  0
   -2.4462    0.5457    0.1546 H   0  0  0  0  0  0  0  0  0  0  0  0
   -2.6637   -0.4609   -1.2841 H   0  0  0  0  0  0  0  0  0  0  0  0
   -1.2647    1.1558   -1.5592 C   0  0  0  0  0  0  0  0  0  0  0  0
   -1.8823    2.0543   -1.6544 H   0  0  0  0  0  0  0  0  0  0  0  0
   -1.0571    0.7599   -2.5590 H   0  0  0  0  0  0  0  0  0  0  0  0
    0.0279    1.4173   -0.8173 C   0  0  0  0  0  0  0  0  0  0  0  0
   -0.1539    2.1409   -0.0165 H   0  0  0  0  0  0  0  0  0  0  0  0
    0.7968    1.8319   -1.4775 H   0  0  0  0  0  0  0  0  0  0  0  0
    0.4444    0.0366   -0.2782 C   0  0  1  0  0  0  0  0  0  0  0  0
    1.1656   -0.4232   -0.9634 H   0  0  0  0  0  0  0  0  0  0  0  0
    1.0947    0.2299    1.1106 C   0  0  0  0  0  0  0  0  0  0  0  0
    2.2755   -0.0441    1.2748 O   0  0  0  0  0  0  0  0  0  0  0  0
    0.4224    0.8877    2.1281 N   0  0  0  0  0  0  0  0  0  0  0  0
   -0.5743    1.0255    1.9950 H   0  0  0  0  0  0  0  0  0  0  0  0
    0.9959    1.1166    3.4485 C   0  0  0  0  0  0  0  0  0  0  0  0
    1.9186    1.7011    3.3700 H   0  0  0  0  0  0  0  0  0  0  0  0
    0.2907    1.6699    4.0759 H   0  0  0  0  0  0  0  0  0  0  0  0
    1.2229    0.1634    3.9374 H   0  0  0  0  0  0  0  0  0  0  0  0
  1  2  1  0  0  0  0
  2  3  1  0  0  0  0
  2  4  1  0  0  0  0
  2  5  1  0  0  0  0
  5  6  2  0  0  0  0
  5  7  1  0  0  0  0
  7  8  1  0  0  0  0
  7 17  1  0  0  0  0
  8  9  1  0  0  0  0
  8 10  1  0  0  0  0
  8 11  1  0  0  0  0
 11 12  1  0  0  0  0
 11 13  1  0  0  0  0
 11 14  1  0  0  0  0
 14 15  1  0  0  0  0
 14 16  1  0  0  0  0
 14 17  1  0  0  0  0
 17 18  1  0  0  0  0
 17 19  1  0  0  0  0
 19 20  2  0  0  0  0
 19 21  1  0  0  0  0
 21 22  1  0  0  0  0
 21 23  1  0  0  0  0
 23 24  1  0  0  0  0
 23 25  1  0  0  0  0
 23 26  1  0  0  0  0
M  END
$$$$

  -OEChem-01062216093D

 26 26  0     1  0  0  0  0  0999 V2000
   -1.8975   -3.9587   -0.6683 H   0  0  0  0  0  0  0  0  0  0  0  0
   -2.1065   -2.8908   -0.7792 C   0  0  0  0  0  0  0  0  0  0  0  0
   -2.8380   -2.6024   -0.0205 H   0  0  0  0  0  0  0  0  0  0  0  0
   -2.5281   -2.7196   -1.7725 H   0  0  0  0  0  0  0  0  0  0  0  0
   -0.8222   -2.0869   -0.6075 C   0  0  0  0  0  0  0  0  0  0  0  0
    0.2288   -2.7036   -0.6930 O   0  0  0  0  0  0  0  0  0  0  0  0
   -0.8172   -0.7480   -0.2019 N   0  0  0  0  0  0  0  0  0  0  0  0
   -1.9257    0.0812   -0.6783 C   0  0  0  0  0  0  0  0  0  0  0  0
   -2.4401    0.5310    0.1775 H   0  0  0  0  0  0  0  0  0  0  0  0
   -2.6703   -0.4530   -1.2751 H   0  0  0  0  0  0  0  0  0  0  0  0
   -1.2661    1.1607   -1.5333 C   0  0  0  0  0  0  0  0  0  0  0  0
   -1.8768    2.0660   -1.6069 H   0  0  0  0  0  0  0  0  0  0  0  0
   -1.0718    0.7810   -2.5421 H   0  0  0  0  0  0  0  0  0  0  0  0
    0.0366    1.4001   -0.8010 C   0  0  0  0  0  0  0  0  0  0  0  0
   -0.1320    2.1037    0.0218 H   0  0  0  0  0  0  0  0  0  0  0  0
    0.8011    1.8251   -1.4594 H   0  0  0  0  0  0  0  0  0  0  0  0
    0.4501    0.0107   -0.2887 C   0  0  1  0  0  0  0  0  0  0  0  0
    1.1630   -0.4479   -0.9833 H   0  0  0  0  0  0  0  0  0  0  0  0
    1.1128    0.2112    1.0900 C   0  0  0  0  0  0  0  0  0  0  0  0
    2.3324    0.2166    1.1883 O   0  0  0  0  0  0  0  0  0  0  0  0
    0.3518    0.5972    2.1804 N   0  0  0  0  0  0  0  0  0  0  0  0
   -0.6535    0.4945    2.0816 H   0  0  0  0  0  0  0  0  0  0  0  0
    0.9133    0.8139    3.5076 C   0  0  0  0  0  0  0  0  0  0  0  0
    1.6689    1.6061    3.4799 H   0  0  0  0  0  0  0  0  0  0  0  0
    0.1267    1.1131    4.2066 H   0  0  0  0  0  0  0  0  0  0  0  0
    1.3789   -0.1045    3.8801 H   0  0  0  0  0  0  0  0  0  0  0  0
  1  2  1  0  0  0  0
  2  3  1  0  0  0  0
  2  4  1  0  0  0  0
  2  5  1  0  0  0  0
  5  6  2  0  0  0  0
  5  7  1  0  0  0  0
  7  8  1  0  0  0  0
  7 17  1  0  0  0  0
  8  9  1  0  0  0  0
  8 10  1  0  0  0  0
  8 11  1  0  0  0  0
 11 12  1  0  0  0  0
 11 13  1  0  0  0  0
 11 14  1  0  0  0  0
 14 15  1  0  0  0  0
 14 16  1  0  0  0  0
 14 17  1  0  0  0  0
 17 18  1  0  0  0  0
 17 19  1  0  0  0  0
 19 20  2  0  0  0  0
 19 21  1  0  0  0  0
 21 22  1  0  0  0  0
 21 23  1  0  0  0  0
 23 24  1  0  0  0  0
 23 25  1  0  0  0  0
 23 26  1  0  0  0  0
M  END
$$$$

  -OEChem-01062216093D

 26 26  0     1  0  0  0  0  0999 V2000
   -1.9185   -3.9618   -0.7308 H   0  0  0  0  0  0  0  0  0  0  0  0
   -2.1181   -2.8905   -0.8249 C   0  0  0  0  0  0  0  0  0  0  0  0
   -2.8609   -2.6110   -0.0737 H   0  0  0  0  0  0  0  0  0  0  0  0
   -2.5210   -2.6981   -1.8220 H   0  0  0  0  0  0  0  0  0  0  0  0
   -0.8316   -2.0987   -0.6169 C   0  0  0  0  0  0  0  0  0  0  0  0
    0.2165   -2.7242   -0.6706 O   0  0  0  0  0  0  0  0  0  0  0  0
   -0.8200   -0.7597   -0.2125 N   0  0  0  0  0  0  0  0  0  0  0  0
   -1.9284    0.0798   -0.6698 C   0  0  0  0  0  0  0  0  0  0  0  0
   -2.4319    0.5228    0.1961 H   0  0  0  0  0  0  0  0  0  0  0  0
   -2.6813   -0.4434   -1.2659 H   0  0  0  0  0  0  0  0  0  0  0  0
   -1.2702    1.1654   -1.5168 C   0  0  0  0  0  0  0  0  0  0  0  0
   -1.8757    2.0756   -1.5721 H   0  0  0  0  0  0  0  0  0  0  0  0
   -1.0880    0.7978   -2.5322 H   0  0  0  0  0  0  0  0  0  0  0  0
    0.0409    1.3860   -0.7940 C   0  0  0  0  0  0  0  0  0  0  0  0
   -0.1174    2.0753    0.0435 H   0  0  0  0  0  0  0  0  0  0  0  0
    0.8017    1.8187   -1.4518 H   0  0  0  0  0  0  0  0  0  0  0  0
    0.4540   -0.0104   -0.3017 C   0  0  1  0  0  0  0  0  0  0  0  0
    1.1591   -0.4675   -1.0051 H   0  0  0  0  0  0  0  0  0  0  0  0
    1.1304    0.1947    1.0689 C   0  0  0  0  0  0  0  0  0  0  0  0
    2.3252    0.4527    1.1309 O   0  0  0  0  0  0  0  0  0  0  0  0
    0.3595    0.2869    2.2142 N   0  0  0  0  0  0  0  0  0  0  0  0
   -0.6075   -0.0105    2.1244 H   0  0  0  0  0  0  0  0  0  0  0  0
    0.9213    0.4851    3.5437 C   0  0  0  0  0  0  0  0  0  0  0  0
    1.4809    1.4254    3.5873 H   0  0  0  0  0  0  0  0  0  0  0  0
    0.1214    0.5257    4.2891 H   0  0  0  0  0  0  0  0  0  0  0  0
    1.5951   -0.3389    3.8009 H   0  0  0  0  0  0  0  0  0  0  0  0
  1  2  1  0  0  0  0
  2  3  1  0  0  0  0
  2  4  1  0  0  0  0
  2  5  1  0  0  0  0
  5  6  2  0  0  0  0
  5  7  1  0  0  0  0
  7  8  1  0  0  0  0
  7 17  1  0  0  0  0
  8  9  1  0  0  0  0
  8 10  1  0  0  0  0
  8 11  1  0  0  0  0
 11 12  1  0  0  0  0
 11 13  1  0  0  0  0
 11 14  1  0  0  0  0
 14 15  1  0  0  0  0
 14 16  1  0  0  0  0
 14 17  1  0  0  0  0
 17 18  1  0  0  0  0
 17 19  1  0  0  0  0
 19 20  2  0  0  0  0
 19 21  1  0  0  0  0
 21 22  1  0  0  0  0
 21 23  1  0  0  0  0
 23 24  1  0  0  0  0
 23 25  1  0  0  0  0
 23 26  1  0  0  0  0
M  END
$$$$

  -OEChem-01062216093D

 26 26  0     1  0  0  0  0  0999 V2000
   -1.9377   -3.9558   -0.7813 H   0  0  0  0  0  0  0  0  0  0  0  0
   -2.1312   -2.8820   -0.8595 C   0  0  0  0  0  0  0  0  0  0  0  0
   -2.8798   -2.6108   -0.1111 H   0  0  0  0  0  0  0  0  0  0  0  0
   -2.5234   -2.6712   -1.8573 H   0  0  0  0  0  0  0  0  0  0  0  0
   -0.8434   -2.1000   -0.6257 C   0  0  0  0  0  0  0  0  0  0  0  0
    0.2011   -2.7336   -0.6519 O   0  0  0  0  0  0  0  0  0  0  0  0
   -0.8264   -0.7617   -0.2202 N   0  0  0  0  0  0  0  0  0  0  0  0
   -1.9333    0.0845   -0.6692 C   0  0  0  0  0  0  0  0  0  0  0  0
   -2.4296    0.5270    0.2011 H   0  0  0  0  0  0  0  0  0  0  0  0
   -2.6925   -0.4325   -1.2627 H   0  0  0  0  0  0  0  0  0  0  0  0
   -1.2749    1.1693   -1.5160 C   0  0  0  0  0  0  0  0  0  0  0  0
   -1.8749    2.0835   -1.5631 H   0  0  0  0  0  0  0  0  0  0  0  0
   -1.1012    0.8056   -2.5342 H   0  0  0  0  0  0  0  0  0  0  0  0
    0.0411    1.3786   -0.7993 C   0  0  0  0  0  0  0  0  0  0  0  0
   -0.1095    2.0639    0.0432 H   0  0  0  0  0  0  0  0  0  0  0  0
    0.8005    1.8114   -1.4586 H   0  0  0  0  0  0  0  0  0  0  0  0
    0.4528   -0.0206   -0.3131 C   0  0  1  0  0  0  0  0  0  0  0  0
    1.1506   -0.4801   -1.0217 H   0  0  0  0  0  0  0  0  0  0  0  0
    1.1431    0.1852    1.0513 C   0  0  0  0  0  0  0  0  0  0  0  0
    2.2674    0.6676    1.1034 O   0  0  0  0  0  0  0  0  0  0  0  0
    0.4406   -0.0197    2.2248 N   0  0  0  0  0  0  0  0  0  0  0  0
   -0.4562   -0.4879    2.1305 H   0  0  0  0  0  0  0  0  0  0  0  0
    1.0232    0.1445    3.5497 C   0  0  0  0  0  0  0  0  0  0  0  0
    1.3655    1.1748    3.6921 H   0  0  0  0  0  0  0  0  0  0  0  0
    0.2796   -0.0812    4.3198 H   0  0  0  0  0  0  0  0  0  0  0  0
    1.8745   -0.5318    3.6802 H   0  0  0  0  0  0  0  0  0  0  0  0
  1  2  1  0  0  0  0
  2  3  1  0  0  0  0
  2  4  1  0  0  0  0
  2  5  1  0  0  0  0
  5  6  2  0  0  0  0
  5  7  1  0  0  0  0
  7  8  1  0  0  0  0
  7 17  1  0  0  0  0
  8  9  1  0  0  0  0
  8 10  1  0  0  0  0
  8 11  1  0  0  0  0
 11 12  1  0  0  0  0
 11 13  1  0  0  0  0
 11 14  1  0  0  0  0
 14 15  1  0  0  0  0
 14 16  1  0  0  0  0
 14 17  1  0  0  0  0
 17 18  1  0  0  0  0
 17 19  1  0  0  0  0
 19 20  2  0  0  0  0
 19 21  1  0  0  0  0
 21 22  1  0  0  0  0
 21 23  1  0  0  0  0
 23 24  1  0  0  0  0
 23 25  1  0  0  0  0
 23 26  1  0  0  0  0
M  END
$$$$

  -OEChem-01062216093D

 26 26  0     1  0  0  0  0  0999 V2000
   -1.9531   -3.9437   -0.8214 H   0  0  0  0  0  0  0  0  0  0  0  0
   -2.1428   -2.8682   -0.8824 C   0  0  0  0  0  0  0  0  0  0  0  0
   -2.8990   -2.6082   -0.1376 H   0  0  0  0  0  0  0  0  0  0  0  0
   -2.5235   -2.6393   -1.8807 H   0  0  0  0  0  0  0  0  0  0  0  0
   -0.8558   -2.0936   -0.6211 C   0  0  0  0  0  0  0  0  0  0  0  0
    0.1848   -2.7344   -0.6156 O   0  0  0  0  0  0  0  0  0  0  0  0
   -0.8342   -0.7544   -0.2191 N   0  0  0  0  0  0  0  0  0  0  0  0
   -1.9391    0.0950   -0.6667 C   0  0  0  0  0  0  0  0  0  0  0  0
   -2.4254    0.5465    0.2048 H   0  0  0  0  0  0  0  0  0  0  0  0
   -2.7072   -0.4203   -1.2499 H   0  0  0  0  0  0  0  0  0  0  0  0
   -1.2817    1.1712   -1.5248 C   0  0  0  0  0  0  0  0  0  0  0  0
   -1.8778    2.0877   -1.5743 H   0  0  0  0  0  0  0  0  0  0  0  0
   -1.1148    0.8000   -2.5414 H   0  0  0  0  0  0  0  0  0  0  0  0
    0.0382    1.3777   -0.8156 C   0  0  0  0  0  0  0  0  0  0  0  0
   -0.1081    2.0674    0.0243 H   0  0  0  0  0  0  0  0  0  0  0  0
    0.7964    1.8056   -1.4794 H   0  0  0  0  0  0  0  0  0  0  0  0
    0.4491   -0.0204   -0.3217 C   0  0  1  0  0  0  0  0  0  0  0  0
    1.1402   -0.4875   -1.0319 H   0  0  0  0  0  0  0  0  0  0  0  0
    1.1520    0.1882    1.0379 C   0  0  0  0  0  0  0  0  0  0  0  0
    2.1776    0.8548    1.1064 O   0  0  0  0  0  0  0  0  0  0  0  0
    0.5808   -0.2924    2.2017 N   0  0  0  0  0  0  0  0  0  0  0  0
   -0.2161   -0.9115    2.0828 H   0  0  0  0  0  0  0  0  0  0  0  0
    1.2075   -0.1814    3.5121 C   0  0  0  0  0  0  0  0  0  0  0  0
    1.3427    0.8706    3.7842 H   0  0  0  0  0  0  0  0  0  0  0  0
    0.5797   -0.6565    4.2720 H   0  0  0  0  0  0  0  0  0  0  0  0
    2.1852   -0.6745    3.5121 H   0  0  0  0  0  0  0  0  0  0  0  0
  1  2  1  0  0  0  0
  2  3  1  0  0  0  0
  2  4  1  0  0  0  0
  2  5  1  0  0  0  0
  5  6  2  0  0  0  0
  5  7  1  0  0  0  0
  7  8  1  0  0  0  0
  7 17  1  0  0  0  0
  8  9  1  0  0  0  0
  8 10  1  0  0  0  0
  8 11  1  0  0  0  0
 11 12  1  0  0  0  0
 11 13  1  0  0  0  0
 11 14  1  0  0  0  0
 14 15  1  0  0  0  0
 14 16  1  0  0  0  0
 14 17  1  0  0  0  0
 17 18  1  0  0  0  0
 17 19  1  0  0  0  0
 19 20  2  0  0  0  0
 19 21  1  0  0  0  0
 21 22  1  0  0  0  0
 21 23  1  0  0  0  0
 23 24  1  0  0  0  0
 23 25  1  0  0  0  0
 23 26  1  0  0  0  0
M  END
$$$$

  -OEChem-01062216093D

 26 26  0     1  0  0  0  0  0999 V2000
   -1.9568   -3.9279   -0.8215 H   0  0  0  0  0  0  0  0  0  0  0  0
   -2.1435   -2.8523   -0.8898 C   0  0  0  0  0  0  0  0  0  0  0  0
   -2.9146   -2.5894   -0.1616 H   0  0  0  0  0  0  0  0  0  0  0  0
   -2.5029   -2.6257   -1.8964 H   0  0  0  0  0  0  0  0  0  0  0  0
   -0.8610   -2.0788   -0.6038 C   0  0  0  0  0  0  0  0  0  0  0  0
    0.1760   -2.7242   -0.5537 O   0  0  0  0  0  0  0  0  0  0  0  0
   -0.8385   -0.7383   -0.2079 N   0  0  0  0  0  0  0  0  0  0  0  0
   -1.9455    0.1080   -0.6564 C   0  0  0  0  0  0  0  0  0  0  0  0
   -2.4229    0.5700    0.2145 H   0  0  0  0  0  0  0  0  0  0  0  0
   -2.7206   -0.4113   -1.2262 H   0  0  0  0  0  0  0  0  0  0  0  0
   -1.2958    1.1740   -1.5325 C   0  0  0  0  0  0  0  0  0  0  0  0
   -1.8922    2.0901   -1.5868 H   0  0  0  0  0  0  0  0  0  0  0  0
   -1.1374    0.7918   -2.5465 H   0  0  0  0  0  0  0  0  0  0  0  0
    0.0286    1.3869   -0.8351 C   0  0  0  0  0  0  0  0  0  0  0  0
   -0.1146    2.0856   -0.0023 H   0  0  0  0  0  0  0  0  0  0  0  0
    0.7821    1.8091   -1.5079 H   0  0  0  0  0  0  0  0  0  0  0  0
    0.4448   -0.0065   -0.3273 C   0  0  1  0  0  0  0  0  0  0  0  0
    1.1295   -0.4810   -1.0382 H   0  0  0  0  0  0  0  0  0  0  0  0
    1.1569    0.2034    1.0294 C   0  0  0  0  0  0  0  0  0  0  0  0
    2.0568    1.0278    1.1446 O   0  0  0  0  0  0  0  0  0  0  0  0
    0.7656   -0.5255    2.1371 N   0  0  0  0  0  0  0  0  0  0  0  0
    0.1168   -1.2872    1.9561 H   0  0  0  0  0  0  0  0  0  0  0  0
    1.4545   -0.4714    3.4195 C   0  0  0  0  0  0  0  0  0  0  0  0
    1.4535    0.5508    3.8119 H   0  0  0  0  0  0  0  0  0  0  0  0
    0.9525   -1.1189    4.1446 H   0  0  0  0  0  0  0  0  0  0  0  0
    2.4909   -0.8079    3.3119 H   0  0  0  0  0  0  0  0  0  0  0  0
  1  2  1  0  0  0  0
  2  3  1  0  0  0  0
  2  4  1  0  0  0  0
  2  5  1  0  0  0  0
  5  6  2  0  0  0  0
  5  7  1  0  0  0  0
  7  8  1  0  0  0  0
  7 17  1  0  0  0  0
  8  9  1  0  0  0  0
  8 10  1  0  0  0  0
  8 11  1  0  0  0  0
 11 12  1  0  0  0  0
 11 13  1  0  0  0  0
 11 14  1  0  0  0  0
 14 15  1  0  0  0  0
 14 16  1  0  0  0  0
 14 17  1  0  0  0  0
 17 18  1  0  0  0  0
 17 19  1  0  0  0  0
 19 20  2  0  0  0  0
 19 21  1  0  0  0  0
 21 22  1  0  0  0  0
 21 23  1  0  0  0  0
 23 24  1  0  0  0  0
 23 25  1  0  0  0  0
 23 26  1  0  0  0  0
M  END
$$$$

  -OEChem-01062216093D

 26 26  0     1  0  0  0  0  0999 V2000
   -1.9538   -3.9113   -0.8219 H   0  0  0  0  0  0  0  0  0  0  0  0
   -2.1416   -2.8354   -0.8817 C   0  0  0  0  0  0  0  0  0  0  0  0
   -2.9199   -2.5803   -0.1582 H   0  0  0  0  0  0  0  0  0  0  0  0
   -2.4924   -2.6005   -1.8894 H   0  0  0  0  0  0  0  0  0  0  0  0
   -0.8634   -2.0615   -0.5768 C   0  0  0  0  0  0  0  0  0  0  0  0
    0.1710   -2.7090   -0.4920 O   0  0  0  0  0  0  0  0  0  0  0  0
   -0.8392   -0.7194   -0.1872 N   0  0  0  0  0  0  0  0  0  0  0  0
   -1.9487    0.1222   -0.6389 C   0  0  0  0  0  0  0  0  0  0  0  0
   -2.4142    0.6003    0.2298 H   0  0  0  0  0  0  0  0  0  0  0  0
   -2.7335   -0.4032   -1.1894 H   0  0  0  0  0  0  0  0  0  0  0  0
   -1.3078    1.1726   -1.5399 C   0  0  0  0  0  0  0  0  0  0  0  0
   -1.9046    2.0878   -1.6046 H   0  0  0  0  0  0  0  0  0  0  0  0
   -1.1579    0.7729   -2.5481 H   0  0  0  0  0  0  0  0  0  0  0  0
    0.0219    1.3962   -0.8569 C   0  0  0  0  0  0  0  0  0  0  0  0
   -0.1199    2.1095   -0.0365 H   0  0  0  0  0  0  0  0  0  0  0  0
    0.7701    1.8084   -1.5413 H   0  0  0  0  0  0  0  0  0  0  0  0
    0.4431    0.0101   -0.3286 C   0  0  1  0  0  0  0  0  0  0  0  0
    1.1204   -0.4750   -1.0395 H   0  0  0  0  0  0  0  0  0  0  0  0
    1.1648    0.2182    1.0252 C   0  0  0  0  0  0  0  0  0  0  0  0
    1.9145    1.1702    1.2153 O   0  0  0  0  0  0  0  0  0  0  0  0
    0.9946   -0.7132    2.0326 N   0  0  0  0  0  0  0  0  0  0  0  0
    0.5115   -1.5677    1.7614 H   0  0  0  0  0  0  0  0  0  0  0  0
    1.7404   -0.6905    3.2838 C   0  0  0  0  0  0  0  0  0  0  0  0
    1.5759    0.2551    3.8109 H   0  0  0  0  0  0  0  0  0  0  0  0
    1.4126   -1.5077    3.9332 H   0  0  0  0  0  0  0  0  0  0  0  0
    2.8121   -0.8067    3.0927 H   0  0  0  0  0  0  0  0  0  0  0  0
  1  2  1  0  0  0  0
  2  3  1  0  0  0  0
  2  4  1  0  0  0  0
  2  5  1  0  0  0  0
  5  6  2  0  0  0  0
  5  7  1  0  0  0  0
  7  8  1  0  0  0  0
  7 17  1  0  0  0  0
  8  9  1  0  0  0  0
  8 10  1  0  0  0  0
  8 11  1  0  0  0  0
 11 12  1  0  0  0  0
 11 13  1  0  0  0  0
 11 14  1  0  0  0  0
 14 15  1  0  0  0  0
 14 16  1  0  0  0  0
 14 17  1  0  0  0  0
 17 18  1  0  0  0  0
 17 19  1  0  0  0  0
 19 20  2  0  0  0  0
 19 21  1  0  0  0  0
 21 22  1  0  0  0  0
 21 23  1  0  0  0  0
 23 24  1  0  0  0  0
 23 25  1  0  0  0  0
 23 26  1  0  0  0  0
M  END
$$$$

  -OEChem-01062216093D

 26 26  0     1  0  0  0  0  0999 V2000
   -1.9307   -3.8996   -0.7802 H   0  0  0  0  0  0  0  0  0  0  0  0
   -2.1261   -2.8253   -0.8450 C   0  0  0  0  0  0  0  0  0  0  0  0
   -2.9026   -2.5717   -0.1190 H   0  0  0  0  0  0  0  0  0  0  0  0
   -2.4829   -2.5983   -1.8524 H   0  0  0  0  0  0  0  0  0  0  0  0
   -0.8519   -2.0414   -0.5492 C   0  0  0  0  0  0  0  0  0  0  0  0
    0.1860   -2.6838   -0.4548 O   0  0  0  0  0  0  0  0  0  0  0  0
   -0.8318   -0.6969   -0.1672 N   0  0  0  0  0  0  0  0  0  0  0  0
   -1.9463    0.1347   -0.6249 C   0  0  0  0  0  0  0  0  0  0  0  0
   -2.4053    0.6269    0.2394 H   0  0  0  0  0  0  0  0  0  0  0  0
   -2.7353   -0.4011   -1.1589 H   0  0  0  0  0  0  0  0  0  0  0  0
   -1.3159    1.1709   -1.5497 C   0  0  0  0  0  0  0  0  0  0  0  0
   -1.9159    2.0832   -1.6256 H   0  0  0  0  0  0  0  0  0  0  0  0
   -1.1723    0.7540   -2.5520 H   0  0  0  0  0  0  0  0  0  0  0  0
    0.0175    1.4104   -0.8797 C   0  0  0  0  0  0  0  0  0  0  0  0
   -0.1279    2.1389   -0.0739 H   0  0  0  0  0  0  0  0  0  0  0  0
    0.7603    1.8145   -1.5749 H   0  0  0  0  0  0  0  0  0  0  0  0
    0.4466    0.0336   -0.3297 C   0  0  1  0  0  0  0  0  0  0  0  0
    1.1212   -0.4579   -1.0388 H   0  0  0  0  0  0  0  0  0  0  0  0
    1.1687    0.2399    1.0248 C   0  0  0  0  0  0  0  0  0  0  0  0
    1.7516    1.2799    1.3141 O   0  0  0  0  0  0  0  0  0  0  0  0
    1.2464   -0.8334    1.8923 N   0  0  0  0  0  0  0  0  0  0  0  0
    0.8922   -1.7193    1.5308 H   0  0  0  0  0  0  0  0  0  0  0  0
    2.0410   -0.8328    3.1130 C   0  0  0  0  0  0  0  0  0  0  0  0
    1.7300   -0.0155    3.7721 H   0  0  0  0  0  0  0  0  0  0  0  0
    1.9079   -1.7770    3.6498 H   0  0  0  0  0  0  0  0  0  0  0  0
    3.1036   -0.7127    2.8776 H   0  0  0  0  0  0  0  0  0  0  0  0
  1  2  1  0  0  0  0
  2  3  1  0  0  0  0
  2  4  1  0  0  0  0
  2  5  1  0  0  0  0
  5  6  2  0  0  0  0
  5  7  1  0  0  0  0
  7  8  1  0  0  0  0
  7 17  1  0  0  0  0
  8  9  1  0  0  0  0
  8 10  1  0  0  0  0
  8 11  1  0  0  0  0
 11 12  1  0  0  0  0
 11 13  1  0  0  0  0
 11 14  1  0  0  0  0
 14 15  1  0  0  0  0
 14 16  1  0  0  0  0
 14 17  1  0  0  0  0
 17 18  1  0  0  0  0
 17 19  1  0  0  0  0
 19 20  2  0  0  0  0
 19 21  1  0  0  0  0
 21 22  1  0  0  0  0
 21 23  1  0  0  0  0
 23 24  1  0  0  0  0
 23 25  1  0  0  0  0
 23 26  1  0  0  0  0
M  END
$$$$

  -OEChem-01062216093D

 26 26  0     1  0  0  0  0  0999 V2000
   -1.9067   -3.8903   -0.6901 H   0  0  0  0  0  0  0  0  0  0  0  0
   -2.1086   -2.8189   -0.7782 C   0  0  0  0  0  0  0  0  0  0  0  0
   -2.8650   -2.5491   -0.0370 H   0  0  0  0  0  0  0  0  0  0  0  0
   -2.4957   -2.6196   -1.7803 H   0  0  0  0  0  0  0  0  0  0  0  0
   -0.8299   -2.0225   -0.5402 C   0  0  0  0  0  0  0  0  0  0  0  0
    0.2180   -2.6556   -0.4929 O   0  0  0  0  0  0  0  0  0  0  0  0
   -0.8107   -0.6776   -0.1581 N   0  0  0  0  0  0  0  0  0  0  0  0
   -1.9338    0.1442   -0.6123 C   0  0  0  0  0  0  0  0  0  0  0  0
   -2.3834    0.6455    0.2517 H   0  0  0  0  0  0  0  0  0  0  0  0
   -2.7274   -0.4013   -1.1295 H   0  0  0  0  0  0  0  0  0  0  0  0
   -1.3195    1.1714   -1.5586 C   0  0  0  0  0  0  0  0  0  0  0  0
   -1.9254    2.0793   -1.6404 H   0  0  0  0  0  0  0  0  0  0  0  0
   -1.1849    0.7412   -2.5564 H   0  0  0  0  0  0  0  0  0  0  0  0
    0.0196    1.4269   -0.9063 C   0  0  0  0  0  0  0  0  0  0  0  0
   -0.1254    2.1696   -0.1143 H   0  0  0  0  0  0  0  0  0  0  0  0
    0.7531    1.8236   -1.6153 H   0  0  0  0  0  0  0  0  0  0  0  0
    0.4606    0.0573   -0.3432 C   0  0  1  0  0  0  0  0  0  0  0  0
    1.1304   -0.4336   -1.0572 H   0  0  0  0  0  0  0  0  0  0  0  0
    1.1899    0.2557    1.0091 C   0  0  0  0  0  0  0  0  0  0  0  0
    1.5619    1.3460    1.4309 O   0  0  0  0  0  0  0  0  0  0  0  0
    1.5444   -0.8823    1.7082 N   0  0  0  0  0  0  0  0  0  0  0  0
    1.2815   -1.7728    1.2826 H   0  0  0  0  0  0  0  0  0  0  0  0
    2.3259   -0.8777    2.9369 C   0  0  0  0  0  0  0  0  0  0  0  0
    1.8118   -0.3043    3.7152 H   0  0  0  0  0  0  0  0  0  0  0  0
    2.4665   -1.9011    3.2974 H   0  0  0  0  0  0  0  0  0  0  0  0
    3.3112   -0.4332    2.7625 H   0  0  0  0  0  0  0  0  0  0  0  0
  1  2  1  0  0  0  0
  2  3  1  0  0  0  0
  2  4  1  0  0  0  0
  2  5  1  0  0  0  0
  5  6  2  0  0  0  0
  5  7  1  0  0  0  0
  7  8  1  0  0  0  0
  7 17  1  0  0  0  0
  8  9  1  0  0  0  0
  8 10  1  0  0  0  0
  8 11  1  0  0  0  0
 11 12  1  0  0  0  0
 11 13  1  0  0  0  0
 11 14  1  0  0  0  0
 14 15  1  0  0  0  0
 14 16  1  0  0  0  0
 14 17  1  0  0  0  0
 17 18  1  0  0  0  0
 17 19  1  0  0  0  0
 19 20  2  0  0  0  0
 19 21  1  0  0  0  0
 21 22  1  0  0  0  0
 21 23  1  0  0  0  0
 23 24  1  0  0  0  0
 23 25  1  0  0  0  0
 23 26  1  0  0  0  0
M  END
$$$$

  -OEChem-01062216093D

 26 26  0     1  0  0  0  0  0999 V2000
   -1.8710   -3.8825   -0.6334 H   0  0  0  0  0  0  0  0  0  0  0  0
   -2.0852   -2.8131   -0.7138 C   0  0  0  0  0  0  0  0  0  0  0  0
   -2.8161   -2.5494    0.0546 H   0  0  0  0  0  0  0  0  0  0  0  0
   -2.5104   -2.6177   -1.7010 H   0  0  0  0  0  0  0  0  0  0  0  0
   -0.8053   -2.0060   -0.5223 C   0  0  0  0  0  0  0  0  0  0  0  0
    0.2498   -2.6303   -0.5188 O   0  0  0  0  0  0  0  0  0  0  0  0
   -0.7863   -0.6586   -0.1476 N   0  0  0  0  0  0  0  0  0  0  0  0
   -1.9184    0.1550   -0.5924 C   0  0  0  0  0  0  0  0  0  0  0  0
   -2.3517    0.6693    0.2723 H   0  0  0  0  0  0  0  0  0  0  0  0
   -2.7214   -0.3991   -1.0850 H   0  0  0  0  0  0  0  0  0  0  0  0
   -1.3234    1.1694   -1.5656 C   0  0  0  0  0  0  0  0  0  0  0  0
   -1.9333    2.0741   -1.6514 H   0  0  0  0  0  0  0  0  0  0  0  0
   -1.2041    0.7241   -2.5588 H   0  0  0  0  0  0  0  0  0  0  0  0
    0.0258    1.4392   -0.9400 C   0  0  0  0  0  0  0  0  0  0  0  0
   -0.1088    2.1985   -0.1629 H   0  0  0  0  0  0  0  0  0  0  0  0
    0.7464    1.8238   -1.6684 H   0  0  0  0  0  0  0  0  0  0  0  0
    0.4773    0.0773   -0.3644 C   0  0  1  0  0  0  0  0  0  0  0  0
    1.1370   -0.4166   -1.0860 H   0  0  0  0  0  0  0  0  0  0  0  0
    1.2238    0.2786    0.9779 C   0  0  0  0  0  0  0  0  0  0  0  0
    1.3515    1.3581    1.5463 O   0  0  0  0  0  0  0  0  0  0  0  0
    1.8604   -0.8286    1.5054 N   0  0  0  0  0  0  0  0  0  0  0  0
    1.6642   -1.7193    1.0455 H   0  0  0  0  0  0  0  0  0  0  0  0
    2.5868   -0.8243    2.7680 C   0  0  0  0  0  0  0  0  0  0  0  0
    1.9068   -0.6123    3.5994 H   0  0  0  0  0  0  0  0  0  0  0  0
    3.0512   -1.8003    2.9382 H   0  0  0  0  0  0  0  0  0  0  0  0
    3.3761   -0.0655    2.7545 H   0  0  0  0  0  0  0  0  0  0  0  0
  1  2  1  0  0  0  0
  2  3  1  0  0  0  0
  2  4  1  0  0  0  0
  2  5  1  0  0  0  0
  5  6  2  0  0  0  0
  5  7  1  0  0  0  0
  7  8  1  0  0  0  0
  7 17  1  0  0  0  0
  8  9  1  0  0  0  0
  8 10  1  0  0  0  0
  8 11  1  0  0  0  0
 11 12  1  0  0  0  0
 11 13  1  0  0  0  0
 11 14  1  0  0  0  0
 14 15  1  0  0  0  0
 14 16  1  0  0  0  0
 14 17  1  0  0  0  0
 17 18  1  0  0  0  0
 17 19  1  0  0  0  0
 19 20  2  0  0  0  0
 19 21  1  0  0  0  0
 21 22  1  0  0  0  0
 21 23  1  0  0  0  0
 23 24  1  0  0  0  0
 23 25  1  0  0  0  0
 23 26  1  0  0  0  0
M  END
$$$$

  -OEChem-01062216093D

 26 26  0     1  0  0  0  0  0999 V2000
   -1.8481   -3.8805   -0.5593 H   0  0  0  0  0  0  0  0  0  0  0  0
   -2.0695   -2.8142   -0.6601 C   0  0  0  0  0  0  0  0  0  0  0  0
   -2.7831   -2.5352    0.1193 H   0  0  0  0  0  0  0  0  0  0  0  0
   -2.5192   -2.6433   -1.6410 H   0  0  0  0  0  0  0  0  0  0  0  0
   -0.7897   -1.9973   -0.5186 C   0  0  0  0  0  0  0  0  0  0  0  0
    0.2706   -2.6111   -0.5677 O   0  0  0  0  0  0  0  0  0  0  0  0
   -0.7741   -0.6482   -0.1509 N   0  0  0  0  0  0  0  0  0  0  0  0
   -1.9117    0.1590   -0.5923 C   0  0  0  0  0  0  0  0  0  0  0  0
   -2.3435    0.6744    0.2727 H   0  0  0  0  0  0  0  0  0  0  0  0
   -2.7135   -0.4016   -1.0803 H   0  0  0  0  0  0  0  0  0  0  0  0
   -1.3234    1.1724   -1.5718 C   0  0  0  0  0  0  0  0  0  0  0  0
   -1.9378    2.0740   -1.6585 H   0  0  0  0  0  0  0  0  0  0  0  0
   -1.2067    0.7236   -2.5636 H   0  0  0  0  0  0  0  0  0  0  0  0
    0.0281    1.4508   -0.9529 C   0  0  0  0  0  0  0  0  0  0  0  0
   -0.0994    2.2169   -0.1816 H   0  0  0  0  0  0  0  0  0  0  0  0
    0.7435    1.8298   -1.6893 H   0  0  0  0  0  0  0  0  0  0  0  0
    0.4836    0.0916   -0.3751 C   0  0  1  0  0  0  0  0  0  0  0  0
    1.1421   -0.3986   -1.1000 H   0  0  0  0  0  0  0  0  0  0  0  0
    1.2327    0.3031    0.9638 C   0  0  0  0  0  0  0  0  0  0  0  0
    1.0973    1.2892    1.6811 O   0  0  0  0  0  0  0  0  0  0  0  0
    2.1315   -0.6767    1.3415 N   0  0  0  0  0  0  0  0  0  0  0  0
    2.0785   -1.5499    0.8169 H   0  0  0  0  0  0  0  0  0  0  0  0
    2.8373   -0.6686    2.6161 C   0  0  0  0  0  0  0  0  0  0  0  0
    2.1288   -0.7517    3.4467 H   0  0  0  0  0  0  0  0  0  0  0  0
    3.5335   -1.5112    2.6664 H   0  0  0  0  0  0  0  0  0  0  0  0
    3.4101    0.2575    2.7319 H   0  0  0  0  0  0  0  0  0  0  0  0
  1  2  1  0  0  0  0
  2  3  1  0  0  0  0
  2  4  1  0  0  0  0
  2  5  1  0  0  0  0
  5  6  2  0  0  0  0
  5  7  1  0  0  0  0
  7  8  1  0  0  0  0
  7 17  1  0  0  0  0
  8  9  1  0  0  0  0
  8 10  1  0  0  0  0
  8 11  1  0  0  0  0
 11 12  1  0  0  0  0
 11 13  1  0  0  0  0
 11 14  1  0  0  0  0
 14 15  1  0  0  0  0
 14 16  1  0  0  0  0
 14 17  1  0  0  0  0
 17 18  1  0  0  0  0
 17 19  1  0  0  0  0
 19 20  2  0  0  0  0
 19 21  1  0  0  0  0
 21 22  1  0  0  0  0
 21 23  1  0  0  0  0
 23 24  1  0  0  0  0
 23 25  1  0  0  0  0
 23 26  1  0  0  0  0
M  END
$$$$

  -OEChem-01062216093D

 26 26  0     1  0  0  0  0  0999 V2000
   -1.8484   -3.8832   -0.4926 H   0  0  0  0  0  0  0  0  0  0  0  0
   -2.0717   -2.8198   -0.6169 C   0  0  0  0  0  0  0  0  0  0  0  0
   -2.7681   -2.5192    0.1699 H   0  0  0  0  0  0  0  0  0  0  0  0
   -2.5423   -2.6740   -1.5920 H   0  0  0  0  0  0  0  0  0  0  0  0
   -0.7890   -2.0009   -0.5245 C   0  0  0  0  0  0  0  0  0  0  0  0
    0.2700   -2.6100   -0.6239 O   0  0  0  0  0  0  0  0  0  0  0  0
   -0.7711   -0.6495   -0.1676 N   0  0  0  0  0  0  0  0  0  0  0  0
   -1.9091    0.1571   -0.6066 C   0  0  0  0  0  0  0  0  0  0  0  0
   -2.3474    0.6634    0.2605 H   0  0  0  0  0  0  0  0  0  0  0  0
   -2.7043   -0.4045   -1.1045 H   0  0  0  0  0  0  0  0  0  0  0  0
   -1.3174    1.1796   -1.5749 C   0  0  0  0  0  0  0  0  0  0  0  0
   -1.9336    2.0805   -1.6562 H   0  0  0  0  0  0  0  0  0  0  0  0
   -1.1969    0.7389   -2.5700 H   0  0  0  0  0  0  0  0  0  0  0  0
    0.0322    1.4557   -0.9495 C   0  0  0  0  0  0  0  0  0  0  0  0
   -0.0918    2.2152   -0.1707 H   0  0  0  0  0  0  0  0  0  0  0  0
    0.7480    1.8399   -1.6827 H   0  0  0  0  0  0  0  0  0  0  0  0
    0.4857    0.0932   -0.3818 C   0  0  1  0  0  0  0  0  0  0  0  0
    1.1479   -0.3932   -1.1059 H   0  0  0  0  0  0  0  0  0  0  0  0
    1.2282    0.3227    0.9572 C   0  0  0  0  0  0  0  0  0  0  0  0
    0.8704    1.1493    1.7905 O   0  0  0  0  0  0  0  0  0  0  0  0
    2.3460   -0.4480    1.2191 N   0  0  0  0  0  0  0  0  0  0  0  0
    2.4802   -1.2534    0.6108 H   0  0  0  0  0  0  0  0  0  0  0  0
    3.0505   -0.4189    2.4948 C   0  0  0  0  0  0  0  0  0  0  0  0
    2.4029   -0.7861    3.2975 H   0  0  0  0  0  0  0  0  0  0  0  0
    3.9409   -1.0531    2.4478 H   0  0  0  0  0  0  0  0  0  0  0  0
    3.3682    0.6009    2.7366 H   0  0  0  0  0  0  0  0  0  0  0  0
  1  2  1  0  0  0  0
  2  3  1  0  0  0  0
  2  4  1  0  0  0  0
  2  5  1  0  0  0  0
  5  6  2  0  0  0  0
  5  7  1  0  0  0  0
  7  8  1  0  0  0  0
  7 17  1  0  0  0  0
  8  9  1  0  0  0  0
  8 10  1  0  0  0  0
  8 11  1  0  0  0  0
 11 12  1  0  0  0  0
 11 13  1  0  0  0  0
 11 14  1  0  0  0  0
 14 15  1  0  0  0  0
 14 16  1  0  0  0  0
 14 17  1  0  0  0  0
 17 18  1  0  0  0  0
 17 19  1  0  0  0  0
 19 20  2  0  0  0  0
 19 21  1  0  0  0  0
 21 22  1  0  0  0  0
 21 23  1  0  0  0  0
 23 24  1  0  0  0  0
 23 25  1  0  0  0  0
 23 26  1  0  0  0  0
M  END
$$$$

  -OEChem-01062216093D

 26 26  0     1  0  0  0  0  0999 V2000
   -1.8578   -3.8912   -0.4595 H   0  0  0  0  0  0  0  0  0  0  0  0
   -2.0809   -2.8297   -0.5987 C   0  0  0  0  0  0  0  0  0  0  0  0
   -2.7683   -2.5150    0.1905 H   0  0  0  0  0  0  0  0  0  0  0  0
   -2.5615   -2.6982   -1.5709 H   0  0  0  0  0  0  0  0  0  0  0  0
   -0.7962   -2.0122   -0.5322 C   0  0  0  0  0  0  0  0  0  0  0  0
    0.2599   -2.6199   -0.6624 O   0  0  0  0  0  0  0  0  0  0  0  0
   -0.7772   -0.6593   -0.1835 N   0  0  0  0  0  0  0  0  0  0  0  0
   -1.9120    0.1498   -0.6246 C   0  0  0  0  0  0  0  0  0  0  0  0
   -2.3621    0.6435    0.2437 H   0  0  0  0  0  0  0  0  0  0  0  0
   -2.6984   -0.4085   -1.1402 H   0  0  0  0  0  0  0  0  0  0  0  0
   -1.3085    1.1849   -1.5723 C   0  0  0  0  0  0  0  0  0  0  0  0
   -1.9227    2.0875   -1.6488 H   0  0  0  0  0  0  0  0  0  0  0  0
   -1.1774    0.7568   -2.5714 H   0  0  0  0  0  0  0  0  0  0  0  0
    0.0350    1.4525   -0.9293 C   0  0  0  0  0  0  0  0  0  0  0  0
   -0.0930    2.1977   -0.1365 H   0  0  0  0  0  0  0  0  0  0  0  0
    0.7580    1.8470   -1.6499 H   0  0  0  0  0  0  0  0  0  0  0  0
    0.4822    0.0847   -0.3752 C   0  0  1  0  0  0  0  0  0  0  0  0
    1.1518   -0.3979   -1.0944 H   0  0  0  0  0  0  0  0  0  0  0  0
    1.2112    0.3318    0.9671 C   0  0  0  0  0  0  0  0  0  0  0  0
    0.7040    0.9777    1.8789 O   0  0  0  0  0  0  0  0  0  0  0  0
    2.4860   -0.1771    1.1381 N   0  0  0  0  0  0  0  0  0  0  0  0
    2.7937   -0.8582    0.4485 H   0  0  0  0  0  0  0  0  0  0  0  0
    3.2097   -0.0945    2.4008 C   0  0  0  0  0  0  0  0  0  0  0  0
    2.6833   -0.6544    3.1808 H   0  0  0  0  0  0  0  0  0  0  0  0
    4.2137   -0.5143    2.2880 H   0  0  0  0  0  0  0  0  0  0  0  0
    3.3076    0.9483    2.7204 H   0  0  0  0  0  0  0  0  0  0  0  0
  1  2  1  0  0  0  0
  2  3  1  0  0  0  0
  2  4  1  0  0  0  0
  2  5  1  0  0  0  0
  5  6  2  0  0  0  0
  5  7  1  0  0  0  0
  7  8  1  0  0  0  0
  7 17  1  0  0  0  0
  8  9  1  0  0  0  0
  8 10  1  0  0  0  0
  8 11  1  0  0  0  0
 11 12  1  0  0  0  0
 11 13  1  0  0  0  0
 11 14  1  0  0  0  0
 14 15  1  0  0  0  0
 14 16  1  0  0  0  0
 14 17  1  0  0  0  0
 17 18  1  0  0  0  0
 17 19  1  0  0  0  0
 19 20  2  0  0  0  0
 19 21  1  0  0  0  0
 21 22  1  0  0  0  0
 21 23  1  0  0  0  0
 23 24  1  0  0  0  0
 23 25  1  0  0  0  0
 23 26  1  0  0  0  0
M  END
$$$$

  -OEChem-01062216093D

 26 26  0     1  0  0  0  0  0999 V2000
   -1.8761   -3.9002   -0.4543 H   0  0  0  0  0  0  0  0  0  0  0  0
   -2.0937   -2.8386   -0.6008 C   0  0  0  0  0  0  0  0  0  0  0  0
   -2.7841   -2.5165    0.1829 H   0  0  0  0  0  0  0  0  0  0  0  0
   -2.5686   -2.7102   -1.5763 H   0  0  0  0  0  0  0  0  0  0  0  0
   -0.8059   -2.0262   -0.5317 C   0  0  0  0  0  0  0  0  0  0  0  0
    0.2480   -2.6360   -0.6668 O   0  0  0  0  0  0  0  0  0  0  0  0
   -0.7861   -0.6718   -0.1908 N   0  0  0  0  0  0  0  0  0  0  0  0
   -1.9151    0.1400   -0.6404 C   0  0  0  0  0  0  0  0  0  0  0  0
   -2.3815    0.6226    0.2255 H   0  0  0  0  0  0  0  0  0  0  0  0
   -2.6901   -0.4148   -1.1766 H   0  0  0  0  0  0  0  0  0  0  0  0
   -1.2967    1.1858   -1.5655 C   0  0  0  0  0  0  0  0  0  0  0  0
   -1.9089    2.0899   -1.6392 H   0  0  0  0  0  0  0  0  0  0  0  0
   -1.1519    0.7706   -2.5682 H   0  0  0  0  0  0  0  0  0  0  0  0
    0.0383    1.4430   -0.9000 C   0  0  0  0  0  0  0  0  0  0  0  0
   -0.0997    2.1737   -0.0946 H   0  0  0  0  0  0  0  0  0  0  0  0
    0.7712    1.8482   -1.6045 H   0  0  0  0  0  0  0  0  0  0  0  0
    0.4783    0.0706   -0.3556 C   0  0  1  0  0  0  0  0  0  0  0  0
    1.1576   -0.4108   -1.0664 H   0  0  0  0  0  0  0  0  0  0  0  0
    1.1912    0.3344    0.9912 C   0  0  0  0  0  0  0  0  0  0  0  0
    0.5924    0.7886    1.9612 O   0  0  0  0  0  0  0  0  0  0  0  0
    2.5540    0.1165    1.0889 N   0  0  0  0  0  0  0  0  0  0  0  0
    2.9895   -0.3943    0.3259 H   0  0  0  0  0  0  0  0  0  0  0  0
    3.2962    0.2736    2.3338 C   0  0  0  0  0  0  0  0  0  0  0  0
    2.9379   -0.4376    3.0854 H   0  0  0  0  0  0  0  0  0  0  0  0
    4.3617    0.0921    2.1634 H   0  0  0  0  0  0  0  0  0  0  0  0
    3.1793    1.2896    2.7253 H   0  0  0  0  0  0  0  0  0  0  0  0
  1  2  1  0  0  0  0
  2  3  1  0  0  0  0
  2  4  1  0  0  0  0
  2  5  1  0  0  0  0
  5  6  2  0  0  0  0
  5  7  1  0  0  0  0
  7  8  1  0  0  0  0
  7 17  1  0  0  0  0
  8  9  1  0  0  0  0
  8 10  1  0  0  0  0
  8 11  1  0  0  0  0
 11 12  1  0  0  0  0
 11 13  1  0  0  0  0
 11 14  1  0  0  0  0
 14 15  1  0  0  0  0
 14 16  1  0  0  0  0
 14 17  1  0  0  0  0
 17 18  1  0  0  0  0
 17 19  1  0  0  0  0
 19 20  2  0  0  0  0
 19 21  1  0  0  0  0
 21 22  1  0  0  0  0
 21 23  1  0  0  0  0
 23 24  1  0  0  0  0
 23 25  1  0  0  0  0
 23 26  1  0  0  0  0
M  END
$$$$

  -OEChem-01062216093D

 26 26  0     1  0  0  0  0  0999 V2000
   -1.8864   -3.9083   -0.4485 H   0  0  0  0  0  0  0  0  0  0  0  0
   -2.1019   -2.8470   -0.6011 C   0  0  0  0  0  0  0  0  0  0  0  0
   -2.7937   -2.5194    0.1789 H   0  0  0  0  0  0  0  0  0  0  0  0
   -2.5735   -2.7224   -1.5785 H   0  0  0  0  0  0  0  0  0  0  0  0
   -0.8127   -2.0369   -0.5322 C   0  0  0  0  0  0  0  0  0  0  0  0
    0.2399   -2.6478   -0.6707 O   0  0  0  0  0  0  0  0  0  0  0  0
   -0.7940   -0.6815   -0.1961 N   0  0  0  0  0  0  0  0  0  0  0  0
   -1.9169    0.1317   -0.6569 C   0  0  0  0  0  0  0  0  0  0  0  0
   -2.4004    0.6039    0.2053 H   0  0  0  0  0  0  0  0  0  0  0  0
   -2.6798   -0.4203   -1.2133 H   0  0  0  0  0  0  0  0  0  0  0  0
   -1.2829    1.1865   -1.5597 C   0  0  0  0  0  0  0  0  0  0  0  0
   -1.8924    2.0926   -1.6329 H   0  0  0  0  0  0  0  0  0  0  0  0
   -1.1231    0.7820   -2.5645 H   0  0  0  0  0  0  0  0  0  0  0  0
    0.0421    1.4349   -0.8709 C   0  0  0  0  0  0  0  0  0  0  0  0
   -0.1091    2.1529   -0.0559 H   0  0  0  0  0  0  0  0  0  0  0  0
    0.7854    1.8506   -1.5584 H   0  0  0  0  0  0  0  0  0  0  0  0
    0.4758    0.0588   -0.3335 C   0  0  1  0  0  0  0  0  0  0  0  0
    1.1661   -0.4209   -1.0347 H   0  0  0  0  0  0  0  0  0  0  0  0
    1.1719    0.3352    1.0196 C   0  0  0  0  0  0  0  0  0  0  0  0
    0.5296    0.5743    2.0368 O   0  0  0  0  0  0  0  0  0  0  0  0
    2.5522    0.4239    1.0667 N   0  0  0  0  0  0  0  0  0  0  0  0
    3.0614    0.1196    0.2422 H   0  0  0  0  0  0  0  0  0  0  0  0
    3.2935    0.6459    2.3023 C   0  0  0  0  0  0  0  0  0  0  0  0
    3.1339   -0.1840    2.9987 H   0  0  0  0  0  0  0  0  0  0  0  0
    4.3645    0.7215    2.0917 H   0  0  0  0  0  0  0  0  0  0  0  0
    2.9707    1.5758    2.7821 H   0  0  0  0  0  0  0  0  0  0  0  0
  1  2  1  0  0  0  0
  2  3  1  0  0  0  0
  2  4  1  0  0  0  0
  2  5  1  0  0  0  0
  5  6  2  0  0  0  0
  5  7  1  0  0  0  0
  7  8  1  0  0  0  0
  7 17  1  0  0  0  0
  8  9  1  0  0  0  0
  8 10  1  0  0  0  0
  8 11  1  0  0  0  0
 11 12  1  0  0  0  0
 11 13  1  0  0  0  0
 11 14  1  0  0  0  0
 14 15  1  0  0  0  0
 14 16  1  0  0  0  0
 14 17  1  0  0  0  0
 17 18  1  0  0  0  0
 17 19  1  0  0  0  0
 19 20  2  0  0  0  0
 19 21  1  0  0  0  0
 21 22  1  0  0  0  0
 21 23  1  0  0  0  0
 23 24  1  0  0  0  0
 23 25  1  0  0  0  0
 23 26  1  0  0  0  0
M  END
$$$$

  -OEChem-01062216093D

 26 26  0     1  0  0  0  0  0999 V2000
   -1.8883   -3.9138   -0.4439 H   0  0  0  0  0  0  0  0  0  0  0  0
   -2.1040   -2.8532   -0.6009 C   0  0  0  0  0  0  0  0  0  0  0  0
   -2.7968   -2.5230    0.1771 H   0  0  0  0  0  0  0  0  0  0  0  0
   -2.5745   -2.7323   -1.5792 H   0  0  0  0  0  0  0  0  0  0  0  0
   -0.8153   -2.0424   -0.5332 C   0  0  0  0  0  0  0  0  0  0  0  0
    0.2367   -2.6519   -0.6810 O   0  0  0  0  0  0  0  0  0  0  0  0
   -0.8000   -0.6866   -0.1978 N   0  0  0  0  0  0  0  0  0  0  0  0
   -1.9175    0.1251   -0.6721 C   0  0  0  0  0  0  0  0  0  0  0  0
   -2.4172    0.5913    0.1841 H   0  0  0  0  0  0  0  0  0  0  0  0
   -2.6684   -0.4265   -1.2448 H   0  0  0  0  0  0  0  0  0  0  0  0
   -1.2706    1.1855   -1.5578 C   0  0  0  0  0  0  0  0  0  0  0  0
   -1.8808    2.0906   -1.6355 H   0  0  0  0  0  0  0  0  0  0  0  0
   -1.0944    0.7870   -2.5623 H   0  0  0  0  0  0  0  0  0  0  0  0
    0.0435    1.4307   -0.8472 C   0  0  0  0  0  0  0  0  0  0  0  0
   -0.1218    2.1418   -0.0286 H   0  0  0  0  0  0  0  0  0  0  0  0
    0.7957    1.8528   -1.5209 H   0  0  0  0  0  0  0  0  0  0  0  0
    0.4731    0.0530   -0.3104 C   0  0  1  0  0  0  0  0  0  0  0  0
    1.1757   -0.4244   -1.0008 H   0  0  0  0  0  0  0  0  0  0  0  0
    1.1521    0.3356    1.0507 C   0  0  0  0  0  0  0  0  0  0  0  0
    0.5211    0.3243    2.1019 O   0  0  0  0  0  0  0  0  0  0  0  0
    2.4785    0.7320    1.0775 N   0  0  0  0  0  0  0  0  0  0  0  0
    3.0015    0.6607    0.2100 H   0  0  0  0  0  0  0  0  0  0  0  0
    3.2060    0.9962    2.3132 C   0  0  0  0  0  0  0  0  0  0  0  0
    3.2688    0.0876    2.9212 H   0  0  0  0  0  0  0  0  0  0  0  0
    4.2219    1.3349    2.0886 H   0  0  0  0  0  0  0  0  0  0  0  0
    2.7048    1.7766    2.8953 H   0  0  0  0  0  0  0  0  0  0  0  0
  1  2  1  0  0  0  0
  2  3  1  0  0  0  0
  2  4  1  0  0  0  0
  2  5  1  0  0  0  0
  5  6  2  0  0  0  0
  5  7  1  0  0  0  0
  7  8  1  0  0  0  0
  7 17  1  0  0  0  0
  8  9  1  0  0  0  0
  8 10  1  0  0  0  0
  8 11  1  0  0  0  0
 11 12  1  0  0  0  0
 11 13  1  0  0  0  0
 11 14  1  0  0  0  0
 14 15  1  0  0  0  0
 14 16  1  0  0  0  0
 14 17  1  0  0  0  0
 17 18  1  0  0  0  0
 17 19  1  0  0  0  0
 19 20  2  0  0  0  0
 19 21  1  0  0  0  0
 21 22  1  0  0  0  0
 21 23  1  0  0  0  0
 23 24  1  0  0  0  0
 23 25  1  0  0  0  0
 23 26  1  0  0  0  0
M  END
$$$$

  -OEChem-01062216093D

 26 26  0     1  0  0  0  0  0999 V2000
   -1.8427   -3.9067   -0.2598 H   0  0  0  0  0  0  0  0  0  0  0  0
   -2.0606   -2.8625   -0.5002 C   0  0  0  0  0  0  0  0  0  0  0  0
   -2.7904   -2.4864    0.2210 H   0  0  0  0  0  0  0  0  0  0  0  0
   -2.4869   -2.8151   -1.5047 H   0  0  0  0  0  0  0  0  0  0  0  0
   -0.7842   -2.0347   -0.4318 C   0  0  0  0  0  0  0  0  0  0  0  0
    0.2851   -2.6298   -0.4706 O   0  0  0  0  0  0  0  0  0  0  0  0
   -0.8056   -0.6476   -0.2936 N   0  0  0  0  0  0  0  0  0  0  0  0
   -1.9381    0.1234   -0.7889 C   0  0  0  0  0  0  0  0  0  0  0  0
   -2.5076    0.5313    0.0532 H   0  0  0  0  0  0  0  0  0  0  0  0
   -2.6183   -0.4504   -1.4257 H   0  0  0  0  0  0  0  0  0  0  0  0
   -1.2829    1.2378   -1.5943 C   0  0  0  0  0  0  0  0  0  0  0  0
   -1.9148    2.1291   -1.6559 H   0  0  0  0  0  0  0  0  0  0  0  0
   -1.0612    0.8900   -2.6086 H   0  0  0  0  0  0  0  0  0  0  0  0
    0.0054    1.4931   -0.8321 C   0  0  0  0  0  0  0  0  0  0  0  0
   -0.2026    2.1587    0.0138 H   0  0  0  0  0  0  0  0  0  0  0  0
    0.7640    1.9649   -1.4642 H   0  0  0  0  0  0  0  0  0  0  0  0
    0.4571    0.1094   -0.3372 C   0  0  1  0  0  0  0  0  0  0  0  0
    1.1621   -0.3375   -1.0460 H   0  0  0  0  0  0  0  0  0  0  0  0
    1.1403    0.2964    1.0392 C   0  0  0  0  0  0  0  0  0  0  0  0
    0.5955   -0.0423    2.0837 O   0  0  0  0  0  0  0  0  0  0  0  0
    2.3357    0.9917    1.1153 N   0  0  0  0  0  0  0  0  0  0  0  0
    2.7994    1.2179    0.2411 H   0  0  0  0  0  0  0  0  0  0  0  0
    3.0471    1.2212    2.3670 C   0  0  0  0  0  0  0  0  0  0  0  0
    3.3331    0.2683    2.8246 H   0  0  0  0  0  0  0  0  0  0  0  0
    3.9545    1.8046    2.1844 H   0  0  0  0  0  0  0  0  0  0  0  0
    2.4166    1.7752    3.0704 H   0  0  0  0  0  0  0  0  0  0  0  0
  1  2  1  0  0  0  0
  2  3  1  0  0  0  0
  2  4  1  0  0  0  0
  2  5  1  0  0  0  0
  5  6  2  0  0  0  0
  5  7  1  0  0  0  0
  7  8  1  0  0  0  0
  7 17  1  0  0  0  0
  8  9  1  0  0  0  0
  8 10  1  0  0  0  0
  8 11  1  0  0  0  0
 11 12  1  0  0  0  0
 11 13  1  0  0  0  0
 11 14  1  0  0  0  0
 14 15  1  0  0  0  0
 14 16  1  0  0  0  0
 14 17  1  0  0  0  0
 17 18  1  0  0  0  0
 17 19  1  0  0  0  0
 19 20  2  0  0  0  0
 19 21  1  0  0  0  0
 21 22  1  0  0  0  0
 21 23  1  0  0  0  0
 23 24  1  0  0  0  0
 23 25  1  0  0  0  0
 23 26  1  0  0  0  0
M  END
$$$$

  -OEChem-01062216093D

 26 26  0     1  0  0  0  0  0999 V2000
   -1.8406   -3.9027   -0.2323 H   0  0  0  0  0  0  0  0  0  0  0  0
   -2.0605   -2.8629   -0.4893 C   0  0  0  0  0  0  0  0  0  0  0  0
   -2.7836   -2.4739    0.2318 H   0  0  0  0  0  0  0  0  0  0  0  0
   -2.4962   -2.8327   -1.4905 H   0  0  0  0  0  0  0  0  0  0  0  0
   -0.7829   -2.0350   -0.4470 C   0  0  0  0  0  0  0  0  0  0  0  0
    0.2840   -2.6300   -0.5250 O   0  0  0  0  0  0  0  0  0  0  0  0
   -0.8059   -0.6484   -0.2976 N   0  0  0  0  0  0  0  0  0  0  0  0
   -1.9383    0.1175   -0.8010 C   0  0  0  0  0  0  0  0  0  0  0  0
   -2.5163    0.5223    0.0365 H   0  0  0  0  0  0  0  0  0  0  0  0
   -2.6106   -0.4596   -1.4433 H   0  0  0  0  0  0  0  0  0  0  0  0
   -1.2829    1.2347   -1.6015 C   0  0  0  0  0  0  0  0  0  0  0  0
   -1.9182    2.1234   -1.6679 H   0  0  0  0  0  0  0  0  0  0  0  0
   -1.0525    0.8881   -2.6143 H   0  0  0  0  0  0  0  0  0  0  0  0
   -0.0011    1.4944   -0.8304 C   0  0  0  0  0  0  0  0  0  0  0  0
   -0.2204    2.1588    0.0137 H   0  0  0  0  0  0  0  0  0  0  0  0
    0.7590    1.9705   -1.4575 H   0  0  0  0  0  0  0  0  0  0  0  0
    0.4559    0.1119   -0.3313 C   0  0  1  0  0  0  0  0  0  0  0  0
    1.1664   -0.3298   -1.0378 H   0  0  0  0  0  0  0  0  0  0  0  0
    1.1361    0.2899    1.0504 C   0  0  0  0  0  0  0  0  0  0  0  0
    0.7360   -0.2979    2.0482 O   0  0  0  0  0  0  0  0  0  0  0  0
    2.1432    1.2292    1.2070 N   0  0  0  0  0  0  0  0  0  0  0  0
    2.4920    1.6847    0.3697 H   0  0  0  0  0  0  0  0  0  0  0  0
    2.8234    1.4700    2.4741 C   0  0  0  0  0  0  0  0  0  0  0  0
    3.3579    0.5707    2.7977 H   0  0  0  0  0  0  0  0  0  0  0  0
    3.5466    2.2840    2.3667 H   0  0  0  0  0  0  0  0  0  0  0  0
    2.1029    1.7503    3.2498 H   0  0  0  0  0  0  0  0  0  0  0  0
  1  2  1  0  0  0  0
  2  3  1  0  0  0  0
  2  4  1  0  0  0  0
  2  5  1  0  0  0  0
  5  6  2  0  0  0  0
  5  7  1  0  0  0  0
  7  8  1  0  0  0  0
  7 17  1  0  0  0  0
  8  9  1  0  0  0  0
  8 10  1  0  0  0  0
  8 11  1  0  0  0  0
 11 12  1  0  0  0  0
 11 13  1  0  0  0  0
 11 14  1  0  0  0  0
 14 15  1  0  0  0  0
 14 16  1  0  0  0  0
 14 17  1  0  0  0  0
 17 18  1  0  0  0  0
 17 19  1  0  0  0  0
 19 20  2  0  0  0  0
 19 21  1  0  0  0  0
 21 22  1  0  0  0  0
 21 23  1  0  0  0  0
 23 24  1  0  0  0  0
 23 25  1  0  0  0  0
 23 26  1  0  0  0  0
M  END
$$$$

  -OEChem-01062216093D

 26 26  0     1  0  0  0  0  0999 V2000
   -1.8173   -3.8994   -0.2075 H   0  0  0  0  0  0  0  0  0  0  0  0
   -2.0503   -2.8631   -0.4674 C   0  0  0  0  0  0  0  0  0  0  0  0
   -2.7596   -2.4734    0.2669 H   0  0  0  0  0  0  0  0  0  0  0  0
   -2.5083   -2.8431   -1.4588 H   0  0  0  0  0  0  0  0  0  0  0  0
   -0.7778   -2.0265   -0.4601 C   0  0  0  0  0  0  0  0  0  0  0  0
    0.2881   -2.6145   -0.5862 O   0  0  0  0  0  0  0  0  0  0  0  0
   -0.8089   -0.6408   -0.2982 N   0  0  0  0  0  0  0  0  0  0  0  0
   -1.9422    0.1132   -0.8176 C   0  0  0  0  0  0  0  0  0  0  0  0
   -2.5290    0.5227    0.0115 H   0  0  0  0  0  0  0  0  0  0  0  0
   -2.6073   -0.4736   -1.4590 H   0  0  0  0  0  0  0  0  0  0  0  0
   -1.2885    1.2263   -1.6244 C   0  0  0  0  0  0  0  0  0  0  0  0
   -1.9281    2.1106   -1.7054 H   0  0  0  0  0  0  0  0  0  0  0  0
   -1.0482    0.8697   -2.6316 H   0  0  0  0  0  0  0  0  0  0  0  0
   -0.0148    1.5015   -0.8465 C   0  0  0  0  0  0  0  0  0  0  0  0
   -0.2532    2.1723   -0.0133 H   0  0  0  0  0  0  0  0  0  0  0  0
    0.7472    1.9781   -1.4711 H   0  0  0  0  0  0  0  0  0  0  0  0
    0.4497    0.1264   -0.3295 C   0  0  1  0  0  0  0  0  0  0  0  0
    1.1654   -0.3123   -1.0327 H   0  0  0  0  0  0  0  0  0  0  0  0
    1.1288    0.2924    1.0570 C   0  0  0  0  0  0  0  0  0  0  0  0
    0.9249   -0.5002    1.9681 O   0  0  0  0  0  0  0  0  0  0  0  0
    1.8998    1.4105    1.3383 N   0  0  0  0  0  0  0  0  0  0  0  0
    2.0861    2.0541    0.5762 H   0  0  0  0  0  0  0  0  0  0  0  0
    2.5565    1.6314    2.6217 C   0  0  0  0  0  0  0  0  0  0  0  0
    3.2879    0.8405    2.8183 H   0  0  0  0  0  0  0  0  0  0  0  0
    3.0781    2.5931    2.6190 H   0  0  0  0  0  0  0  0  0  0  0  0
    1.8211    1.6409    3.4331 H   0  0  0  0  0  0  0  0  0  0  0  0
  1  2  1  0  0  0  0
  2  3  1  0  0  0  0
  2  4  1  0  0  0  0
  2  5  1  0  0  0  0
  5  6  2  0  0  0  0
  5  7  1  0  0  0  0
  7  8  1  0  0  0  0
  7 17  1  0  0  0  0
  8  9  1  0  0  0  0
  8 10  1  0  0  0  0
  8 11  1  0  0  0  0
 11 12  1  0  0  0  0
 11 13  1  0  0  0  0
 11 14  1  0  0  0  0
 14 15  1  0  0  0  0
 14 16  1  0  0  0  0
 14 17  1  0  0  0  0
 17 18  1  0  0  0  0
 17 19  1  0  0  0  0
 19 20  2  0  0  0  0
 19 21  1  0  0  0  0
 21 22  1  0  0  0  0
 21 23  1  0  0  0  0
 23 24  1  0  0  0  0
 23 25  1  0  0  0  0
 23 26  1  0  0  0  0
M  END
$$$$

  -OEChem-01062216093D

 26 26  0     1  0  0  0  0  0999 V2000
   -1.7982   -3.8953   -0.1855 H   0  0  0  0  0  0  0  0  0  0  0  0
   -2.0420   -2.8626   -0.4497 C   0  0  0  0  0  0  0  0  0  0  0  0
   -2.7418   -2.4717    0.2928 H   0  0  0  0  0  0  0  0  0  0  0  0
   -2.5162   -2.8535   -1.4336 H   0  0  0  0  0  0  0  0  0  0  0  0
   -0.7740   -2.0192   -0.4699 C   0  0  0  0  0  0  0  0  0  0  0  0
    0.2883   -2.6024   -0.6363 O   0  0  0  0  0  0  0  0  0  0  0  0
   -0.8100   -0.6340   -0.2963 N   0  0  0  0  0  0  0  0  0  0  0  0
   -1.9442    0.1095   -0.8300 C   0  0  0  0  0  0  0  0  0  0  0  0
   -2.5355    0.5275   -0.0084 H   0  0  0  0  0  0  0  0  0  0  0  0
   -2.6055   -0.4876   -1.4657 H   0  0  0  0  0  0  0  0  0  0  0  0
   -1.2946    1.2155   -1.6496 C   0  0  0  0  0  0  0  0  0  0  0  0
   -1.9402    2.0940   -1.7455 H   0  0  0  0  0  0  0  0  0  0  0  0
   -1.0472    0.8467   -2.6506 H   0  0  0  0  0  0  0  0  0  0  0  0
   -0.0266    1.5086   -0.8696 C   0  0  0  0  0  0  0  0  0  0  0  0
   -0.2812    2.1915   -0.0523 H   0  0  0  0  0  0  0  0  0  0  0  0
    0.7368    1.9813   -1.4958 H   0  0  0  0  0  0  0  0  0  0  0  0
    0.4445    0.1415   -0.3318 C   0  0  1  0  0  0  0  0  0  0  0  0
    1.1618   -0.2975   -1.0334 H   0  0  0  0  0  0  0  0  0  0  0  0
    1.1290    0.2960    1.0561 C   0  0  0  0  0  0  0  0  0  0  0  0
    1.1598   -0.6353    1.8495 O   0  0  0  0  0  0  0  0  0  0  0  0
    1.6366    1.5131    1.4881 N   0  0  0  0  0  0  0  0  0  0  0  0
    1.6176    2.2879    0.8335 H   0  0  0  0  0  0  0  0  0  0  0  0
    2.2559    1.7106    2.7941 C   0  0  0  0  0  0  0  0  0  0  0  0
    3.1423    1.0760    2.8977 H   0  0  0  0  0  0  0  0  0  0  0  0
    2.5617    2.7542    2.9143 H   0  0  0  0  0  0  0  0  0  0  0  0
    1.5505    1.4640    3.5946 H   0  0  0  0  0  0  0  0  0  0  0  0
  1  2  1  0  0  0  0
  2  3  1  0  0  0  0
  2  4  1  0  0  0  0
  2  5  1  0  0  0  0
  5  6  2  0  0  0  0
  5  7  1  0  0  0  0
  7  8  1  0  0  0  0
  7 17  1  0  0  0  0
  8  9  1  0  0  0  0
  8 10  1  0  0  0  0
  8 11  1  0  0  0  0
 11 12  1  0  0  0  0
 11 13  1  0  0  0  0
 11 14  1  0  0  0  0
 14 15  1  0  0  0  0
 14 16  1  0  0  0  0
 14 17  1  0  0  0  0
 17 18  1  0  0  0  0
 17 19  1  0  0  0  0
 19 20  2  0  0  0  0
 19 21  1  0  0  0  0
 21 22  1  0  0  0  0
 21 23  1  0  0  0  0
 23 24  1  0  0  0  0
 23 25  1  0  0  0  0
 23 26  1  0  0  0  0
M  END
$$$$

  -OEChem-01062216093D

 26 26  0     1  0  0  0  0  0999 V2000
   -1.7913   -3.8890   -0.1647 H   0  0  0  0  0  0  0  0  0  0  0  0
   -2.0389   -2.8607   -0.4424 C   0  0  0  0  0  0  0  0  0  0  0  0
   -2.7411   -2.4633    0.2944 H   0  0  0  0  0  0  0  0  0  0  0  0
   -2.5126   -2.8665   -1.4267 H   0  0  0  0  0  0  0  0  0  0  0  0
   -0.7739   -2.0126   -0.4727 C   0  0  0  0  0  0  0  0  0  0  0  0
    0.2867   -2.5932   -0.6528 O   0  0  0  0  0  0  0  0  0  0  0  0
   -0.8152   -0.6280   -0.2919 N   0  0  0  0  0  0  0  0  0  0  0  0
   -1.9458    0.1047   -0.8488 C   0  0  0  0  0  0  0  0  0  0  0  0
   -2.5467    0.5327   -0.0392 H   0  0  0  0  0  0  0  0  0  0  0  0
   -2.5997   -0.5031   -1.4822 H   0  0  0  0  0  0  0  0  0  0  0  0
   -1.2934    1.2014   -1.6795 C   0  0  0  0  0  0  0  0  0  0  0  0
   -1.9431    2.0741   -1.7976 H   0  0  0  0  0  0  0  0  0  0  0  0
   -1.0318    0.8178   -2.6716 H   0  0  0  0  0  0  0  0  0  0  0  0
   -0.0367    1.5153   -0.8901 C   0  0  0  0  0  0  0  0  0  0  0  0
   -0.3110    2.2136   -0.0942 H   0  0  0  0  0  0  0  0  0  0  0  0
    0.7333    1.9805   -1.5139 H   0  0  0  0  0  0  0  0  0  0  0  0
    0.4336    0.1575   -0.3262 C   0  0  1  0  0  0  0  0  0  0  0  0
    1.1571   -0.2847   -1.0195 H   0  0  0  0  0  0  0  0  0  0  0  0
    1.1138    0.3051    1.0653 C   0  0  0  0  0  0  0  0  0  0  0  0
    1.4188   -0.6862    1.7135 O   0  0  0  0  0  0  0  0  0  0  0  0
    1.3431    1.5385    1.6586 N   0  0  0  0  0  0  0  0  0  0  0  0
    1.0973    2.3677    1.1289 H   0  0  0  0  0  0  0  0  0  0  0  0
    1.9542    1.7005    2.9731 C   0  0  0  0  0  0  0  0  0  0  0  0
    2.9636    1.2758    2.9811 H   0  0  0  0  0  0  0  0  0  0  0  0
    2.0238    2.7618    3.2301 H   0  0  0  0  0  0  0  0  0  0  0  0
    1.3539    1.1983    3.7393 H   0  0  0  0  0  0  0  0  0  0  0  0
  1  2  1  0  0  0  0
  2  3  1  0  0  0  0
  2  4  1  0  0  0  0
  2  5  1  0  0  0  0
  5  6  2  0  0  0  0
  5  7  1  0  0  0  0
  7  8  1  0  0  0  0
  7 17  1  0  0  0  0
  8  9  1  0  0  0  0
  8 10  1  0  0  0  0
  8 11  1  0  0  0  0
 11 12  1  0  0  0  0
 11 13  1  0  0  0  0
 11 14  1  0  0  0  0
 14 15  1  0  0  0  0
 14 16  1  0  0  0  0
 14 17  1  0  0  0  0
 17 18  1  0  0  0  0
 17 19  1  0  0  0  0
 19 20  2  0  0  0  0
 19 21  1  0  0  0  0
 21 22  1  0  0  0  0
 21 23  1  0  0  0  0
 23 24  1  0  0  0  0
 23 25  1  0  0  0  0
 23 26  1  0  0  0  0
M  END
$$$$

  -OEChem-01062216093D

 26 26  0     1  0  0  0  0  0999 V2000
   -1.8071   -3.8891   -0.1814 H   0  0  0  0  0  0  0  0  0  0  0  0
   -2.0471   -2.8604   -0.4646 C   0  0  0  0  0  0  0  0  0  0  0  0
   -2.7673   -2.4632    0.2548 H   0  0  0  0  0  0  0  0  0  0  0  0
   -2.4962   -2.8659   -1.4603 H   0  0  0  0  0  0  0  0  0  0  0  0
   -0.7811   -2.0128   -0.4642 C   0  0  0  0  0  0  0  0  0  0  0  0
    0.2822   -2.5985   -0.5980 O   0  0  0  0  0  0  0  0  0  0  0  0
   -0.8230   -0.6280   -0.2823 N   0  0  0  0  0  0  0  0  0  0  0  0
   -1.9460    0.1042   -0.8578 C   0  0  0  0  0  0  0  0  0  0  0  0
   -2.5524    0.5433   -0.0586 H   0  0  0  0  0  0  0  0  0  0  0  0
   -2.5972   -0.5070   -1.4906 H   0  0  0  0  0  0  0  0  0  0  0  0
   -1.2846    1.1908   -1.6962 C   0  0  0  0  0  0  0  0  0  0  0  0
   -1.9330    2.0621   -1.8331 H   0  0  0  0  0  0  0  0  0  0  0  0
   -1.0125    0.7943   -2.6803 H   0  0  0  0  0  0  0  0  0  0  0  0
   -0.0357    1.5161   -0.8997 C   0  0  0  0  0  0  0  0  0  0  0  0
   -0.3110    2.2320   -0.1217 H   0  0  0  0  0  0  0  0  0  0  0  0
    0.7421    1.9672   -1.5243 H   0  0  0  0  0  0  0  0  0  0  0  0
    0.4228    0.1626   -0.3173 C   0  0  1  0  0  0  0  0  0  0  0  0
    1.1488   -0.2871   -1.0038 H   0  0  0  0  0  0  0  0  0  0  0  0
    1.0963    0.3050    1.0768 C   0  0  0  0  0  0  0  0  0  0  0  0
    1.7125   -0.6350    1.5574 O   0  0  0  0  0  0  0  0  0  0  0  0
    1.0547    1.4754    1.8209 N   0  0  0  0  0  0  0  0  0  0  0  0
    0.5139    2.2486    1.4505 H   0  0  0  0  0  0  0  0  0  0  0  0
    1.6687    1.6157    3.1365 C   0  0  0  0  0  0  0  0  0  0  0  0
    2.7485    1.4440    3.0758 H   0  0  0  0  0  0  0  0  0  0  0  0
    1.5013    2.6242    3.5265 H   0  0  0  0  0  0  0  0  0  0  0  0
    1.2363    0.8963    3.8398 H   0  0  0  0  0  0  0  0  0  0  0  0
  1  2  1  0  0  0  0
  2  3  1  0  0  0  0
  2  4  1  0  0  0  0
  2  5  1  0  0  0  0
  5  6  2  0  0  0  0
  5  7  1  0  0  0  0
  7  8  1  0  0  0  0
  7 17  1  0  0  0  0
  8  9  1  0  0  0  0
  8 10  1  0  0  0  0
  8 11  1  0  0  0  0
 11 12  1  0  0  0  0
 11 13  1  0  0  0  0
 11 14  1  0  0  0  0
 14 15  1  0  0  0  0
 14 16  1  0  0  0  0
 14 17  1  0  0  0  0
 17 18  1  0  0  0  0
 17 19  1  0  0  0  0
 19 20  2  0  0  0  0
 19 21  1  0  0  0  0
 21 22  1  0  0  0  0
 21 23  1  0  0  0  0
 23 24  1  0  0  0  0
 23 25  1  0  0  0  0
 23 26  1  0  0  0  0
M  END
$$$$

  -OEChem-01062216093D

 26 26  0     1  0  0  0  0  0999 V2000
   -1.8411   -3.9001   -0.2530 H   0  0  0  0  0  0  0  0  0  0  0  0
   -2.0623   -2.8638   -0.5238 C   0  0  0  0  0  0  0  0  0  0  0  0
   -2.8109   -2.4774    0.1719 H   0  0  0  0  0  0  0  0  0  0  0  0
   -2.4673   -2.8459   -1.5381 H   0  0  0  0  0  0  0  0  0  0  0  0
   -0.7927   -2.0244   -0.4508 C   0  0  0  0  0  0  0  0  0  0  0  0
    0.2720   -2.6195   -0.4971 O   0  0  0  0  0  0  0  0  0  0  0  0
   -0.8296   -0.6395   -0.2703 N   0  0  0  0  0  0  0  0  0  0  0  0
   -1.9457    0.1056   -0.8453 C   0  0  0  0  0  0  0  0  0  0  0  0
   -2.5474    0.5492   -0.0451 H   0  0  0  0  0  0  0  0  0  0  0  0
   -2.6042   -0.4968   -1.4787 H   0  0  0  0  0  0  0  0  0  0  0  0
   -1.2748    1.1882   -1.6831 C   0  0  0  0  0  0  0  0  0  0  0  0
   -1.9166    2.0638   -1.8210 H   0  0  0  0  0  0  0  0  0  0  0  0
   -1.0048    0.7901   -2.6670 H   0  0  0  0  0  0  0  0  0  0  0  0
   -0.0241    1.5065   -0.8862 C   0  0  0  0  0  0  0  0  0  0  0  0
   -0.2811    2.2305   -0.1093 H   0  0  0  0  0  0  0  0  0  0  0  0
    0.7584    1.9443   -1.5144 H   0  0  0  0  0  0  0  0  0  0  0  0
    0.4176    0.1481   -0.3067 C   0  0  1  0  0  0  0  0  0  0  0  0
    1.1407   -0.3077   -0.9925 H   0  0  0  0  0  0  0  0  0  0  0  0
    1.0855    0.2849    1.0876 C   0  0  0  0  0  0  0  0  0  0  0  0
    1.9824   -0.4799    1.4124 O   0  0  0  0  0  0  0  0  0  0  0  0
    0.7911    1.3268    1.9541 N   0  0  0  0  0  0  0  0  0  0  0  0
   -0.0031    1.9123    1.7196 H   0  0  0  0  0  0  0  0  0  0  0  0
    1.4086    1.4762    3.2669 C   0  0  0  0  0  0  0  0  0  0  0  0
    2.4943    1.5824    3.1701 H   0  0  0  0  0  0  0  0  0  0  0  0
    1.0190    2.3670    3.7688 H   0  0  0  0  0  0  0  0  0  0  0  0
    1.1941    0.6035    3.8927 H   0  0  0  0  0  0  0  0  0  0  0  0
  1  2  1  0  0  0  0
  2  3  1  0  0  0  0
  2  4  1  0  0  0  0
  2  5  1  0  0  0  0
  5  6  2  0  0  0  0
  5  7  1  0  0  0  0
  7  8  1  0  0  0  0
  7 17  1  0  0  0  0
  8  9  1  0  0  0  0
  8 10  1  0  0  0  0
  8 11  1  0  0  0  0
 11 12  1  0  0  0  0
 11 13  1  0  0  0  0
 11 14  1  0  0  0  0
 14 15  1  0  0  0  0
 14 16  1  0  0  0  0
 14 17  1  0  0  0  0
 17 18  1  0  0  0  0
 17 19  1  0  0  0  0
 19 20  2  0  0  0  0
 19 21  1  0  0  0  0
 21 22  1  0  0  0  0
 21 23  1  0  0  0  0
 23 24  1  0  0  0  0
 23 25  1  0  0  0  0
 23 26  1  0  0  0  0
M  END
$$$$

  -OEChem-01062216093D

 26 26  0     1  0  0  0  0  0999 V2000
   -1.8677   -3.9181   -0.3434 H   0  0  0  0  0  0  0  0  0  0  0  0
   -2.0744   -2.8725   -0.5894 C   0  0  0  0  0  0  0  0  0  0  0  0
   -2.8456   -2.5033    0.0909 H   0  0  0  0  0  0  0  0  0  0  0  0
   -2.4432   -2.8213   -1.6164 H   0  0  0  0  0  0  0  0  0  0  0  0
   -0.8048   -2.0425   -0.4459 C   0  0  0  0  0  0  0  0  0  0  0  0
    0.2563   -2.6449   -0.4122 O   0  0  0  0  0  0  0  0  0  0  0  0
   -0.8352   -0.6579   -0.2654 N   0  0  0  0  0  0  0  0  0  0  0  0
   -1.9477    0.1057   -0.8245 C   0  0  0  0  0  0  0  0  0  0  0  0
   -2.5412    0.5444   -0.0155 H   0  0  0  0  0  0  0  0  0  0  0  0
   -2.6150   -0.4812   -1.4628 H   0  0  0  0  0  0  0  0  0  0  0  0
   -1.2700    1.1932   -1.6511 C   0  0  0  0  0  0  0  0  0  0  0  0
   -1.9035    2.0771   -1.7735 H   0  0  0  0  0  0  0  0  0  0  0  0
   -1.0099    0.8058   -2.6419 H   0  0  0  0  0  0  0  0  0  0  0  0
   -0.0105    1.4897   -0.8586 C   0  0  0  0  0  0  0  0  0  0  0  0
   -0.2458    2.2044   -0.0651 H   0  0  0  0  0  0  0  0  0  0  0  0
    0.7726    1.9259   -1.4872 H   0  0  0  0  0  0  0  0  0  0  0  0
    0.4174    0.1204   -0.3019 C   0  0  1  0  0  0  0  0  0  0  0  0
    1.1337   -0.3372   -0.9940 H   0  0  0  0  0  0  0  0  0  0  0  0
    1.0857    0.2522    1.0883 C   0  0  0  0  0  0  0  0  0  0  0  0
    2.1734   -0.2672    1.2954 O   0  0  0  0  0  0  0  0  0  0  0  0
    0.5784    1.1048    2.0563 N   0  0  0  0  0  0  0  0  0  0  0  0
   -0.3540    1.4721    1.8979 H   0  0  0  0  0  0  0  0  0  0  0  0
    1.1881    1.2765    3.3696 C   0  0  0  0  0  0  0  0  0  0  0  0
    2.2121    1.6520    3.2708 H   0  0  0  0  0  0  0  0  0  0  0  0
    0.6137    1.9949    3.9621 H   0  0  0  0  0  0  0  0  0  0  0  0
    1.2129    0.3231    3.9079 H   0  0  0  0  0  0  0  0  0  0  0  0
  1  2  1  0  0  0  0
  2  3  1  0  0  0  0
  2  4  1  0  0  0  0
  2  5  1  0  0  0  0
  5  6  2  0  0  0  0
  5  7  1  0  0  0  0
  7  8  1  0  0  0  0
  7 17  1  0  0  0  0
  8  9  1  0  0  0  0
  8 10  1  0  0  0  0
  8 11  1  0  0  0  0
 11 12  1  0  0  0  0
 11 13  1  0  0  0  0
 11 14  1  0  0  0  0
 14 15  1  0  0  0  0
 14 16  1  0  0  0  0
 14 17  1  0  0  0  0
 17 18  1  0  0  0  0
 17 19  1  0  0  0  0
 19 20  2  0  0  0  0
 19 21  1  0  0  0  0
 21 22  1  0  0  0  0
 21 23  1  0  0  0  0
 23 24  1  0  0  0  0
 23 25  1  0  0  0  0
 23 26  1  0  0  0  0
M  END
$$$$

  -OEChem-01062216093D

 26 26  0     1  0  0  0  0  0999 V2000
   -1.8878   -3.9334   -0.4183 H   0  0  0  0  0  0  0  0  0  0  0  0
   -2.0842   -2.8809   -0.6425 C   0  0  0  0  0  0  0  0  0  0  0  0
   -2.8693   -2.5251    0.0288 H   0  0  0  0  0  0  0  0  0  0  0  0
   -2.4285   -2.8025   -1.6763 H   0  0  0  0  0  0  0  0  0  0  0  0
   -0.8150   -2.0606   -0.4495 C   0  0  0  0  0  0  0  0  0  0  0  0
    0.2401   -2.6690   -0.3659 O   0  0  0  0  0  0  0  0  0  0  0  0
   -0.8366   -0.6763   -0.2692 N   0  0  0  0  0  0  0  0  0  0  0  0
   -1.9485    0.1060   -0.8036 C   0  0  0  0  0  0  0  0  0  0  0  0
   -2.5312    0.5348    0.0184 H   0  0  0  0  0  0  0  0  0  0  0  0
   -2.6259   -0.4641   -1.4464 H   0  0  0  0  0  0  0  0  0  0  0  0
   -1.2678    1.2027   -1.6149 C   0  0  0  0  0  0  0  0  0  0  0  0
   -1.8938    2.0952   -1.7119 H   0  0  0  0  0  0  0  0  0  0  0  0
   -1.0231    0.8337   -2.6167 H   0  0  0  0  0  0  0  0  0  0  0  0
    0.0041    1.4719   -0.8316 C   0  0  0  0  0  0  0  0  0  0  0  0
   -0.2101    2.1683   -0.0146 H   0  0  0  0  0  0  0  0  0  0  0  0
    0.7842    1.9139   -1.4600 H   0  0  0  0  0  0  0  0  0  0  0  0
    0.4233    0.0903   -0.3070 C   0  0  1  0  0  0  0  0  0  0  0  0
    1.1313   -0.3661   -1.0085 H   0  0  0  0  0  0  0  0  0  0  0  0
    1.0973    0.2197    1.0763 C   0  0  0  0  0  0  0  0  0  0  0  0
    2.2889   -0.0267    1.2027 O   0  0  0  0  0  0  0  0  0  0  0  0
    0.4329    0.8310    2.1268 N   0  0  0  0  0  0  0  0  0  0  0  0
   -0.5673    0.9618    2.0144 H   0  0  0  0  0  0  0  0  0  0  0  0
    1.0256    1.0178    3.4452 C   0  0  0  0  0  0  0  0  0  0  0  0
    1.9307    1.6303    3.3754 H   0  0  0  0  0  0  0  0  0  0  0  0
    0.3185    1.5235    4.1096 H   0  0  0  0  0  0  0  0  0  0  0  0
    1.2876    0.0509    3.8873 H   0  0  0  0  0  0  0  0  0  0  0  0
  1  2  1  0  0  0  0
  2  3  1  0  0  0  0
  2  4  1  0  0  0  0
  2  5  1  0  0  0  0
  5  6  2  0  0  0  0
  5  7  1  0  0  0  0
  7  8  1  0  0  0  0
  7 17  1  0  0  0  0
  8  9  1  0  0  0  0
  8 10  1  0  0  0  0
  8 11  1  0  0  0  0
 11 12  1  0  0  0  0
 11 13  1  0  0  0  0
 11 14  1  0  0  0  0
 14 15  1  0  0  0  0
 14 16  1  0  0  0  0
 14 17  1  0  0  0  0
 17 18  1  0  0  0  0
 17 19  1  0  0  0  0
 19 20  2  0  0  0  0
 19 21  1  0  0  0  0
 21 22  1  0  0  0  0
 21 23  1  0  0  0  0
 23 24  1  0  0  0  0
 23 25  1  0  0  0  0
 23 26  1  0  0  0  0
M  END
$$$$

  -OEChem-01062216093D

 26 26  0     1  0  0  0  0  0999 V2000
   -1.9036   -3.9411   -0.4699 H   0  0  0  0  0  0  0  0  0  0  0  0
   -2.0934   -2.8835   -0.6741 C   0  0  0  0  0  0  0  0  0  0  0  0
   -2.8816   -2.5373   -0.0013 H   0  0  0  0  0  0  0  0  0  0  0  0
   -2.4308   -2.7833   -1.7084 H   0  0  0  0  0  0  0  0  0  0  0  0
   -0.8222   -2.0723   -0.4572 C   0  0  0  0  0  0  0  0  0  0  0  0
    0.2283   -2.6850   -0.3472 O   0  0  0  0  0  0  0  0  0  0  0  0
   -0.8359   -0.6883   -0.2790 N   0  0  0  0  0  0  0  0  0  0  0  0
   -1.9485    0.1059   -0.7942 C   0  0  0  0  0  0  0  0  0  0  0  0
   -2.5235    0.5257    0.0379 H   0  0  0  0  0  0  0  0  0  0  0  0
   -2.6321   -0.4524   -1.4409 H   0  0  0  0  0  0  0  0  0  0  0  0
   -1.2678    1.2102   -1.5935 C   0  0  0  0  0  0  0  0  0  0  0  0
   -1.8883    2.1084   -1.6704 H   0  0  0  0  0  0  0  0  0  0  0  0
   -1.0340    0.8556   -2.6029 H   0  0  0  0  0  0  0  0  0  0  0  0
    0.0132    1.4585   -0.8179 C   0  0  0  0  0  0  0  0  0  0  0  0
   -0.1893    2.1367    0.0182 H   0  0  0  0  0  0  0  0  0  0  0  0
    0.7903    1.9093   -1.4437 H   0  0  0  0  0  0  0  0  0  0  0  0
    0.4300    0.0694   -0.3177 C   0  0  1  0  0  0  0  0  0  0  0  0
    1.1321   -0.3845   -1.0265 H   0  0  0  0  0  0  0  0  0  0  0  0
    1.1130    0.2029    1.0578 C   0  0  0  0  0  0  0  0  0  0  0  0
    2.3340    0.2269    1.1362 O   0  0  0  0  0  0  0  0  0  0  0  0
    0.3626    0.5348    2.1726 N   0  0  0  0  0  0  0  0  0  0  0  0
   -0.6436    0.4332    2.0819 H   0  0  0  0  0  0  0  0  0  0  0  0
    0.9404    0.7031    3.4998 C   0  0  0  0  0  0  0  0  0  0  0  0
    1.6818    1.5090    3.4958 H   0  0  0  0  0  0  0  0  0  0  0  0
    0.1599    0.9573    4.2231 H   0  0  0  0  0  0  0  0  0  0  0  0
    1.4274   -0.2225    3.8243 H   0  0  0  0  0  0  0  0  0  0  0  0
  1  2  1  0  0  0  0
  2  3  1  0  0  0  0
  2  4  1  0  0  0  0
  2  5  1  0  0  0  0
  5  6  2  0  0  0  0
  5  7  1  0  0  0  0
  7  8  1  0  0  0  0
  7 17  1  0  0  0  0
  8  9  1  0  0  0  0
  8 10  1  0  0  0  0
  8 11  1  0  0  0  0
 11 12  1  0  0  0  0
 11 13  1  0  0  0  0
 11 14  1  0  0  0  0
 14 15  1  0  0  0  0
 14 16  1  0  0  0  0
 14 17  1  0  0  0  0
 17 18  1  0  0  0  0
 17 19  1  0  0  0  0
 19 20  2  0  0  0  0
 19 21  1  0  0  0  0
 21 22  1  0  0  0  0
 21 23  1  0  0  0  0
 23 24  1  0  0  0  0
 23 25  1  0  0  0  0
 23 26  1  0  0  0  0
M  END
$$$$

  -OEChem-01062216093D

 26 26  0     1  0  0  0  0  0999 V2000
   -1.9203   -3.9423   -0.4964 H   0  0  0  0  0  0  0  0  0  0  0  0
   -2.1042   -2.8838   -0.7018 C   0  0  0  0  0  0  0  0  0  0  0  0
   -2.8995   -2.5356   -0.0384 H   0  0  0  0  0  0  0  0  0  0  0  0
   -2.4288   -2.7808   -1.7398 H   0  0  0  0  0  0  0  0  0  0  0  0
   -0.8324   -2.0781   -0.4691 C   0  0  0  0  0  0  0  0  0  0  0  0
    0.2140   -2.6945   -0.3397 O   0  0  0  0  0  0  0  0  0  0  0  0
   -0.8389   -0.6945   -0.2898 N   0  0  0  0  0  0  0  0  0  0  0  0
   -1.9509    0.1093   -0.7912 C   0  0  0  0  0  0  0  0  0  0  0  0
   -2.5203    0.5235    0.0475 H   0  0  0  0  0  0  0  0  0  0  0  0
   -2.6395   -0.4400   -1.4401 H   0  0  0  0  0  0  0  0  0  0  0  0
   -1.2689    1.2180   -1.5821 C   0  0  0  0  0  0  0  0  0  0  0  0
   -1.8838    2.1214   -1.6437 H   0  0  0  0  0  0  0  0  0  0  0  0
   -1.0448    0.8741   -2.5974 H   0  0  0  0  0  0  0  0  0  0  0  0
    0.0189    1.4496   -0.8124 C   0  0  0  0  0  0  0  0  0  0  0  0
   -0.1748    2.1158    0.0359 H   0  0  0  0  0  0  0  0  0  0  0  0
    0.7939    1.9058   -1.4369 H   0  0  0  0  0  0  0  0  0  0  0  0
    0.4334    0.0546   -0.3289 C   0  0  1  0  0  0  0  0  0  0  0  0
    1.1297   -0.3981   -1.0438 H   0  0  0  0  0  0  0  0  0  0  0  0
    1.1268    0.1882    1.0412 C   0  0  0  0  0  0  0  0  0  0  0  0
    2.3181    0.4635    1.0992 O   0  0  0  0  0  0  0  0  0  0  0  0
    0.3694    0.2191    2.1984 N   0  0  0  0  0  0  0  0  0  0  0  0
   -0.5953   -0.0849    2.1080 H   0  0  0  0  0  0  0  0  0  0  0  0
    0.9468    0.3632    3.5282 C   0  0  0  0  0  0  0  0  0  0  0  0
    1.4872    1.3121    3.6104 H   0  0  0  0  0  0  0  0  0  0  0  0
    0.1580    0.3492    4.2864 H   0  0  0  0  0  0  0  0  0  0  0  0
    1.6418   -0.4576    3.7344 H   0  0  0  0  0  0  0  0  0  0  0  0
  1  2  1  0  0  0  0
  2  3  1  0  0  0  0
  2  4  1  0  0  0  0
  2  5  1  0  0  0  0
  5  6  2  0  0  0  0
  5  7  1  0  0  0  0
  7  8  1  0  0  0  0
  7 17  1  0  0  0  0
  8  9  1  0  0  0  0
  8 10  1  0  0  0  0
  8 11  1  0  0  0  0
 11 12  1  0  0  0  0
 11 13  1  0  0  0  0
 11 14  1  0  0  0  0
 14 15  1  0  0  0  0
 14 16  1  0  0  0  0
 14 17  1  0  0  0  0
 17 18  1  0  0  0  0
 17 19  1  0  0  0  0
 19 20  2  0  0  0  0
 19 21  1  0  0  0  0
 21 22  1  0  0  0  0
 21 23  1  0  0  0  0
 23 24  1  0  0  0  0
 23 25  1  0  0  0  0
 23 26  1  0  0  0  0
M  END
$$$$

  -OEChem-01062216093D

 26 26  0     1  0  0  0  0  0999 V2000
   -1.9360   -3.9402   -0.5392 H   0  0  0  0  0  0  0  0  0  0  0  0
   -2.1158   -2.8782   -0.7296 C   0  0  0  0  0  0  0  0  0  0  0  0
   -2.9170   -2.5388   -0.0687 H   0  0  0  0  0  0  0  0  0  0  0  0
   -2.4300   -2.7588   -1.7691 H   0  0  0  0  0  0  0  0  0  0  0  0
   -0.8453   -2.0781   -0.4723 C   0  0  0  0  0  0  0  0  0  0  0  0
    0.1958   -2.6980   -0.3173 O   0  0  0  0  0  0  0  0  0  0  0  0
   -0.8468   -0.6945   -0.2936 N   0  0  0  0  0  0  0  0  0  0  0  0
   -1.9563    0.1148   -0.7916 C   0  0  0  0  0  0  0  0  0  0  0  0
   -2.5211    0.5309    0.0493 H   0  0  0  0  0  0  0  0  0  0  0  0
   -2.6499   -0.4300   -1.4389 H   0  0  0  0  0  0  0  0  0  0  0  0
   -1.2718    1.2213   -1.5826 C   0  0  0  0  0  0  0  0  0  0  0  0
   -1.8831    2.1272   -1.6416 H   0  0  0  0  0  0  0  0  0  0  0  0
   -1.0511    0.8776   -2.5987 H   0  0  0  0  0  0  0  0  0  0  0  0
    0.0185    1.4454   -0.8156 C   0  0  0  0  0  0  0  0  0  0  0  0
   -0.1706    2.1100    0.0352 H   0  0  0  0  0  0  0  0  0  0  0  0
    0.7939    1.9002   -1.4403 H   0  0  0  0  0  0  0  0  0  0  0  0
    0.4302    0.0484   -0.3342 C   0  0  1  0  0  0  0  0  0  0  0  0
    1.1215   -0.4075   -1.0517 H   0  0  0  0  0  0  0  0  0  0  0  0
    1.1347    0.1858    1.0308 C   0  0  0  0  0  0  0  0  0  0  0  0
    2.2521    0.6830    1.0926 O   0  0  0  0  0  0  0  0  0  0  0  0
    0.4471   -0.0801    2.2007 N   0  0  0  0  0  0  0  0  0  0  0  0
   -0.4399   -0.5636    2.0951 H   0  0  0  0  0  0  0  0  0  0  0  0
    1.0501    0.0185    3.5230 C   0  0  0  0  0  0  0  0  0  0  0  0
    1.3753    1.0454    3.7195 H   0  0  0  0  0  0  0  0  0  0  0  0
    0.3251   -0.2669    4.2911 H   0  0  0  0  0  0  0  0  0  0  0  0
    1.9164   -0.6469    3.5990 H   0  0  0  0  0  0  0  0  0  0  0  0
  1  2  1  0  0  0  0
  2  3  1  0  0  0  0
  2  4  1  0  0  0  0
  2  5  1  0  0  0  0
  5  6  2  0  0  0  0
  5  7  1  0  0  0  0
  7  8  1  0  0  0  0
  7 17  1  0  0  0  0
  8  9  1  0  0  0  0
  8 10  1  0  0  0  0
  8 11  1  0  0  0  0
 11 12  1  0  0  0  0
 11 13  1  0  0  0  0
 11 14  1  0  0  0  0
 14 15  1  0  0  0  0
 14 16  1  0  0  0  0
 14 17  1  0  0  0  0
 17 18  1  0  0  0  0
 17 19  1  0  0  0  0
 19 20  2  0  0  0  0
 19 21  1  0  0  0  0
 21 22  1  0  0  0  0
 21 23  1  0  0  0  0
 23 24  1  0  0  0  0
 23 25  1  0  0  0  0
 23 26  1  0  0  0  0
M  END
$$$$

  -OEChem-01062216093D

 26 26  0     1  0  0  0  0  0999 V2000
   -1.9441   -3.9329   -0.5746 H   0  0  0  0  0  0  0  0  0  0  0  0
   -2.1232   -2.8687   -0.7522 C   0  0  0  0  0  0  0  0  0  0  0  0
   -2.9347   -2.5398   -0.0986 H   0  0  0  0  0  0  0  0  0  0  0  0
   -2.4223   -2.7355   -1.7945 H   0  0  0  0  0  0  0  0  0  0  0  0
   -0.8588   -2.0694   -0.4644 C   0  0  0  0  0  0  0  0  0  0  0  0
    0.1744   -2.6901   -0.2647 O   0  0  0  0  0  0  0  0  0  0  0  0
   -0.8583   -0.6859   -0.2884 N   0  0  0  0  0  0  0  0  0  0  0  0
   -1.9652    0.1235   -0.7929 C   0  0  0  0  0  0  0  0  0  0  0  0
   -2.5274    0.5478    0.0456 H   0  0  0  0  0  0  0  0  0  0  0  0
   -2.6623   -0.4222   -1.4355 H   0  0  0  0  0  0  0  0  0  0  0  0
   -1.2793    1.2226   -1.5922 C   0  0  0  0  0  0  0  0  0  0  0  0
   -1.8882    2.1297   -1.6569 H   0  0  0  0  0  0  0  0  0  0  0  0
   -1.0592    0.8718   -2.6059 H   0  0  0  0  0  0  0  0  0  0  0  0
    0.0101    1.4482   -0.8255 C   0  0  0  0  0  0  0  0  0  0  0  0
   -0.1799    2.1183    0.0208 H   0  0  0  0  0  0  0  0  0  0  0  0
    0.7870    1.8987   -1.4513 H   0  0  0  0  0  0  0  0  0  0  0  0
    0.4212    0.0537   -0.3325 C   0  0  1  0  0  0  0  0  0  0  0  0
    1.1091   -0.4082   -1.0488 H   0  0  0  0  0  0  0  0  0  0  0  0
    1.1351    0.1956    1.0296 C   0  0  0  0  0  0  0  0  0  0  0  0
    2.1444    0.8841    1.1214 O   0  0  0  0  0  0  0  0  0  0  0  0
    0.5809   -0.3466    2.1744 N   0  0  0  0  0  0  0  0  0  0  0  0
   -0.1674   -1.0171    2.0231 H   0  0  0  0  0  0  0  0  0  0  0  0
    1.2386   -0.3069    3.4738 C   0  0  0  0  0  0  0  0  0  0  0  0
    1.4064    0.7288    3.7871 H   0  0  0  0  0  0  0  0  0  0  0  0
    0.6155   -0.7977    4.2274 H   0  0  0  0  0  0  0  0  0  0  0  0
    2.2033   -0.8232    3.4305 H   0  0  0  0  0  0  0  0  0  0  0  0
  1  2  1  0  0  0  0
  2  3  1  0  0  0  0
  2  4  1  0  0  0  0
  2  5  1  0  0  0  0
  5  6  2  0  0  0  0
  5  7  1  0  0  0  0
  7  8  1  0  0  0  0
  7 17  1  0  0  0  0
  8  9  1  0  0  0  0
  8 10  1  0  0  0  0
  8 11  1  0  0  0  0
 11 12  1  0  0  0  0
 11 13  1  0  0  0  0
 11 14  1  0  0  0  0
 14 15  1  0  0  0  0
 14 16  1  0  0  0  0
 14 17  1  0  0  0  0
 17 18  1  0  0  0  0
 17 19  1  0  0  0  0
 19 20  2  0  0  0  0
 19 21  1  0  0  0  0
 21 22  1  0  0  0  0
 21 23  1  0  0  0  0
 23 24  1  0  0  0  0
 23 25  1  0  0  0  0
 23 26  1  0  0  0  0
M  END
$$$$

  -OEChem-01062216093D

 26 26  0     1  0  0  0  0  0999 V2000
   -1.9535   -3.9208   -0.5840 H   0  0  0  0  0  0  0  0  0  0  0  0
   -2.1307   -2.8558   -0.7585 C   0  0  0  0  0  0  0  0  0  0  0  0
   -2.9500   -2.5306   -0.1128 H   0  0  0  0  0  0  0  0  0  0  0  0
   -2.4177   -2.7176   -1.8037 H   0  0  0  0  0  0  0  0  0  0  0  0
   -0.8696   -2.0580   -0.4514 C   0  0  0  0  0  0  0  0  0  0  0  0
    0.1559   -2.6802   -0.2163 O   0  0  0  0  0  0  0  0  0  0  0  0
   -0.8642   -0.6748   -0.2768 N   0  0  0  0  0  0  0  0  0  0  0  0
   -1.9707    0.1338   -0.7837 C   0  0  0  0  0  0  0  0  0  0  0  0
   -2.5278    0.5655    0.0547 H   0  0  0  0  0  0  0  0  0  0  0  0
   -2.6728   -0.4143   -1.4185 H   0  0  0  0  0  0  0  0  0  0  0  0
   -1.2872    1.2249   -1.5954 C   0  0  0  0  0  0  0  0  0  0  0  0
   -1.8953    2.1322   -1.6656 H   0  0  0  0  0  0  0  0  0  0  0  0
   -1.0714    0.8649   -2.6068 H   0  0  0  0  0  0  0  0  0  0  0  0
    0.0048    1.4541   -0.8352 C   0  0  0  0  0  0  0  0  0  0  0  0
   -0.1840    2.1312    0.0059 H   0  0  0  0  0  0  0  0  0  0  0  0
    0.7802    1.9001   -1.4665 H   0  0  0  0  0  0  0  0  0  0  0  0
    0.4171    0.0624   -0.3311 C   0  0  1  0  0  0  0  0  0  0  0  0
    1.0994   -0.4059   -1.0484 H   0  0  0  0  0  0  0  0  0  0  0  0
    1.1410    0.2021    1.0282 C   0  0  0  0  0  0  0  0  0  0  0  0
    2.0129    1.0500    1.1819 O   0  0  0  0  0  0  0  0  0  0  0  0
    0.7691   -0.5848    2.1022 N   0  0  0  0  0  0  0  0  0  0  0  0
    0.1982   -1.3934    1.8647 H   0  0  0  0  0  0  0  0  0  0  0  0
    1.4815   -0.5827    3.3729 C   0  0  0  0  0  0  0  0  0  0  0  0
    1.4728    0.4186    3.8161 H   0  0  0  0  0  0  0  0  0  0  0  0
    1.0032   -1.2731    4.0742 H   0  0  0  0  0  0  0  0  0  0  0  0
    2.5208   -0.8964    3.2296 H   0  0  0  0  0  0  0  0  0  0  0  0
  1  2  1  0  0  0  0
  2  3  1  0  0  0  0
  2  4  1  0  0  0  0
  2  5  1  0  0  0  0
  5  6  2  0  0  0  0
  5  7  1  0  0  0  0
  7  8  1  0  0  0  0
  7 17  1  0  0  0  0
  8  9  1  0  0  0  0
  8 10  1  0  0  0  0
  8 11  1  0  0  0  0
 11 12  1  0  0  0  0
 11 13  1  0  0  0  0
 11 14  1  0  0  0  0
 14 15  1  0  0  0  0
 14 16  1  0  0  0  0
 14 17  1  0  0  0  0
 17 18  1  0  0  0  0
 17 19  1  0  0  0  0
 19 20  2  0  0  0  0
 19 21  1  0  0  0  0
 21 22  1  0  0  0  0
 21 23  1  0  0  0  0
 23 24  1  0  0  0  0
 23 25  1  0  0  0  0
 23 26  1  0  0  0  0
M  END
$$$$

  -OEChem-01062216093D

 26 26  0     1  0  0  0  0  0999 V2000
   -1.9477   -3.9102   -0.5478 H   0  0  0  0  0  0  0  0  0  0  0  0
   -2.1271   -2.8467   -0.7293 C   0  0  0  0  0  0  0  0  0  0  0  0
   -2.9406   -2.5164   -0.0786 H   0  0  0  0  0  0  0  0  0  0  0  0
   -2.4235   -2.7174   -1.7728 H   0  0  0  0  0  0  0  0  0  0  0  0
   -0.8640   -2.0453   -0.4406 C   0  0  0  0  0  0  0  0  0  0  0  0
    0.1653   -2.6667   -0.2142 O   0  0  0  0  0  0  0  0  0  0  0  0
   -0.8581   -0.6615   -0.2674 N   0  0  0  0  0  0  0  0  0  0  0  0
   -1.9691    0.1422   -0.7730 C   0  0  0  0  0  0  0  0  0  0  0  0
   -2.5203    0.5800    0.0662 H   0  0  0  0  0  0  0  0  0  0  0  0
   -2.6758   -0.4114   -1.3978 H   0  0  0  0  0  0  0  0  0  0  0  0
   -1.2943    1.2282   -1.5986 C   0  0  0  0  0  0  0  0  0  0  0  0
   -1.9046    2.1339   -1.6702 H   0  0  0  0  0  0  0  0  0  0  0  0
   -1.0855    0.8619   -2.6092 H   0  0  0  0  0  0  0  0  0  0  0  0
    0.0015    1.4653   -0.8482 C   0  0  0  0  0  0  0  0  0  0  0  0
   -0.1884    2.1490   -0.0128 H   0  0  0  0  0  0  0  0  0  0  0  0
    0.7716    1.9099   -1.4866 H   0  0  0  0  0  0  0  0  0  0  0  0
    0.4217    0.0776   -0.3349 C   0  0  1  0  0  0  0  0  0  0  0  0
    1.1005   -0.3931   -1.0540 H   0  0  0  0  0  0  0  0  0  0  0  0
    1.1494    0.2119    1.0251 C   0  0  0  0  0  0  0  0  0  0  0  0
    1.8645    1.1777    1.2690 O   0  0  0  0  0  0  0  0  0  0  0  0
    0.9982   -0.7720    1.9842 N   0  0  0  0  0  0  0  0  0  0  0  0
    0.5832   -1.6409    1.6460 H   0  0  0  0  0  0  0  0  0  0  0  0
    1.7531   -0.7970    3.2297 C   0  0  0  0  0  0  0  0  0  0  0  0
    1.5767    0.1186    3.8036 H   0  0  0  0  0  0  0  0  0  0  0  0
    1.4438   -1.6505    3.8404 H   0  0  0  0  0  0  0  0  0  0  0  0
    2.8252   -0.8850    3.0257 H   0  0  0  0  0  0  0  0  0  0  0  0
  1  2  1  0  0  0  0
  2  3  1  0  0  0  0
  2  4  1  0  0  0  0
  2  5  1  0  0  0  0
  5  6  2  0  0  0  0
  5  7  1  0  0  0  0
  7  8  1  0  0  0  0
  7 17  1  0  0  0  0
  8  9  1  0  0  0  0
  8 10  1  0  0  0  0
  8 11  1  0  0  0  0
 11 12  1  0  0  0  0
 11 13  1  0  0  0  0
 11 14  1  0  0  0  0
 14 15  1  0  0  0  0
 14 16  1  0  0  0  0
 14 17  1  0  0  0  0
 17 18  1  0  0  0  0
 17 19  1  0  0  0  0
 19 20  2  0  0  0  0
 19 21  1  0  0  0  0
 21 22  1  0  0  0  0
 21 23  1  0  0  0  0
 23 24  1  0  0  0  0
 23 25  1  0  0  0  0
 23 26  1  0  0  0  0
M  END
$$$$

  -OEChem-01062216093D

 26 26  0     1  0  0  0  0  0999 V2000
   -1.9309   -3.9000   -0.4860 H   0  0  0  0  0  0  0  0  0  0  0  0
   -2.1159   -2.8397   -0.6808 C   0  0  0  0  0  0  0  0  0  0  0  0
   -2.9128   -2.4995   -0.0149 H   0  0  0  0  0  0  0  0  0  0  0  0
   -2.4391   -2.7274   -1.7184 H   0  0  0  0  0  0  0  0  0  0  0  0
   -0.8469   -2.0328   -0.4374 C   0  0  0  0  0  0  0  0  0  0  0  0
    0.1951   -2.6519   -0.2640 O   0  0  0  0  0  0  0  0  0  0  0  0
   -0.8450   -0.6486   -0.2616 N   0  0  0  0  0  0  0  0  0  0  0  0
   -1.9621    0.1465   -0.7667 C   0  0  0  0  0  0  0  0  0  0  0  0
   -2.5101    0.5886    0.0722 H   0  0  0  0  0  0  0  0  0  0  0  0
   -2.6706   -0.4147   -1.3828 H   0  0  0  0  0  0  0  0  0  0  0  0
   -1.2976    1.2293   -1.6049 C   0  0  0  0  0  0  0  0  0  0  0  0
   -1.9135    2.1309   -1.6810 H   0  0  0  0  0  0  0  0  0  0  0  0
   -1.0911    0.8555   -2.6131 H   0  0  0  0  0  0  0  0  0  0  0  0
   -0.0002    1.4790   -0.8617 C   0  0  0  0  0  0  0  0  0  0  0  0
   -0.1957    2.1701   -0.0341 H   0  0  0  0  0  0  0  0  0  0  0  0
    0.7652    1.9231   -1.5060 H   0  0  0  0  0  0  0  0  0  0  0  0
    0.4302    0.0959   -0.3390 C   0  0  1  0  0  0  0  0  0  0  0  0
    1.1086   -0.3728   -1.0595 H   0  0  0  0  0  0  0  0  0  0  0  0
    1.1581    0.2230    1.0232 C   0  0  0  0  0  0  0  0  0  0  0  0
    1.6980    1.2660    1.3764 O   0  0  0  0  0  0  0  0  0  0  0  0
    1.2624   -0.8894    1.8365 N   0  0  0  0  0  0  0  0  0  0  0  0
    0.9481   -1.7691    1.4215 H   0  0  0  0  0  0  0  0  0  0  0  0
    2.0459   -0.9262    3.0637 C   0  0  0  0  0  0  0  0  0  0  0  0
    1.6954   -0.1620    3.7652 H   0  0  0  0  0  0  0  0  0  0  0  0
    1.9480   -1.9047    3.5435 H   0  0  0  0  0  0  0  0  0  0  0  0
    3.1045   -0.7490    2.8475 H   0  0  0  0  0  0  0  0  0  0  0  0
  1  2  1  0  0  0  0
  2  3  1  0  0  0  0
  2  4  1  0  0  0  0
  2  5  1  0  0  0  0
  5  6  2  0  0  0  0
  5  7  1  0  0  0  0
  7  8  1  0  0  0  0
  7 17  1  0  0  0  0
  8  9  1  0  0  0  0
  8 10  1  0  0  0  0
  8 11  1  0  0  0  0
 11 12  1  0  0  0  0
 11 13  1  0  0  0  0
 11 14  1  0  0  0  0
 14 15  1  0  0  0  0
 14 16  1  0  0  0  0
 14 17  1  0  0  0  0
 17 18  1  0  0  0  0
 17 19  1  0  0  0  0
 19 20  2  0  0  0  0
 19 21  1  0  0  0  0
 21 22  1  0  0  0  0
 21 23  1  0  0  0  0
 23 24  1  0  0  0  0
 23 25  1  0  0  0  0
 23 26  1  0  0  0  0
M  END
$$$$

  -OEChem-01062216093D

 26 26  0     1  0  0  0  0  0999 V2000
   -1.8976   -3.8920   -0.4260 H   0  0  0  0  0  0  0  0  0  0  0  0
   -2.0937   -2.8348   -0.6266 C   0  0  0  0  0  0  0  0  0  0  0  0
   -2.8703   -2.4904    0.0608 H   0  0  0  0  0  0  0  0  0  0  0  0
   -2.4507   -2.7353   -1.6544 H   0  0  0  0  0  0  0  0  0  0  0  0
   -0.8213   -2.0197   -0.4325 C   0  0  0  0  0  0  0  0  0  0  0  0
    0.2328   -2.6324   -0.3138 O   0  0  0  0  0  0  0  0  0  0  0  0
   -0.8261   -0.6353   -0.2549 N   0  0  0  0  0  0  0  0  0  0  0  0
   -1.9524    0.1502   -0.7535 C   0  0  0  0  0  0  0  0  0  0  0  0
   -2.4921    0.5973    0.0885 H   0  0  0  0  0  0  0  0  0  0  0  0
   -2.6656   -0.4195   -1.3564 H   0  0  0  0  0  0  0  0  0  0  0  0
   -1.3025    1.2291   -1.6089 C   0  0  0  0  0  0  0  0  0  0  0  0
   -1.9238    2.1267   -1.6871 H   0  0  0  0  0  0  0  0  0  0  0  0
   -1.1044    0.8469   -2.6157 H   0  0  0  0  0  0  0  0  0  0  0  0
    0.0010    1.4920   -0.8811 C   0  0  0  0  0  0  0  0  0  0  0  0
   -0.1947    2.1926   -0.0620 H   0  0  0  0  0  0  0  0  0  0  0  0
    0.7582    1.9337   -1.5365 H   0  0  0  0  0  0  0  0  0  0  0  0
    0.4434    0.1141   -0.3509 C   0  0  1  0  0  0  0  0  0  0  0  0
    1.1166   -0.3520   -1.0780 H   0  0  0  0  0  0  0  0  0  0  0  0
    1.1801    0.2352    1.0077 C   0  0  0  0  0  0  0  0  0  0  0  0
    1.5201    1.3125    1.4852 O   0  0  0  0  0  0  0  0  0  0  0  0
    1.5616   -0.9240    1.6551 N   0  0  0  0  0  0  0  0  0  0  0  0
    1.3027   -1.8016    1.1978 H   0  0  0  0  0  0  0  0  0  0  0  0
    2.3332   -0.9589    2.8898 C   0  0  0  0  0  0  0  0  0  0  0  0
    1.8027   -0.4300    3.6882 H   0  0  0  0  0  0  0  0  0  0  0  0
    2.4901   -1.9947    3.2060 H   0  0  0  0  0  0  0  0  0  0  0  0
    3.3112   -0.4889    2.7435 H   0  0  0  0  0  0  0  0  0  0  0  0
  1  2  1  0  0  0  0
  2  3  1  0  0  0  0
  2  4  1  0  0  0  0
  2  5  1  0  0  0  0
  5  6  2  0  0  0  0
  5  7  1  0  0  0  0
  7  8  1  0  0  0  0
  7 17  1  0  0  0  0
  8  9  1  0  0  0  0
  8 10  1  0  0  0  0
  8 11  1  0  0  0  0
 11 12  1  0  0  0  0
 11 13  1  0  0  0  0
 11 14  1  0  0  0  0
 14 15  1  0  0  0  0
 14 16  1  0  0  0  0
 14 17  1  0  0  0  0
 17 18  1  0  0  0  0
 17 19  1  0  0  0  0
 19 20  2  0  0  0  0
 19 21  1  0  0  0  0
 21 22  1  0  0  0  0
 21 23  1  0  0  0  0
 23 24  1  0  0  0  0
 23 25  1  0  0  0  0
 23 26  1  0  0  0  0
M  END
$$$$

  -OEChem-01062216093D

 26 26  0     1  0  0  0  0  0999 V2000
   -1.8426   -3.8834   -0.3597 H   0  0  0  0  0  0  0  0  0  0  0  0
   -2.0543   -2.8300   -0.5638 C   0  0  0  0  0  0  0  0  0  0  0  0
   -2.8122   -2.4856    0.1442 H   0  0  0  0  0  0  0  0  0  0  0  0
   -2.4437   -2.7433   -1.5808 H   0  0  0  0  0  0  0  0  0  0  0  0
   -0.7840   -2.0021   -0.4164 C   0  0  0  0  0  0  0  0  0  0  0  0
    0.2811   -2.6030   -0.3339 O   0  0  0  0  0  0  0  0  0  0  0  0
   -0.7978   -0.6168   -0.2470 N   0  0  0  0  0  0  0  0  0  0  0  0
   -1.9385    0.1580   -0.7281 C   0  0  0  0  0  0  0  0  0  0  0  0
   -2.4608    0.6122    0.1209 H   0  0  0  0  0  0  0  0  0  0  0  0
   -2.6624   -0.4223   -1.3078 H   0  0  0  0  0  0  0  0  0  0  0  0
   -1.3117    1.2300   -1.6100 C   0  0  0  0  0  0  0  0  0  0  0  0
   -1.9388    2.1240   -1.6843 H   0  0  0  0  0  0  0  0  0  0  0  0
   -1.1344    0.8375   -2.6166 H   0  0  0  0  0  0  0  0  0  0  0  0
    0.0067    1.5073   -0.9141 C   0  0  0  0  0  0  0  0  0  0  0  0
   -0.1748    2.2208   -0.1035 H   0  0  0  0  0  0  0  0  0  0  0  0
    0.7472    1.9425   -1.5924 H   0  0  0  0  0  0  0  0  0  0  0  0
    0.4646    0.1354   -0.3787 C   0  0  1  0  0  0  0  0  0  0  0  0
    1.1261   -0.3319   -1.1159 H   0  0  0  0  0  0  0  0  0  0  0  0
    1.2174    0.2569    0.9701 C   0  0  0  0  0  0  0  0  0  0  0  0
    1.3256    1.3101    1.5892 O   0  0  0  0  0  0  0  0  0  0  0  0
    1.8744   -0.8619    1.4449 N   0  0  0  0  0  0  0  0  0  0  0  0
    1.6624   -1.7383    0.9619 H   0  0  0  0  0  0  0  0  0  0  0  0
    2.5790   -0.9073    2.7189 C   0  0  0  0  0  0  0  0  0  0  0  0
    1.8845   -0.7307    3.5466 H   0  0  0  0  0  0  0  0  0  0  0  0
    3.0437   -1.8880    2.8575 H   0  0  0  0  0  0  0  0  0  0  0  0
    3.3655   -0.1460    2.7491 H   0  0  0  0  0  0  0  0  0  0  0  0
  1  2  1  0  0  0  0
  2  3  1  0  0  0  0
  2  4  1  0  0  0  0
  2  5  1  0  0  0  0
  5  6  2  0  0  0  0
  5  7  1  0  0  0  0
  7  8  1  0  0  0  0
  7 17  1  0  0  0  0
  8  9  1  0  0  0  0
  8 10  1  0  0  0  0
  8 11  1  0  0  0  0
 11 12  1  0  0  0  0
 11 13  1  0  0  0  0
 11 14  1  0  0  0  0
 14 15  1  0  0  0  0
 14 16  1  0  0  0  0
 14 17  1  0  0  0  0
 17 18  1  0  0  0  0
 17 19  1  0  0  0  0
 19 20  2  0  0  0  0
 19 21  1  0  0  0  0
 21 22  1  0  0  0  0
 21 23  1  0  0  0  0
 23 24  1  0  0  0  0
 23 25  1  0  0  0  0
 23 26  1  0  0  0  0
M  END
$$$$

  -OEChem-01062216093D

 26 26  0     1  0  0  0  0  0999 V2000
   -1.7985   -3.8779   -0.3089 H   0  0  0  0  0  0  0  0  0  0  0  0
   -2.0229   -2.8297   -0.5251 C   0  0  0  0  0  0  0  0  0  0  0  0
   -2.7772   -2.4835    0.1858 H   0  0  0  0  0  0  0  0  0  0  0  0
   -2.4234   -2.7600   -1.5391 H   0  0  0  0  0  0  0  0  0  0  0  0
   -0.7598   -1.9874   -0.4007 C   0  0  0  0  0  0  0  0  0  0  0  0
    0.3156   -2.5734   -0.3381 O   0  0  0  0  0  0  0  0  0  0  0  0
   -0.7884   -0.6015   -0.2424 N   0  0  0  0  0  0  0  0  0  0  0  0
   -1.9352    0.1638   -0.7220 C   0  0  0  0  0  0  0  0  0  0  0  0
   -2.4537    0.6225    0.1267 H   0  0  0  0  0  0  0  0  0  0  0  0
   -2.6596   -0.4252   -1.2921 H   0  0  0  0  0  0  0  0  0  0  0  0
   -1.3157    1.2312   -1.6154 C   0  0  0  0  0  0  0  0  0  0  0  0
   -1.9461    2.1224   -1.6940 H   0  0  0  0  0  0  0  0  0  0  0  0
   -1.1422    0.8304   -2.6194 H   0  0  0  0  0  0  0  0  0  0  0  0
    0.0066    1.5194   -0.9291 C   0  0  0  0  0  0  0  0  0  0  0  0
   -0.1674    2.2420   -0.1252 H   0  0  0  0  0  0  0  0  0  0  0  0
    0.7418    1.9473   -1.6177 H   0  0  0  0  0  0  0  0  0  0  0  0
    0.4686    0.1523   -0.3868 C   0  0  1  0  0  0  0  0  0  0  0  0
    1.1293   -0.3143   -1.1251 H   0  0  0  0  0  0  0  0  0  0  0  0
    1.2167    0.2819    0.9619 C   0  0  0  0  0  0  0  0  0  0  0  0
    1.0904    1.2439    1.7122 O   0  0  0  0  0  0  0  0  0  0  0  0
    2.1228   -0.7089    1.2883 N   0  0  0  0  0  0  0  0  0  0  0  0
    2.0291   -1.5732    0.7521 H   0  0  0  0  0  0  0  0  0  0  0  0
    2.8270   -0.7562    2.5628 C   0  0  0  0  0  0  0  0  0  0  0  0
    2.1175   -0.8770    3.3879 H   0  0  0  0  0  0  0  0  0  0  0  0
    3.5243   -1.5994    2.5763 H   0  0  0  0  0  0  0  0  0  0  0  0
    3.3985    0.1647    2.7202 H   0  0  0  0  0  0  0  0  0  0  0  0
  1  2  1  0  0  0  0
  2  3  1  0  0  0  0
  2  4  1  0  0  0  0
  2  5  1  0  0  0  0
  5  6  2  0  0  0  0
  5  7  1  0  0  0  0
  7  8  1  0  0  0  0
  7 17  1  0  0  0  0
  8  9  1  0  0  0  0
  8 10  1  0  0  0  0
  8 11  1  0  0  0  0
 11 12  1  0  0  0  0
 11 13  1  0  0  0  0
 11 14  1  0  0  0  0
 14 15  1  0  0  0  0
 14 16  1  0  0  0  0
 14 17  1  0  0  0  0
 17 18  1  0  0  0  0
 17 19  1  0  0  0  0
 19 20  2  0  0  0  0
 19 21  1  0  0  0  0
 21 22  1  0  0  0  0
 21 23  1  0  0  0  0
 23 24  1  0  0  0  0
 23 25  1  0  0  0  0
 23 26  1  0  0  0  0
M  END
$$$$

  -OEChem-01062216093D

 26 26  0     1  0  0  0  0  0999 V2000
   -1.7929   -3.8739   -0.2615 H   0  0  0  0  0  0  0  0  0  0  0  0
   -2.0173   -2.8304   -0.4993 C   0  0  0  0  0  0  0  0  0  0  0  0
   -2.7685   -2.4683    0.2071 H   0  0  0  0  0  0  0  0  0  0  0  0
   -2.4216   -2.7811   -1.5131 H   0  0  0  0  0  0  0  0  0  0  0  0
   -0.7530   -1.9874   -0.3989 C   0  0  0  0  0  0  0  0  0  0  0  0
    0.3252   -2.5698   -0.3657 O   0  0  0  0  0  0  0  0  0  0  0  0
   -0.7832   -0.6010   -0.2527 N   0  0  0  0  0  0  0  0  0  0  0  0
   -1.9336    0.1626   -0.7243 C   0  0  0  0  0  0  0  0  0  0  0  0
   -2.4519    0.6158    0.1278 H   0  0  0  0  0  0  0  0  0  0  0  0
   -2.6563   -0.4276   -1.2956 H   0  0  0  0  0  0  0  0  0  0  0  0
   -1.3177    1.2354   -1.6146 C   0  0  0  0  0  0  0  0  0  0  0  0
   -1.9499    2.1260   -1.6861 H   0  0  0  0  0  0  0  0  0  0  0  0
   -1.1480    0.8401   -2.6215 H   0  0  0  0  0  0  0  0  0  0  0  0
    0.0068    1.5225   -0.9308 C   0  0  0  0  0  0  0  0  0  0  0  0
   -0.1610    2.2404   -0.1213 H   0  0  0  0  0  0  0  0  0  0  0  0
    0.7384    1.9535   -1.6213 H   0  0  0  0  0  0  0  0  0  0  0  0
    0.4710    0.1543   -0.3969 C   0  0  1  0  0  0  0  0  0  0  0  0
    1.1327   -0.3099   -1.1359 H   0  0  0  0  0  0  0  0  0  0  0  0
    1.2138    0.2995    0.9521 C   0  0  0  0  0  0  0  0  0  0  0  0
    0.8704    1.1050    1.8112 O   0  0  0  0  0  0  0  0  0  0  0  0
    2.3350   -0.4794    1.1702 N   0  0  0  0  0  0  0  0  0  0  0  0
    2.4324   -1.2820    0.5503 H   0  0  0  0  0  0  0  0  0  0  0  0
    3.0377   -0.5086    2.4467 C   0  0  0  0  0  0  0  0  0  0  0  0
    2.3869   -0.9075    3.2318 H   0  0  0  0  0  0  0  0  0  0  0  0
    3.9256   -1.1439    2.3739 H   0  0  0  0  0  0  0  0  0  0  0  0
    3.3591    0.4984    2.7328 H   0  0  0  0  0  0  0  0  0  0  0  0
  1  2  1  0  0  0  0
  2  3  1  0  0  0  0
  2  4  1  0  0  0  0
  2  5  1  0  0  0  0
  5  6  2  0  0  0  0
  5  7  1  0  0  0  0
  7  8  1  0  0  0  0
  7 17  1  0  0  0  0
  8  9  1  0  0  0  0
  8 10  1  0  0  0  0
  8 11  1  0  0  0  0
 11 12  1  0  0  0  0
 11 13  1  0  0  0  0
 11 14  1  0  0  0  0
 14 15  1  0  0  0  0
 14 16  1  0  0  0  0
 14 17  1  0  0  0  0
 17 18  1  0  0  0  0
 17 19  1  0  0  0  0
 19 20  2  0  0  0  0
 19 21  1  0  0  0  0
 21 22  1  0  0  0  0
 21 23  1  0  0  0  0
 23 24  1  0  0  0  0
 23 25  1  0  0  0  0
 23 26  1  0  0  0  0
M  END
$$$$

  -OEChem-01062216093D

 26 26  0     1  0  0  0  0  0999 V2000
   -1.8050   -3.8816   -0.2537 H   0  0  0  0  0  0  0  0  0  0  0  0
   -2.0294   -2.8383   -0.4925 C   0  0  0  0  0  0  0  0  0  0  0  0
   -2.7719   -2.4719    0.2207 H   0  0  0  0  0  0  0  0  0  0  0  0
   -2.4440   -2.7905   -1.5022 H   0  0  0  0  0  0  0  0  0  0  0  0
   -0.7620   -1.9984   -0.4066 C   0  0  0  0  0  0  0  0  0  0  0  0
    0.3145   -2.5835   -0.3902 O   0  0  0  0  0  0  0  0  0  0  0  0
   -0.7893   -0.6118   -0.2672 N   0  0  0  0  0  0  0  0  0  0  0  0
   -1.9366    0.1554   -0.7398 C   0  0  0  0  0  0  0  0  0  0  0  0
   -2.4638    0.5976    0.1126 H   0  0  0  0  0  0  0  0  0  0  0  0
   -2.6519   -0.4302   -1.3251 H   0  0  0  0  0  0  0  0  0  0  0  0
   -1.3121    1.2391   -1.6113 C   0  0  0  0  0  0  0  0  0  0  0  0
   -1.9437    2.1304   -1.6780 H   0  0  0  0  0  0  0  0  0  0  0  0
   -1.1327    0.8558   -2.6212 H   0  0  0  0  0  0  0  0  0  0  0  0
    0.0067    1.5178   -0.9124 C   0  0  0  0  0  0  0  0  0  0  0  0
   -0.1642    2.2229   -0.0915 H   0  0  0  0  0  0  0  0  0  0  0  0
    0.7433    1.9577   -1.5918 H   0  0  0  0  0  0  0  0  0  0  0  0
    0.4658    0.1450   -0.3913 C   0  0  1  0  0  0  0  0  0  0  0  0
    1.1339   -0.3159   -1.1262 H   0  0  0  0  0  0  0  0  0  0  0  0
    1.1974    0.3065    0.9613 C   0  0  0  0  0  0  0  0  0  0  0  0
    0.6997    0.9254    1.8965 O   0  0  0  0  0  0  0  0  0  0  0  0
    2.4746   -0.2059    1.0982 N   0  0  0  0  0  0  0  0  0  0  0  0
    2.7612   -0.8772    0.3900 H   0  0  0  0  0  0  0  0  0  0  0  0
    3.2026   -0.1832    2.3606 C   0  0  0  0  0  0  0  0  0  0  0  0
    2.6766   -0.7766    3.1159 H   0  0  0  0  0  0  0  0  0  0  0  0
    4.2049   -0.6008    2.2254 H   0  0  0  0  0  0  0  0  0  0  0  0
    3.3055    0.8438    2.7267 H   0  0  0  0  0  0  0  0  0  0  0  0
  1  2  1  0  0  0  0
  2  3  1  0  0  0  0
  2  4  1  0  0  0  0
  2  5  1  0  0  0  0
  5  6  2  0  0  0  0
  5  7  1  0  0  0  0
  7  8  1  0  0  0  0
  7 17  1  0  0  0  0
  8  9  1  0  0  0  0
  8 10  1  0  0  0  0
  8 11  1  0  0  0  0
 11 12  1  0  0  0  0
 11 13  1  0  0  0  0
 11 14  1  0  0  0  0
 14 15  1  0  0  0  0
 14 16  1  0  0  0  0
 14 17  1  0  0  0  0
 17 18  1  0  0  0  0
 17 19  1  0  0  0  0
 19 20  2  0  0  0  0
 19 21  1  0  0  0  0
 21 22  1  0  0  0  0
 21 23  1  0  0  0  0
 23 24  1  0  0  0  0
 23 25  1  0  0  0  0
 23 26  1  0  0  0  0
M  END
$$$$

  -OEChem-01062216093D

 26 26  0     1  0  0  0  0  0999 V2000
   -1.8206   -3.8896   -0.2545 H   0  0  0  0  0  0  0  0  0  0  0  0
   -2.0420   -2.8448   -0.4893 C   0  0  0  0  0  0  0  0  0  0  0  0
   -2.7772   -2.4763    0.2303 H   0  0  0  0  0  0  0  0  0  0  0  0
   -2.4643   -2.7931   -1.4954 H   0  0  0  0  0  0  0  0  0  0  0  0
   -0.7700   -2.0109   -0.4110 C   0  0  0  0  0  0  0  0  0  0  0  0
    0.3038   -2.6001   -0.4027 O   0  0  0  0  0  0  0  0  0  0  0  0
   -0.7926   -0.6238   -0.2802 N   0  0  0  0  0  0  0  0  0  0  0  0
   -1.9368    0.1462   -0.7537 C   0  0  0  0  0  0  0  0  0  0  0  0
   -2.4729    0.5770    0.0989 H   0  0  0  0  0  0  0  0  0  0  0  0
   -2.6443   -0.4347   -1.3531 H   0  0  0  0  0  0  0  0  0  0  0  0
   -1.3052    1.2404   -1.6064 C   0  0  0  0  0  0  0  0  0  0  0  0
   -1.9363    2.1325   -1.6669 H   0  0  0  0  0  0  0  0  0  0  0  0
   -1.1183    0.8697   -2.6196 H   0  0  0  0  0  0  0  0  0  0  0  0
    0.0081    1.5102   -0.8933 C   0  0  0  0  0  0  0  0  0  0  0  0
   -0.1687    2.2009   -0.0608 H   0  0  0  0  0  0  0  0  0  0  0  0
    0.7496    1.9608   -1.5602 H   0  0  0  0  0  0  0  0  0  0  0  0
    0.4645    0.1335   -0.3848 C   0  0  1  0  0  0  0  0  0  0  0  0
    1.1407   -0.3249   -1.1136 H   0  0  0  0  0  0  0  0  0  0  0  0
    1.1820    0.3109    0.9726 C   0  0  0  0  0  0  0  0  0  0  0  0
    0.5839    0.7195    1.9626 O   0  0  0  0  0  0  0  0  0  0  0  0
    2.5465    0.0973    1.0536 N   0  0  0  0  0  0  0  0  0  0  0  0
    2.9755   -0.3873    0.2703 H   0  0  0  0  0  0  0  0  0  0  0  0
    3.2860    0.1767    2.3073 C   0  0  0  0  0  0  0  0  0  0  0  0
    2.9324   -0.5863    3.0088 H   0  0  0  0  0  0  0  0  0  0  0  0
    4.3531    0.0157    2.1269 H   0  0  0  0  0  0  0  0  0  0  0  0
    3.1603    1.1631    2.7659 H   0  0  0  0  0  0  0  0  0  0  0  0
  1  2  1  0  0  0  0
  2  3  1  0  0  0  0
  2  4  1  0  0  0  0
  2  5  1  0  0  0  0
  5  6  2  0  0  0  0
  5  7  1  0  0  0  0
  7  8  1  0  0  0  0
  7 17  1  0  0  0  0
  8  9  1  0  0  0  0
  8 10  1  0  0  0  0
  8 11  1  0  0  0  0
 11 12  1  0  0  0  0
 11 13  1  0  0  0  0
 11 14  1  0  0  0  0
 14 15  1  0  0  0  0
 14 16  1  0  0  0  0
 14 17  1  0  0  0  0
 17 18  1  0  0  0  0
 17 19  1  0  0  0  0
 19 20  2  0  0  0  0
 19 21  1  0  0  0  0
 21 22  1  0  0  0  0
 21 23  1  0  0  0  0
 23 24  1  0  0  0  0
 23 25  1  0  0  0  0
 23 26  1  0  0  0  0
M  END
$$$$

  -OEChem-01062216093D

 26 26  0     1  0  0  0  0  0999 V2000
   -1.8396   -3.8969   -0.2568 H   0  0  0  0  0  0  0  0  0  0  0  0
   -2.0547   -2.8526   -0.4997 C   0  0  0  0  0  0  0  0  0  0  0  0
   -2.7938   -2.4764    0.2120 H   0  0  0  0  0  0  0  0  0  0  0  0
   -2.4683   -2.8050   -1.5096 H   0  0  0  0  0  0  0  0  0  0  0  0
   -0.7798   -2.0240   -0.4158 C   0  0  0  0  0  0  0  0  0  0  0  0
    0.2914   -2.6175   -0.4133 O   0  0  0  0  0  0  0  0  0  0  0  0
   -0.7996   -0.6367   -0.2860 N   0  0  0  0  0  0  0  0  0  0  0  0
   -1.9386    0.1369   -0.7656 C   0  0  0  0  0  0  0  0  0  0  0  0
   -2.4864    0.5577    0.0844 H   0  0  0  0  0  0  0  0  0  0  0  0
   -2.6371   -0.4384   -1.3809 H   0  0  0  0  0  0  0  0  0  0  0  0
   -1.2955    1.2399   -1.5976 C   0  0  0  0  0  0  0  0  0  0  0  0
   -1.9245    2.1336   -1.6554 H   0  0  0  0  0  0  0  0  0  0  0  0
   -1.0966    0.8804   -2.6124 H   0  0  0  0  0  0  0  0  0  0  0  0
    0.0095    1.4998   -0.8657 C   0  0  0  0  0  0  0  0  0  0  0  0
   -0.1771    2.1779   -0.0246 H   0  0  0  0  0  0  0  0  0  0  0  0
    0.7589    1.9591   -1.5177 H   0  0  0  0  0  0  0  0  0  0  0  0
    0.4610    0.1189   -0.3667 C   0  0  1  0  0  0  0  0  0  0  0  0
    1.1466   -0.3370   -1.0883 H   0  0  0  0  0  0  0  0  0  0  0  0
    1.1659    0.3050    0.9961 C   0  0  0  0  0  0  0  0  0  0  0  0
    0.5251    0.4872    2.0258 O   0  0  0  0  0  0  0  0  0  0  0  0
    2.5456    0.4022    1.0416 N   0  0  0  0  0  0  0  0  0  0  0  0
    3.0523    0.1438    0.2003 H   0  0  0  0  0  0  0  0  0  0  0  0
    3.2908    0.5553    2.2852 C   0  0  0  0  0  0  0  0  0  0  0  0
    3.1337   -0.3121    2.9350 H   0  0  0  0  0  0  0  0  0  0  0  0
    4.3611    0.6431    2.0756 H   0  0  0  0  0  0  0  0  0  0  0  0
    2.9698    1.4572    2.8169 H   0  0  0  0  0  0  0  0  0  0  0  0
  1  2  1  0  0  0  0
  2  3  1  0  0  0  0
  2  4  1  0  0  0  0
  2  5  1  0  0  0  0
  5  6  2  0  0  0  0
  5  7  1  0  0  0  0
  7  8  1  0  0  0  0
  7 17  1  0  0  0  0
  8  9  1  0  0  0  0
  8 10  1  0  0  0  0
  8 11  1  0  0  0  0
 11 12  1  0  0  0  0
 11 13  1  0  0  0  0
 11 14  1  0  0  0  0
 14 15  1  0  0  0  0
 14 16  1  0  0  0  0
 14 17  1  0  0  0  0
 17 18  1  0  0  0  0
 17 19  1  0  0  0  0
 19 20  2  0  0  0  0
 19 21  1  0  0  0  0
 21 22  1  0  0  0  0
 21 23  1  0  0  0  0
 23 24  1  0  0  0  0
 23 25  1  0  0  0  0
 23 26  1  0  0  0  0
M  END
$$$$

  -OEChem-01062216093D

 26 26  0     1  0  0  0  0  0999 V2000
   -1.8445   -3.9036   -0.2641 H   0  0  0  0  0  0  0  0  0  0  0  0
   -2.0594   -2.8583   -0.5029 C   0  0  0  0  0  0  0  0  0  0  0  0
   -2.7959   -2.4839    0.2122 H   0  0  0  0  0  0  0  0  0  0  0  0
   -2.4761   -2.8066   -1.5112 H   0  0  0  0  0  0  0  0  0  0  0  0
   -0.7836   -2.0313   -0.4198 C   0  0  0  0  0  0  0  0  0  0  0  0
    0.2863   -2.6267   -0.4308 O   0  0  0  0  0  0  0  0  0  0  0  0
   -0.8035   -0.6439   -0.2895 N   0  0  0  0  0  0  0  0  0  0  0  0
   -1.9383    0.1297   -0.7767 C   0  0  0  0  0  0  0  0  0  0  0  0
   -2.4969    0.5439    0.0695 H   0  0  0  0  0  0  0  0  0  0  0  0
   -2.6280   -0.4435   -1.4035 H   0  0  0  0  0  0  0  0  0  0  0  0
   -1.2874    1.2386   -1.5941 C   0  0  0  0  0  0  0  0  0  0  0  0
   -1.9168    2.1319   -1.6534 H   0  0  0  0  0  0  0  0  0  0  0  0
   -1.0767    0.8858   -2.6090 H   0  0  0  0  0  0  0  0  0  0  0  0
    0.0092    1.4943   -0.8460 C   0  0  0  0  0  0  0  0  0  0  0  0
   -0.1874    2.1648   -0.0010 H   0  0  0  0  0  0  0  0  0  0  0  0
    0.7639    1.9597   -1.4873 H   0  0  0  0  0  0  0  0  0  0  0  0
    0.4588    0.1115   -0.3502 C   0  0  1  0  0  0  0  0  0  0  0  0
    1.1544   -0.3414   -1.0641 H   0  0  0  0  0  0  0  0  0  0  0  0
    1.1513    0.3024    1.0191 C   0  0  0  0  0  0  0  0  0  0  0  0
    0.5254    0.2307    2.0710 O   0  0  0  0  0  0  0  0  0  0  0  0
    2.4739    0.7092    1.0599 N   0  0  0  0  0  0  0  0  0  0  0  0
    2.9909    0.6945    0.1862 H   0  0  0  0  0  0  0  0  0  0  0  0
    3.2071    0.9086    2.3042 C   0  0  0  0  0  0  0  0  0  0  0  0
    3.2700   -0.0296    2.8655 H   0  0  0  0  0  0  0  0  0  0  0  0
    4.2231    1.2554    2.0927 H   0  0  0  0  0  0  0  0  0  0  0  0
    2.7099    1.6596    2.9272 H   0  0  0  0  0  0  0  0  0  0  0  0
  1  2  1  0  0  0  0
  2  3  1  0  0  0  0
  2  4  1  0  0  0  0
  2  5  1  0  0  0  0
  5  6  2  0  0  0  0
  5  7  1  0  0  0  0
  7  8  1  0  0  0  0
  7 17  1  0  0  0  0
  8  9  1  0  0  0  0
  8 10  1  0  0  0  0
  8 11  1  0  0  0  0
 11 12  1  0  0  0  0
 11 13  1  0  0  0  0
 11 14  1  0  0  0  0
 14 15  1  0  0  0  0
 14 16  1  0  0  0  0
 14 17  1  0  0  0  0
 17 18  1  0  0  0  0
 17 19  1  0  0  0  0
 19 20  2  0  0  0  0
 19 21  1  0  0  0  0
 21 22  1  0  0  0  0
 21 23  1  0  0  0  0
 23 24  1  0  0  0  0
 23 25  1  0  0  0  0
 23 26  1  0  0  0  0
M  END
$$$$

  -OEChem-01062216093D

 26 26  0     1  0  0  0  0  0999 V2000
   -1.8161   -3.8754   -0.0584 H   0  0  0  0  0  0  0  0  0  0  0  0
   -2.0313   -2.8510   -0.3747 C   0  0  0  0  0  0  0  0  0  0  0  0
   -2.7663   -2.4230    0.3112 H   0  0  0  0  0  0  0  0  0  0  0  0
   -2.4492   -2.8741   -1.3835 H   0  0  0  0  0  0  0  0  0  0  0  0
   -0.7562   -2.0208   -0.3550 C   0  0  0  0  0  0  0  0  0  0  0  0
    0.3179   -2.6062   -0.3076 O   0  0  0  0  0  0  0  0  0  0  0  0
   -0.7838   -0.6304   -0.4169 N   0  0  0  0  0  0  0  0  0  0  0  0
   -1.9354    0.1125   -0.9031 C   0  0  0  0  0  0  0  0  0  0  0  0
   -2.5478    0.4549   -0.0621 H   0  0  0  0  0  0  0  0  0  0  0  0
   -2.5632   -0.4643   -1.5897 H   0  0  0  0  0  0  0  0  0  0  0  0
   -1.2945    1.2874   -1.6287 C   0  0  0  0  0  0  0  0  0  0  0  0
   -1.9517    2.1621   -1.6568 H   0  0  0  0  0  0  0  0  0  0  0  0
   -1.0426    1.0021   -2.6553 H   0  0  0  0  0  0  0  0  0  0  0  0
   -0.0250    1.5444   -0.8293 C   0  0  0  0  0  0  0  0  0  0  0  0
   -0.2664    2.1547    0.0485 H   0  0  0  0  0  0  0  0  0  0  0  0
    0.7288    2.0722   -1.4217 H   0  0  0  0  0  0  0  0  0  0  0  0
    0.4597    0.1524   -0.3984 C   0  0  1  0  0  0  0  0  0  0  0  0
    1.1671   -0.2500   -1.1304 H   0  0  0  0  0  0  0  0  0  0  0  0
    1.1504    0.2526    0.9840 C   0  0  0  0  0  0  0  0  0  0  0  0
    0.6012   -0.1366    2.0085 O   0  0  0  0  0  0  0  0  0  0  0  0
    2.3308    0.9672    1.1034 N   0  0  0  0  0  0  0  0  0  0  0  0
    2.7933    1.2500    0.2453 H   0  0  0  0  0  0  0  0  0  0  0  0
    3.0315    1.1439    2.3699 C   0  0  0  0  0  0  0  0  0  0  0  0
    3.3328    0.1739    2.7792 H   0  0  0  0  0  0  0  0  0  0  0  0
    3.9287    1.7527    2.2239 H   0  0  0  0  0  0  0  0  0  0  0  0
    2.3875    1.6488    3.0977 H   0  0  0  0  0  0  0  0  0  0  0  0
  1  2  1  0  0  0  0
  2  3  1  0  0  0  0
  2  4  1  0  0  0  0
  2  5  1  0  0  0  0
  5  6  2  0  0  0  0
  5  7  1  0  0  0  0
  7  8  1  0  0  0  0
  7 17  1  0  0  0  0
  8  9  1  0  0  0  0
  8 10  1  0  0  0  0
  8 11  1  0  0  0  0
 11 12  1  0  0  0  0
 11 13  1  0  0  0  0
 11 14  1  0  0  0  0
 14 15  1  0  0  0  0
 14 16  1  0  0  0  0
 14 17  1  0  0  0  0
 17 18  1  0  0  0  0
 17 19  1  0  0  0  0
 19 20  2  0  0  0  0
 19 21  1  0  0  0  0
 21 22  1  0  0  0  0
 21 23  1  0  0  0  0
 23 24  1  0  0  0  0
 23 25  1  0  0  0  0
 23 26  1  0  0  0  0
M  END
$$$$

  -OEChem-01062216093D

 26 26  0     1  0  0  0  0  0999 V2000
   -1.8132   -3.8758   -0.0522 H   0  0  0  0  0  0  0  0  0  0  0  0
   -2.0320   -2.8513   -0.3657 C   0  0  0  0  0  0  0  0  0  0  0  0
   -2.7530   -2.4209    0.3333 H   0  0  0  0  0  0  0  0  0  0  0  0
   -2.4681   -2.8741   -1.3668 H   0  0  0  0  0  0  0  0  0  0  0  0
   -0.7549   -2.0239   -0.3693 C   0  0  0  0  0  0  0  0  0  0  0  0
    0.3176   -2.6136   -0.3660 O   0  0  0  0  0  0  0  0  0  0  0  0
   -0.7836   -0.6322   -0.4198 N   0  0  0  0  0  0  0  0  0  0  0  0
   -1.9347    0.1068   -0.9126 C   0  0  0  0  0  0  0  0  0  0  0  0
   -2.5529    0.4474   -0.0750 H   0  0  0  0  0  0  0  0  0  0  0  0
   -2.5569   -0.4725   -1.6022 H   0  0  0  0  0  0  0  0  0  0  0  0
   -1.2946    1.2834   -1.6354 C   0  0  0  0  0  0  0  0  0  0  0  0
   -1.9549    2.1555   -1.6683 H   0  0  0  0  0  0  0  0  0  0  0  0
   -1.0352    0.9980   -2.6603 H   0  0  0  0  0  0  0  0  0  0  0  0
   -0.0310    1.5441   -0.8284 C   0  0  0  0  0  0  0  0  0  0  0  0
   -0.2821    2.1539    0.0472 H   0  0  0  0  0  0  0  0  0  0  0  0
    0.7235    2.0750   -1.4170 H   0  0  0  0  0  0  0  0  0  0  0  0
    0.4587    0.1534   -0.3929 C   0  0  1  0  0  0  0  0  0  0  0  0
    1.1700   -0.2442   -1.1239 H   0  0  0  0  0  0  0  0  0  0  0  0
    1.1523    0.2484    0.9910 C   0  0  0  0  0  0  0  0  0  0  0  0
    0.7428   -0.3714    1.9656 O   0  0  0  0  0  0  0  0  0  0  0  0
    2.1387    1.1996    1.1970 N   0  0  0  0  0  0  0  0  0  0  0  0
    2.4845    1.6982    0.3835 H   0  0  0  0  0  0  0  0  0  0  0  0
    2.8062    1.3960    2.4785 C   0  0  0  0  0  0  0  0  0  0  0  0
    3.3274    0.4820    2.7822 H   0  0  0  0  0  0  0  0  0  0  0  0
    3.5398    2.2044    2.4030 H   0  0  0  0  0  0  0  0  0  0  0  0
    2.0793    1.6614    3.2535 H   0  0  0  0  0  0  0  0  0  0  0  0
  1  2  1  0  0  0  0
  2  3  1  0  0  0  0
  2  4  1  0  0  0  0
  2  5  1  0  0  0  0
  5  6  2  0  0  0  0
  5  7  1  0  0  0  0
  7  8  1  0  0  0  0
  7 17  1  0  0  0  0
  8  9  1  0  0  0  0
  8 10  1  0  0  0  0
  8 11  1  0  0  0  0
 11 12  1  0  0  0  0
 11 13  1  0  0  0  0
 11 14  1  0  0  0  0
 14 15  1  0  0  0  0
 14 16  1  0  0  0  0
 14 17  1  0  0  0  0
 17 18  1  0  0  0  0
 17 19  1  0  0  0  0
 19 20  2  0  0  0  0
 19 21  1  0  0  0  0
 21 22  1  0  0  0  0
 21 23  1  0  0  0  0
 23 24  1  0  0  0  0
 23 25  1  0  0  0  0
 23 26  1  0  0  0  0
M  END
$$$$

  -OEChem-01062216093D

 26 26  0     1  0  0  0  0  0999 V2000
   -1.8058   -3.8754   -0.0446 H   0  0  0  0  0  0  0  0  0  0  0  0
   -2.0323   -2.8499   -0.3499 C   0  0  0  0  0  0  0  0  0  0  0  0
   -2.7373   -2.4224    0.3669 H   0  0  0  0  0  0  0  0  0  0  0  0
   -2.4917   -2.8705   -1.3405 H   0  0  0  0  0  0  0  0  0  0  0  0
   -0.7553   -2.0222   -0.3805 C   0  0  0  0  0  0  0  0  0  0  0  0
    0.3138   -2.6152   -0.4247 O   0  0  0  0  0  0  0  0  0  0  0  0
   -0.7856   -0.6293   -0.4186 N   0  0  0  0  0  0  0  0  0  0  0  0
   -1.9361    0.1011   -0.9265 C   0  0  0  0  0  0  0  0  0  0  0  0
   -2.5640    0.4446   -0.0975 H   0  0  0  0  0  0  0  0  0  0  0  0
   -2.5495   -0.4856   -1.6179 H   0  0  0  0  0  0  0  0  0  0  0  0
   -1.2965    1.2750   -1.6529 C   0  0  0  0  0  0  0  0  0  0  0  0
   -1.9605    2.1438   -1.6977 H   0  0  0  0  0  0  0  0  0  0  0  0
   -1.0281    0.9834   -2.6738 H   0  0  0  0  0  0  0  0  0  0  0  0
   -0.0405    1.5472   -0.8391 C   0  0  0  0  0  0  0  0  0  0  0  0
   -0.3074    2.1629    0.0274 H   0  0  0  0  0  0  0  0  0  0  0  0
    0.7160    2.0778   -1.4256 H   0  0  0  0  0  0  0  0  0  0  0  0
    0.4553    0.1614   -0.3883 C   0  0  1  0  0  0  0  0  0  0  0  0
    1.1683   -0.2351   -1.1186 H   0  0  0  0  0  0  0  0  0  0  0  0
    1.1589    0.2522    0.9944 C   0  0  0  0  0  0  0  0  0  0  0  0
    0.9441   -0.5602    1.8851 O   0  0  0  0  0  0  0  0  0  0  0  0
    1.9068    1.3732    1.3226 N   0  0  0  0  0  0  0  0  0  0  0  0
    2.0844    2.0488    0.5866 H   0  0  0  0  0  0  0  0  0  0  0  0
    2.5366    1.5678    2.6237 C   0  0  0  0  0  0  0  0  0  0  0  0
    3.2658    0.7744    2.8184 H   0  0  0  0  0  0  0  0  0  0  0  0
    3.0562    2.5302    2.6524 H   0  0  0  0  0  0  0  0  0  0  0  0
    1.7844    1.5583    3.4196 H   0  0  0  0  0  0  0  0  0  0  0  0
  1  2  1  0  0  0  0
  2  3  1  0  0  0  0
  2  4  1  0  0  0  0
  2  5  1  0  0  0  0
  5  6  2  0  0  0  0
  5  7  1  0  0  0  0
  7  8  1  0  0  0  0
  7 17  1  0  0  0  0
  8  9  1  0  0  0  0
  8 10  1  0  0  0  0
  8 11  1  0  0  0  0
 11 12  1  0  0  0  0
 11 13  1  0  0  0  0
 11 14  1  0  0  0  0
 14 15  1  0  0  0  0
 14 16  1  0  0  0  0
 14 17  1  0  0  0  0
 17 18  1  0  0  0  0
 17 19  1  0  0  0  0
 19 20  2  0  0  0  0
 19 21  1  0  0  0  0
 21 22  1  0  0  0  0
 21 23  1  0  0  0  0
 23 24  1  0  0  0  0
 23 25  1  0  0  0  0
 23 26  1  0  0  0  0
M  END
$$$$

  -OEChem-01062216093D

 26 26  0     1  0  0  0  0  0999 V2000
   -1.8005   -3.8618   -0.0055 H   0  0  0  0  0  0  0  0  0  0  0  0
   -2.0297   -2.8440   -0.3333 C   0  0  0  0  0  0  0  0  0  0  0  0
   -2.7356   -2.4024    0.3742 H   0  0  0  0  0  0  0  0  0  0  0  0
   -2.4898   -2.8879   -1.3229 H   0  0  0  0  0  0  0  0  0  0  0  0
   -0.7535   -2.0157   -0.3841 C   0  0  0  0  0  0  0  0  0  0  0  0
    0.3114   -2.6106   -0.4652 O   0  0  0  0  0  0  0  0  0  0  0  0
   -0.7875   -0.6220   -0.4132 N   0  0  0  0  0  0  0  0  0  0  0  0
   -1.9370    0.0946   -0.9430 C   0  0  0  0  0  0  0  0  0  0  0  0
   -2.5739    0.4471   -0.1247 H   0  0  0  0  0  0  0  0  0  0  0  0
   -2.5419   -0.5060   -1.6301 H   0  0  0  0  0  0  0  0  0  0  0  0
   -1.3002    1.2610   -1.6835 C   0  0  0  0  0  0  0  0  0  0  0  0
   -1.9704    2.1238   -1.7497 H   0  0  0  0  0  0  0  0  0  0  0  0
   -1.0195    0.9536   -2.6965 H   0  0  0  0  0  0  0  0  0  0  0  0
   -0.0548    1.5558   -0.8623 C   0  0  0  0  0  0  0  0  0  0  0  0
   -0.3438    2.1855   -0.0142 H   0  0  0  0  0  0  0  0  0  0  0  0
    0.7044    2.0832   -1.4485 H   0  0  0  0  0  0  0  0  0  0  0  0
    0.4477    0.1798   -0.3838 C   0  0  1  0  0  0  0  0  0  0  0  0
    1.1645   -0.2187   -1.1094 H   0  0  0  0  0  0  0  0  0  0  0  0
    1.1571    0.2686    0.9988 C   0  0  0  0  0  0  0  0  0  0  0  0
    1.1995   -0.6852    1.7638 O   0  0  0  0  0  0  0  0  0  0  0  0
    1.6352    1.4791    1.4797 N   0  0  0  0  0  0  0  0  0  0  0  0
    1.5924    2.2800    0.8584 H   0  0  0  0  0  0  0  0  0  0  0  0
    2.2440    1.6415    2.7952 C   0  0  0  0  0  0  0  0  0  0  0  0
    3.1345    1.0106    2.8856 H   0  0  0  0  0  0  0  0  0  0  0  0
    2.5409    2.6833    2.9483 H   0  0  0  0  0  0  0  0  0  0  0  0
    1.5345    1.3654    3.5823 H   0  0  0  0  0  0  0  0  0  0  0  0
  1  2  1  0  0  0  0
  2  3  1  0  0  0  0
  2  4  1  0  0  0  0
  2  5  1  0  0  0  0
  5  6  2  0  0  0  0
  5  7  1  0  0  0  0
  7  8  1  0  0  0  0
  7 17  1  0  0  0  0
  8  9  1  0  0  0  0
  8 10  1  0  0  0  0
  8 11  1  0  0  0  0
 11 12  1  0  0  0  0
 11 13  1  0  0  0  0
 11 14  1  0  0  0  0
 14 15  1  0  0  0  0
 14 16  1  0  0  0  0
 14 17  1  0  0  0  0
 17 18  1  0  0  0  0
 17 19  1  0  0  0  0
 19 20  2  0  0  0  0
 19 21  1  0  0  0  0
 21 22  1  0  0  0  0
 21 23  1  0  0  0  0
 23 24  1  0  0  0  0
 23 25  1  0  0  0  0
 23 26  1  0  0  0  0
M  END
$$$$

  -OEChem-01062216093D

 26 26  0     1  0  0  0  0  0999 V2000
   -1.8113   -3.8510    0.0151 H   0  0  0  0  0  0  0  0  0  0  0  0
   -2.0374   -2.8383   -0.3304 C   0  0  0  0  0  0  0  0  0  0  0  0
   -2.7528   -2.3876    0.3616 H   0  0  0  0  0  0  0  0  0  0  0  0
   -2.4851   -2.8977   -1.3250 H   0  0  0  0  0  0  0  0  0  0  0  0
   -0.7610   -2.0095   -0.3777 C   0  0  0  0  0  0  0  0  0  0  0  0
    0.3014   -2.6073   -0.4492 O   0  0  0  0  0  0  0  0  0  0  0  0
   -0.7966   -0.6155   -0.4040 N   0  0  0  0  0  0  0  0  0  0  0  0
   -1.9381    0.0886   -0.9690 C   0  0  0  0  0  0  0  0  0  0  0  0
   -2.5912    0.4539   -0.1694 H   0  0  0  0  0  0  0  0  0  0  0  0
   -2.5291   -0.5259   -1.6560 H   0  0  0  0  0  0  0  0  0  0  0  0
   -1.2938    1.2439   -1.7208 C   0  0  0  0  0  0  0  0  0  0  0  0
   -1.9674    2.1010   -1.8178 H   0  0  0  0  0  0  0  0  0  0  0  0
   -0.9919    0.9176   -2.7217 H   0  0  0  0  0  0  0  0  0  0  0  0
   -0.0663    1.5630   -0.8829 C   0  0  0  0  0  0  0  0  0  0  0  0
   -0.3803    2.2113   -0.0595 H   0  0  0  0  0  0  0  0  0  0  0  0
    0.7031    2.0815   -1.4639 H   0  0  0  0  0  0  0  0  0  0  0  0
    0.4324    0.1973   -0.3689 C   0  0  1  0  0  0  0  0  0  0  0  0
    1.1584   -0.2083   -1.0817 H   0  0  0  0  0  0  0  0  0  0  0  0
    1.1340    0.2872    1.0183 C   0  0  0  0  0  0  0  0  0  0  0  0
    1.4908   -0.7159    1.6184 O   0  0  0  0  0  0  0  0  0  0  0  0
    1.3299    1.5012    1.6612 N   0  0  0  0  0  0  0  0  0  0  0  0
    1.0372    2.3420    1.1756 H   0  0  0  0  0  0  0  0  0  0  0  0
    1.9557    1.6296    2.9724 C   0  0  0  0  0  0  0  0  0  0  0  0
    2.9781    1.2379    2.9490 H   0  0  0  0  0  0  0  0  0  0  0  0
    1.9951    2.6813    3.2711 H   0  0  0  0  0  0  0  0  0  0  0  0
    1.3837    1.0779    3.7259 H   0  0  0  0  0  0  0  0  0  0  0  0
  1  2  1  0  0  0  0
  2  3  1  0  0  0  0
  2  4  1  0  0  0  0
  2  5  1  0  0  0  0
  5  6  2  0  0  0  0
  5  7  1  0  0  0  0
  7  8  1  0  0  0  0
  7 17  1  0  0  0  0
  8  9  1  0  0  0  0
  8 10  1  0  0  0  0
  8 11  1  0  0  0  0
 11 12  1  0  0  0  0
 11 13  1  0  0  0  0
 11 14  1  0  0  0  0
 14 15  1  0  0  0  0
 14 16  1  0  0  0  0
 14 17  1  0  0  0  0
 17 18  1  0  0  0  0
 17 19  1  0  0  0  0
 19 20  2  0  0  0  0
 19 21  1  0  0  0  0
 21 22  1  0  0  0  0
 21 23  1  0  0  0  0
 23 24  1  0  0  0  0
 23 25  1  0  0  0  0
 23 26  1  0  0  0  0
M  END
$$$$

  -OEChem-01062216093D

 26 26  0     1  0  0  0  0  0999 V2000
   -1.8530   -3.8535   -0.0248 H   0  0  0  0  0  0  0  0  0  0  0  0
   -2.0575   -2.8389   -0.3784 C   0  0  0  0  0  0  0  0  0  0  0  0
   -2.8118   -2.3907    0.2726 H   0  0  0  0  0  0  0  0  0  0  0  0
   -2.4462   -2.8942   -1.3977 H   0  0  0  0  0  0  0  0  0  0  0  0
   -0.7803   -2.0100   -0.3496 C   0  0  0  0  0  0  0  0  0  0  0  0
    0.2806   -2.6108   -0.3164 O   0  0  0  0  0  0  0  0  0  0  0  0
   -0.8113   -0.6156   -0.3812 N   0  0  0  0  0  0  0  0  0  0  0  0
   -1.9404    0.0892   -0.9732 C   0  0  0  0  0  0  0  0  0  0  0  0
   -2.6001    0.4728   -0.1877 H   0  0  0  0  0  0  0  0  0  0  0  0
   -2.5296   -0.5298   -1.6574 H   0  0  0  0  0  0  0  0  0  0  0  0
   -1.2814    1.2282   -1.7379 C   0  0  0  0  0  0  0  0  0  0  0  0
   -1.9509    2.0852   -1.8604 H   0  0  0  0  0  0  0  0  0  0  0  0
   -0.9674    0.8823   -2.7284 H   0  0  0  0  0  0  0  0  0  0  0  0
   -0.0640    1.5605   -0.8909 C   0  0  0  0  0  0  0  0  0  0  0  0
   -0.3802    2.2327   -0.0892 H   0  0  0  0  0  0  0  0  0  0  0  0
    0.7176    2.0588   -1.4736 H   0  0  0  0  0  0  0  0  0  0  0  0
    0.4164    0.2003   -0.3483 C   0  0  1  0  0  0  0  0  0  0  0  0
    1.1453   -0.2196   -1.0502 H   0  0  0  0  0  0  0  0  0  0  0  0
    1.1096    0.2906    1.0410 C   0  0  0  0  0  0  0  0  0  0  0  0
    1.8210   -0.6167    1.4459 O   0  0  0  0  0  0  0  0  0  0  0  0
    1.0363    1.4291    1.8303 N   0  0  0  0  0  0  0  0  0  0  0  0
    0.4269    2.1766    1.5179 H   0  0  0  0  0  0  0  0  0  0  0  0
    1.6866    1.5514    3.1303 C   0  0  0  0  0  0  0  0  0  0  0  0
    2.7712    1.4392    3.0286 H   0  0  0  0  0  0  0  0  0  0  0  0
    1.4809    2.5340    3.5654 H   0  0  0  0  0  0  0  0  0  0  0  0
    1.3157    0.7836    3.8176 H   0  0  0  0  0  0  0  0  0  0  0  0
  1  2  1  0  0  0  0
  2  3  1  0  0  0  0
  2  4  1  0  0  0  0
  2  5  1  0  0  0  0
  5  6  2  0  0  0  0
  5  7  1  0  0  0  0
  7  8  1  0  0  0  0
  7 17  1  0  0  0  0
  8  9  1  0  0  0  0
  8 10  1  0  0  0  0
  8 11  1  0  0  0  0
 11 12  1  0  0  0  0
 11 13  1  0  0  0  0
 11 14  1  0  0  0  0
 14 15  1  0  0  0  0
 14 16  1  0  0  0  0
 14 17  1  0  0  0  0
 17 18  1  0  0  0  0
 17 19  1  0  0  0  0
 19 20  2  0  0  0  0
 19 21  1  0  0  0  0
 21 22  1  0  0  0  0
 21 23  1  0  0  0  0
 23 24  1  0  0  0  0
 23 25  1  0  0  0  0
 23 26  1  0  0  0  0
M  END
$$$$

  -OEChem-01062216093D

 26 26  0     1  0  0  0  0  0999 V2000
   -1.8845   -3.8672   -0.0951 H   0  0  0  0  0  0  0  0  0  0  0  0
   -2.0702   -2.8485   -0.4474 C   0  0  0  0  0  0  0  0  0  0  0  0
   -2.8659   -2.4114    0.1604 H   0  0  0  0  0  0  0  0  0  0  0  0
   -2.3939   -2.8920   -1.4897 H   0  0  0  0  0  0  0  0  0  0  0  0
   -0.8002   -2.0161   -0.3282 C   0  0  0  0  0  0  0  0  0  0  0  0
    0.2531   -2.6117   -0.1778 O   0  0  0  0  0  0  0  0  0  0  0  0
   -0.8264   -0.6220   -0.3641 N   0  0  0  0  0  0  0  0  0  0  0  0
   -1.9464    0.0957   -0.9603 C   0  0  0  0  0  0  0  0  0  0  0  0
   -2.6038    0.4871   -0.1769 H   0  0  0  0  0  0  0  0  0  0  0  0
   -2.5412   -0.5161   -1.6462 H   0  0  0  0  0  0  0  0  0  0  0  0
   -1.2725    1.2272   -1.7240 C   0  0  0  0  0  0  0  0  0  0  0  0
   -1.9325    2.0911   -1.8498 H   0  0  0  0  0  0  0  0  0  0  0  0
   -0.9597    0.8772   -2.7136 H   0  0  0  0  0  0  0  0  0  0  0  0
   -0.0529    1.5507   -0.8761 C   0  0  0  0  0  0  0  0  0  0  0  0
   -0.3513    2.2323   -0.0754 H   0  0  0  0  0  0  0  0  0  0  0  0
    0.7357    2.0340   -1.4619 H   0  0  0  0  0  0  0  0  0  0  0  0
    0.4063    0.1855   -0.3336 C   0  0  1  0  0  0  0  0  0  0  0  0
    1.1311   -0.2434   -1.0349 H   0  0  0  0  0  0  0  0  0  0  0  0
    1.0930    0.2683    1.0553 C   0  0  0  0  0  0  0  0  0  0  0  0
    2.0624   -0.4333    1.3061 O   0  0  0  0  0  0  0  0  0  0  0  0
    0.7766    1.2652    1.9656 N   0  0  0  0  0  0  0  0  0  0  0  0
   -0.0545    1.8153    1.7775 H   0  0  0  0  0  0  0  0  0  0  0  0
    1.4355    1.4091    3.2589 C   0  0  0  0  0  0  0  0  0  0  0  0
    2.5097    1.5753    3.1259 H   0  0  0  0  0  0  0  0  0  0  0  0
    1.0201    2.2631    3.8023 H   0  0  0  0  0  0  0  0  0  0  0  0
    1.2905    0.5084    3.8647 H   0  0  0  0  0  0  0  0  0  0  0  0
  1  2  1  0  0  0  0
  2  3  1  0  0  0  0
  2  4  1  0  0  0  0
  2  5  1  0  0  0  0
  5  6  2  0  0  0  0
  5  7  1  0  0  0  0
  7  8  1  0  0  0  0
  7 17  1  0  0  0  0
  8  9  1  0  0  0  0
  8 10  1  0  0  0  0
  8 11  1  0  0  0  0
 11 12  1  0  0  0  0
 11 13  1  0  0  0  0
 11 14  1  0  0  0  0
 14 15  1  0  0  0  0
 14 16  1  0  0  0  0
 14 17  1  0  0  0  0
 17 18  1  0  0  0  0
 17 19  1  0  0  0  0
 19 20  2  0  0  0  0
 19 21  1  0  0  0  0
 21 22  1  0  0  0  0
 21 23  1  0  0  0  0
 23 24  1  0  0  0  0
 23 25  1  0  0  0  0
 23 26  1  0  0  0  0
M  END
$$$$

  -OEChem-01062216093D

 26 26  0     1  0  0  0  0  0999 V2000
   -1.8958   -3.8827   -0.1599 H   0  0  0  0  0  0  0  0  0  0  0  0
   -2.0748   -2.8556   -0.4910 C   0  0  0  0  0  0  0  0  0  0  0  0
   -2.8860   -2.4346    0.1077 H   0  0  0  0  0  0  0  0  0  0  0  0
   -2.3728   -2.8736   -1.5419 H   0  0  0  0  0  0  0  0  0  0  0  0
   -0.8104   -2.0241   -0.3207 C   0  0  0  0  0  0  0  0  0  0  0  0
    0.2341   -2.6154   -0.1037 O   0  0  0  0  0  0  0  0  0  0  0  0
   -0.8299   -0.6307   -0.3607 N   0  0  0  0  0  0  0  0  0  0  0  0
   -1.9479    0.1045   -0.9400 C   0  0  0  0  0  0  0  0  0  0  0  0
   -2.5944    0.4953   -0.1472 H   0  0  0  0  0  0  0  0  0  0  0  0
   -2.5550   -0.4942   -1.6263 H   0  0  0  0  0  0  0  0  0  0  0  0
   -1.2670    1.2364   -1.6978 C   0  0  0  0  0  0  0  0  0  0  0  0
   -1.9184    2.1087   -1.8094 H   0  0  0  0  0  0  0  0  0  0  0  0
   -0.9672    0.8928   -2.6936 H   0  0  0  0  0  0  0  0  0  0  0  0
   -0.0348    1.5395   -0.8593 C   0  0  0  0  0  0  0  0  0  0  0  0
   -0.3084    2.2155   -0.0440 H   0  0  0  0  0  0  0  0  0  0  0  0
    0.7537    2.0171   -1.4498 H   0  0  0  0  0  0  0  0  0  0  0  0
    0.4099    0.1646   -0.3368 C   0  0  1  0  0  0  0  0  0  0  0  0
    1.1265   -0.2682   -1.0443 H   0  0  0  0  0  0  0  0  0  0  0  0
    1.0949    0.2392    1.0487 C   0  0  0  0  0  0  0  0  0  0  0  0
    2.2185   -0.2194    1.2031 O   0  0  0  0  0  0  0  0  0  0  0  0
    0.5735    1.0356    2.0556 N   0  0  0  0  0  0  0  0  0  0  0  0
   -0.3791    1.3621    1.9310 H   0  0  0  0  0  0  0  0  0  0  0  0
    1.2042    1.1892    3.3610 C   0  0  0  0  0  0  0  0  0  0  0  0
    2.2074    1.6155    3.2550 H   0  0  0  0  0  0  0  0  0  0  0  0
    0.6108    1.8588    3.9908 H   0  0  0  0  0  0  0  0  0  0  0  0
    1.2846    0.2198    3.8639 H   0  0  0  0  0  0  0  0  0  0  0  0
  1  2  1  0  0  0  0
  2  3  1  0  0  0  0
  2  4  1  0  0  0  0
  2  5  1  0  0  0  0
  5  6  2  0  0  0  0
  5  7  1  0  0  0  0
  7  8  1  0  0  0  0
  7 17  1  0  0  0  0
  8  9  1  0  0  0  0
  8 10  1  0  0  0  0
  8 11  1  0  0  0  0
 11 12  1  0  0  0  0
 11 13  1  0  0  0  0
 11 14  1  0  0  0  0
 14 15  1  0  0  0  0
 14 16  1  0  0  0  0
 14 17  1  0  0  0  0
 17 18  1  0  0  0  0
 17 19  1  0  0  0  0
 19 20  2  0  0  0  0
 19 21  1  0  0  0  0
 21 22  1  0  0  0  0
 21 23  1  0  0  0  0
 23 24  1  0  0  0  0
 23 25  1  0  0  0  0
 23 26  1  0  0  0  0
M  END
$$$$

  -OEChem-01062216093D

 26 26  0     1  0  0  0  0  0999 V2000
   -1.9058   -3.8926   -0.2005 H   0  0  0  0  0  0  0  0  0  0  0  0
   -2.0809   -2.8609   -0.5181 C   0  0  0  0  0  0  0  0  0  0  0  0
   -2.8966   -2.4473    0.0795 H   0  0  0  0  0  0  0  0  0  0  0  0
   -2.3699   -2.8636   -1.5716 H   0  0  0  0  0  0  0  0  0  0  0  0
   -0.8171   -2.0337   -0.3258 C   0  0  0  0  0  0  0  0  0  0  0  0
    0.2212   -2.6237   -0.0751 O   0  0  0  0  0  0  0  0  0  0  0  0
   -0.8287   -0.6409   -0.3683 N   0  0  0  0  0  0  0  0  0  0  0  0
   -1.9472    0.1095   -0.9269 C   0  0  0  0  0  0  0  0  0  0  0  0
   -2.5860    0.4917   -0.1238 H   0  0  0  0  0  0  0  0  0  0  0  0
   -2.5615   -0.4757   -1.6186 H   0  0  0  0  0  0  0  0  0  0  0  0
   -1.2637    1.2484   -1.6709 C   0  0  0  0  0  0  0  0  0  0  0  0
   -1.9083    2.1283   -1.7603 H   0  0  0  0  0  0  0  0  0  0  0  0
   -0.9767    0.9201   -2.6755 H   0  0  0  0  0  0  0  0  0  0  0  0
   -0.0201    1.5279   -0.8405 C   0  0  0  0  0  0  0  0  0  0  0  0
   -0.2762    2.1869   -0.0048 H   0  0  0  0  0  0  0  0  0  0  0  0
    0.7660    2.0112   -1.4298 H   0  0  0  0  0  0  0  0  0  0  0  0
    0.4180    0.1436   -0.3458 C   0  0  1  0  0  0  0  0  0  0  0  0
    1.1289   -0.2870   -1.0601 H   0  0  0  0  0  0  0  0  0  0  0  0
    1.1042    0.2157    1.0351 C   0  0  0  0  0  0  0  0  0  0  0  0
    2.3083    0.0202    1.1315 O   0  0  0  0  0  0  0  0  0  0  0  0
    0.4327    0.7611    2.1164 N   0  0  0  0  0  0  0  0  0  0  0  0
   -0.5740    0.8515    2.0239 H   0  0  0  0  0  0  0  0  0  0  0  0
    1.0354    0.9090    3.4352 C   0  0  0  0  0  0  0  0  0  0  0  0
    1.9169    1.5565    3.3833 H   0  0  0  0  0  0  0  0  0  0  0  0
    0.3192    1.3579    4.1299 H   0  0  0  0  0  0  0  0  0  0  0  0
    1.3376   -0.0670    3.8295 H   0  0  0  0  0  0  0  0  0  0  0  0
  1  2  1  0  0  0  0
  2  3  1  0  0  0  0
  2  4  1  0  0  0  0
  2  5  1  0  0  0  0
  5  6  2  0  0  0  0
  5  7  1  0  0  0  0
  7  8  1  0  0  0  0
  7 17  1  0  0  0  0
  8  9  1  0  0  0  0
  8 10  1  0  0  0  0
  8 11  1  0  0  0  0
 11 12  1  0  0  0  0
 11 13  1  0  0  0  0
 11 14  1  0  0  0  0
 14 15  1  0  0  0  0
 14 16  1  0  0  0  0
 14 17  1  0  0  0  0
 17 18  1  0  0  0  0
 17 19  1  0  0  0  0
 19 20  2  0  0  0  0
 19 21  1  0  0  0  0
 21 22  1  0  0  0  0
 21 23  1  0  0  0  0
 23 24  1  0  0  0  0
 23 25  1  0  0  0  0
 23 26  1  0  0  0  0
M  END
$$$$

  -OEChem-01062216093D

 26 26  0     1  0  0  0  0  0999 V2000
   -1.9174   -3.8996   -0.2313 H   0  0  0  0  0  0  0  0  0  0  0  0
   -2.0880   -2.8642   -0.5396 C   0  0  0  0  0  0  0  0  0  0  0  0
   -2.9076   -2.4551    0.0557 H   0  0  0  0  0  0  0  0  0  0  0  0
   -2.3692   -2.8555   -1.5953 H   0  0  0  0  0  0  0  0  0  0  0  0
   -0.8244   -2.0410   -0.3303 C   0  0  0  0  0  0  0  0  0  0  0  0
    0.2093   -2.6316   -0.0607 O   0  0  0  0  0  0  0  0  0  0  0  0
   -0.8286   -0.6487   -0.3765 N   0  0  0  0  0  0  0  0  0  0  0  0
   -1.9479    0.1131   -0.9176 C   0  0  0  0  0  0  0  0  0  0  0  0
   -2.5790    0.4891   -0.1054 H   0  0  0  0  0  0  0  0  0  0  0  0
   -2.5697   -0.4611   -1.6119 H   0  0  0  0  0  0  0  0  0  0  0  0
   -1.2632    1.2572   -1.6517 C   0  0  0  0  0  0  0  0  0  0  0  0
   -1.9029    2.1424   -1.7230 H   0  0  0  0  0  0  0  0  0  0  0  0
   -0.9876    0.9414   -2.6635 H   0  0  0  0  0  0  0  0  0  0  0  0
   -0.0103    1.5177   -0.8287 C   0  0  0  0  0  0  0  0  0  0  0  0
   -0.2539    2.1615    0.0234 H   0  0  0  0  0  0  0  0  0  0  0  0
    0.7733    2.0066   -1.4165 H   0  0  0  0  0  0  0  0  0  0  0  0
    0.4245    0.1266   -0.3554 C   0  0  1  0  0  0  0  0  0  0  0  0
    1.1307   -0.3025   -1.0750 H   0  0  0  0  0  0  0  0  0  0  0  0
    1.1162    0.2020    1.0202 C   0  0  0  0  0  0  0  0  0  0  0  0
    2.3367    0.2658    1.0880 O   0  0  0  0  0  0  0  0  0  0  0  0
    0.3660    0.4626    2.1535 N   0  0  0  0  0  0  0  0  0  0  0  0
   -0.6372    0.3346    2.0658 H   0  0  0  0  0  0  0  0  0  0  0  0
    0.9493    0.5842    3.4831 C   0  0  0  0  0  0  0  0  0  0  0  0
    1.6688    1.4092    3.5117 H   0  0  0  0  0  0  0  0  0  0  0  0
    0.1674    0.7834    4.2221 H   0  0  0  0  0  0  0  0  0  0  0  0
    1.4632   -0.3419    3.7616 H   0  0  0  0  0  0  0  0  0  0  0  0
  1  2  1  0  0  0  0
  2  3  1  0  0  0  0
  2  4  1  0  0  0  0
  2  5  1  0  0  0  0
  5  6  2  0  0  0  0
  5  7  1  0  0  0  0
  7  8  1  0  0  0  0
  7 17  1  0  0  0  0
  8  9  1  0  0  0  0
  8 10  1  0  0  0  0
  8 11  1  0  0  0  0
 11 12  1  0  0  0  0
 11 13  1  0  0  0  0
 11 14  1  0  0  0  0
 14 15  1  0  0  0  0
 14 16  1  0  0  0  0
 14 17  1  0  0  0  0
 17 18  1  0  0  0  0
 17 19  1  0  0  0  0
 19 20  2  0  0  0  0
 19 21  1  0  0  0  0
 21 22  1  0  0  0  0
 21 23  1  0  0  0  0
 23 24  1  0  0  0  0
 23 25  1  0  0  0  0
 23 26  1  0  0  0  0
M  END
$$$$

  -OEChem-01062216093D

 26 26  0     1  0  0  0  0  0999 V2000
   -1.9230   -3.9033   -0.2592 H   0  0  0  0  0  0  0  0  0  0  0  0
   -2.0968   -2.8637   -0.5515 C   0  0  0  0  0  0  0  0  0  0  0  0
   -2.9134   -2.4640    0.0543 H   0  0  0  0  0  0  0  0  0  0  0  0
   -2.3844   -2.8407   -1.6051 H   0  0  0  0  0  0  0  0  0  0  0  0
   -0.8328   -2.0425   -0.3373 C   0  0  0  0  0  0  0  0  0  0  0  0
    0.1976   -2.6326   -0.0533 O   0  0  0  0  0  0  0  0  0  0  0  0
   -0.8319   -0.6505   -0.3855 N   0  0  0  0  0  0  0  0  0  0  0  0
   -1.9498    0.1173   -0.9206 C   0  0  0  0  0  0  0  0  0  0  0  0
   -2.5785    0.4905   -0.1053 H   0  0  0  0  0  0  0  0  0  0  0  0
   -2.5738   -0.4512   -1.6173 H   0  0  0  0  0  0  0  0  0  0  0  0
   -1.2626    1.2635   -1.6485 C   0  0  0  0  0  0  0  0  0  0  0  0
   -1.8986    2.1518   -1.7128 H   0  0  0  0  0  0  0  0  0  0  0  0
   -0.9898    0.9531   -2.6626 H   0  0  0  0  0  0  0  0  0  0  0  0
   -0.0071    1.5135   -0.8261 C   0  0  0  0  0  0  0  0  0  0  0  0
   -0.2471    2.1496    0.0332 H   0  0  0  0  0  0  0  0  0  0  0  0
    0.7767    2.0058   -1.4109 H   0  0  0  0  0  0  0  0  0  0  0  0
    0.4256    0.1196   -0.3617 C   0  0  1  0  0  0  0  0  0  0  0  0
    1.1308   -0.3087   -1.0825 H   0  0  0  0  0  0  0  0  0  0  0  0
    1.1215    0.2001    1.0116 C   0  0  0  0  0  0  0  0  0  0  0  0
    2.3050    0.5068    1.0766 O   0  0  0  0  0  0  0  0  0  0  0  0
    0.3695    0.1581    2.1718 N   0  0  0  0  0  0  0  0  0  0  0  0
   -0.5832   -0.1781    2.0717 H   0  0  0  0  0  0  0  0  0  0  0  0
    0.9569    0.2312    3.5030 C   0  0  0  0  0  0  0  0  0  0  0  0
    1.4774    1.1848    3.6399 H   0  0  0  0  0  0  0  0  0  0  0  0
    0.1761    0.1522    4.2653 H   0  0  0  0  0  0  0  0  0  0  0  0
    1.6714   -0.5855    3.6509 H   0  0  0  0  0  0  0  0  0  0  0  0
  1  2  1  0  0  0  0
  2  3  1  0  0  0  0
  2  4  1  0  0  0  0
  2  5  1  0  0  0  0
  5  6  2  0  0  0  0
  5  7  1  0  0  0  0
  7  8  1  0  0  0  0
  7 17  1  0  0  0  0
  8  9  1  0  0  0  0
  8 10  1  0  0  0  0
  8 11  1  0  0  0  0
 11 12  1  0  0  0  0
 11 13  1  0  0  0  0
 11 14  1  0  0  0  0
 14 15  1  0  0  0  0
 14 16  1  0  0  0  0
 14 17  1  0  0  0  0
 17 18  1  0  0  0  0
 17 19  1  0  0  0  0
 19 20  2  0  0  0  0
 19 21  1  0  0  0  0
 21 22  1  0  0  0  0
 21 23  1  0  0  0  0
 23 24  1  0  0  0  0
 23 25  1  0  0  0  0
 23 26  1  0  0  0  0
M  END
$$$$

  -OEChem-01062216093D

 26 26  0     1  0  0  0  0  0999 V2000
   -1.9479   -3.9040   -0.2997 H   0  0  0  0  0  0  0  0  0  0  0  0
   -2.1123   -2.8621   -0.5889 C   0  0  0  0  0  0  0  0  0  0  0  0
   -2.9431   -2.4647   -0.0011 H   0  0  0  0  0  0  0  0  0  0  0  0
   -2.3738   -2.8319   -1.6492 H   0  0  0  0  0  0  0  0  0  0  0  0
   -0.8530   -2.0442   -0.3394 C   0  0  0  0  0  0  0  0  0  0  0  0
    0.1668   -2.6357   -0.0218 O   0  0  0  0  0  0  0  0  0  0  0  0
   -0.8448   -0.6524   -0.3857 N   0  0  0  0  0  0  0  0  0  0  0  0
   -1.9579    0.1211   -0.9235 C   0  0  0  0  0  0  0  0  0  0  0  0
   -2.5869    0.4962   -0.1090 H   0  0  0  0  0  0  0  0  0  0  0  0
   -2.5834   -0.4430   -1.6224 H   0  0  0  0  0  0  0  0  0  0  0  0
   -1.2651    1.2653   -1.6477 C   0  0  0  0  0  0  0  0  0  0  0  0
   -1.8976    2.1562   -1.7104 H   0  0  0  0  0  0  0  0  0  0  0  0
   -0.9912    0.9564   -2.6620 H   0  0  0  0  0  0  0  0  0  0  0  0
   -0.0115    1.5079   -0.8211 C   0  0  0  0  0  0  0  0  0  0  0  0
   -0.2524    2.1419    0.0396 H   0  0  0  0  0  0  0  0  0  0  0  0
    0.7758    1.9996   -1.4017 H   0  0  0  0  0  0  0  0  0  0  0  0
    0.4173    0.1122   -0.3563 C   0  0  1  0  0  0  0  0  0  0  0  0
    1.1201   -0.3188   -1.0772 H   0  0  0  0  0  0  0  0  0  0  0  0
    1.1230    0.1983    1.0133 C   0  0  0  0  0  0  0  0  0  0  0  0
    2.2242    0.7283    1.0927 O   0  0  0  0  0  0  0  0  0  0  0  0
    0.4506   -0.1387    2.1738 N   0  0  0  0  0  0  0  0  0  0  0  0
   -0.3987   -0.6807    2.0476 H   0  0  0  0  0  0  0  0  0  0  0  0
    1.0718   -0.1020    3.4910 C   0  0  0  0  0  0  0  0  0  0  0  0
    1.3900    0.9166    3.7360 H   0  0  0  0  0  0  0  0  0  0  0  0
    0.3603   -0.4336    4.2531 H   0  0  0  0  0  0  0  0  0  0  0  0
    1.9455   -0.7615    3.5211 H   0  0  0  0  0  0  0  0  0  0  0  0
  1  2  1  0  0  0  0
  2  3  1  0  0  0  0
  2  4  1  0  0  0  0
  2  5  1  0  0  0  0
  5  6  2  0  0  0  0
  5  7  1  0  0  0  0
  7  8  1  0  0  0  0
  7 17  1  0  0  0  0
  8  9  1  0  0  0  0
  8 10  1  0  0  0  0
  8 11  1  0  0  0  0
 11 12  1  0  0  0  0
 11 13  1  0  0  0  0
 11 14  1  0  0  0  0
 14 15  1  0  0  0  0
 14 16  1  0  0  0  0
 14 17  1  0  0  0  0
 17 18  1  0  0  0  0
 17 19  1  0  0  0  0
 19 20  2  0  0  0  0
 19 21  1  0  0  0  0
 21 22  1  0  0  0  0
 21 23  1  0  0  0  0
 23 24  1  0  0  0  0
 23 25  1  0  0  0  0
 23 26  1  0  0  0  0
M  END
$$$$

  -OEChem-01062216093D

 26 26  0     1  0  0  0  0  0999 V2000
   -1.9772   -3.8972   -0.3214 H   0  0  0  0  0  0  0  0  0  0  0  0
   -2.1310   -2.8547   -0.6140 C   0  0  0  0  0  0  0  0  0  0  0  0
   -2.9705   -2.4532   -0.0413 H   0  0  0  0  0  0  0  0  0  0  0  0
   -2.3732   -2.8231   -1.6789 H   0  0  0  0  0  0  0  0  0  0  0  0
   -0.8724   -2.0424   -0.3418 C   0  0  0  0  0  0  0  0  0  0  0  0
    0.1341   -2.6363    0.0137 O   0  0  0  0  0  0  0  0  0  0  0  0
   -0.8554   -0.6509   -0.3825 N   0  0  0  0  0  0  0  0  0  0  0  0
   -1.9643    0.1248   -0.9270 C   0  0  0  0  0  0  0  0  0  0  0  0
   -2.5957    0.5015   -0.1152 H   0  0  0  0  0  0  0  0  0  0  0  0
   -2.5885   -0.4378   -1.6282 H   0  0  0  0  0  0  0  0  0  0  0  0
   -1.2687    1.2676   -1.6495 C   0  0  0  0  0  0  0  0  0  0  0  0
   -1.9000    2.1589   -1.7155 H   0  0  0  0  0  0  0  0  0  0  0  0
   -0.9904    0.9581   -2.6623 H   0  0  0  0  0  0  0  0  0  0  0  0
   -0.0198    1.5090   -0.8171 C   0  0  0  0  0  0  0  0  0  0  0  0
   -0.2666    2.1430    0.0419 H   0  0  0  0  0  0  0  0  0  0  0  0
    0.7701    2.0025   -1.3926 H   0  0  0  0  0  0  0  0  0  0  0  0
    0.4084    0.1133   -0.3475 C   0  0  1  0  0  0  0  0  0  0  0  0
    1.1110   -0.3188   -1.0679 H   0  0  0  0  0  0  0  0  0  0  0  0
    1.1220    0.2002    1.0209 C   0  0  0  0  0  0  0  0  0  0  0  0
    2.0958    0.9331    1.1479 O   0  0  0  0  0  0  0  0  0  0  0  0
    0.5906   -0.4136    2.1400 N   0  0  0  0  0  0  0  0  0  0  0  0
   -0.0676   -1.1628    1.9406 H   0  0  0  0  0  0  0  0  0  0  0  0
    1.2615   -0.4107    3.4334 C   0  0  0  0  0  0  0  0  0  0  0  0
    1.4096    0.6151    3.7868 H   0  0  0  0  0  0  0  0  0  0  0  0
    0.6571   -0.9445    4.1729 H   0  0  0  0  0  0  0  0  0  0  0  0
    2.2370   -0.9027    3.3595 H   0  0  0  0  0  0  0  0  0  0  0  0
  1  2  1  0  0  0  0
  2  3  1  0  0  0  0
  2  4  1  0  0  0  0
  2  5  1  0  0  0  0
  5  6  2  0  0  0  0
  5  7  1  0  0  0  0
  7  8  1  0  0  0  0
  7 17  1  0  0  0  0
  8  9  1  0  0  0  0
  8 10  1  0  0  0  0
  8 11  1  0  0  0  0
 11 12  1  0  0  0  0
 11 13  1  0  0  0  0
 11 14  1  0  0  0  0
 14 15  1  0  0  0  0
 14 16  1  0  0  0  0
 14 17  1  0  0  0  0
 17 18  1  0  0  0  0
 17 19  1  0  0  0  0
 19 20  2  0  0  0  0
 19 21  1  0  0  0  0
 21 22  1  0  0  0  0
 21 23  1  0  0  0  0
 23 24  1  0  0  0  0
 23 25  1  0  0  0  0
 23 26  1  0  0  0  0
M  END
$$$$

  -OEChem-01062216093D

 26 26  0     1  0  0  0  0  0999 V2000
   -1.9960   -3.8885   -0.3129 H   0  0  0  0  0  0  0  0  0  0  0  0
   -2.1455   -2.8463   -0.6090 C   0  0  0  0  0  0  0  0  0  0  0  0
   -2.9790   -2.4374   -0.0325 H   0  0  0  0  0  0  0  0  0  0  0  0
   -2.3947   -2.8180   -1.6725 H   0  0  0  0  0  0  0  0  0  0  0  0
   -0.8804   -2.0403   -0.3480 C   0  0  0  0  0  0  0  0  0  0  0  0
    0.1273   -2.6429   -0.0079 O   0  0  0  0  0  0  0  0  0  0  0  0
   -0.8572   -0.6483   -0.3806 N   0  0  0  0  0  0  0  0  0  0  0  0
   -1.9653    0.1284   -0.9255 C   0  0  0  0  0  0  0  0  0  0  0  0
   -2.5965    0.5054   -0.1137 H   0  0  0  0  0  0  0  0  0  0  0  0
   -2.5902   -0.4336   -1.6263 H   0  0  0  0  0  0  0  0  0  0  0  0
   -1.2715    1.2712   -1.6491 C   0  0  0  0  0  0  0  0  0  0  0  0
   -1.9038    2.1621   -1.7158 H   0  0  0  0  0  0  0  0  0  0  0  0
   -0.9921    0.9611   -2.6613 H   0  0  0  0  0  0  0  0  0  0  0  0
   -0.0244    1.5129   -0.8152 C   0  0  0  0  0  0  0  0  0  0  0  0
   -0.2751    2.1470    0.0427 H   0  0  0  0  0  0  0  0  0  0  0  0
    0.7653    2.0082   -1.3892 H   0  0  0  0  0  0  0  0  0  0  0  0
    0.4069    0.1173   -0.3434 C   0  0  1  0  0  0  0  0  0  0  0  0
    1.1081   -0.3132   -1.0657 H   0  0  0  0  0  0  0  0  0  0  0  0
    1.1270    0.1993    1.0252 C   0  0  0  0  0  0  0  0  0  0  0  0
    1.9541    1.0810    1.2282 O   0  0  0  0  0  0  0  0  0  0  0  0
    0.7877   -0.6519    2.0602 N   0  0  0  0  0  0  0  0  0  0  0  0
    0.3055   -1.5002    1.7639 H   0  0  0  0  0  0  0  0  0  0  0  0
    1.5000   -0.6747    3.3308 C   0  0  0  0  0  0  0  0  0  0  0  0
    1.4503    0.3053    3.8167 H   0  0  0  0  0  0  0  0  0  0  0  0
    1.0501   -1.4135    4.0009 H   0  0  0  0  0  0  0  0  0  0  0  0
    2.5513   -0.9391    3.1760 H   0  0  0  0  0  0  0  0  0  0  0  0
  1  2  1  0  0  0  0
  2  3  1  0  0  0  0
  2  4  1  0  0  0  0
  2  5  1  0  0  0  0
  5  6  2  0  0  0  0
  5  7  1  0  0  0  0
  7  8  1  0  0  0  0
  7 17  1  0  0  0  0
  8  9  1  0  0  0  0
  8 10  1  0  0  0  0
  8 11  1  0  0  0  0
 11 12  1  0  0  0  0
 11 13  1  0  0  0  0
 11 14  1  0  0  0  0
 14 15  1  0  0  0  0
 14 16  1  0  0  0  0
 14 17  1  0  0  0  0
 17 18  1  0  0  0  0
 17 19  1  0  0  0  0
 19 20  2  0  0  0  0
 19 21  1  0  0  0  0
 21 22  1  0  0  0  0
 21 23  1  0  0  0  0
 23 24  1  0  0  0  0
 23 25  1  0  0  0  0
 23 26  1  0  0  0  0
M  END
$$$$

  -OEChem-01062216093D

 26 26  0     1  0  0  0  0  0999 V2000
   -2.0042   -3.8783   -0.2782 H   0  0  0  0  0  0  0  0  0  0  0  0
   -2.1522   -2.8386   -0.5835 C   0  0  0  0  0  0  0  0  0  0  0  0
   -2.9693   -2.4164    0.0065 H   0  0  0  0  0  0  0  0  0  0  0  0
   -2.4249   -2.8208   -1.6413 H   0  0  0  0  0  0  0  0  0  0  0  0
   -0.8752   -2.0399   -0.3598 C   0  0  0  0  0  0  0  0  0  0  0  0
    0.1450   -2.6549   -0.0820 O   0  0  0  0  0  0  0  0  0  0  0  0
   -0.8498   -0.6469   -0.3829 N   0  0  0  0  0  0  0  0  0  0  0  0
   -1.9610    0.1276   -0.9243 C   0  0  0  0  0  0  0  0  0  0  0  0
   -2.5913    0.5009   -0.1101 H   0  0  0  0  0  0  0  0  0  0  0  0
   -2.5860   -0.4349   -1.6248 H   0  0  0  0  0  0  0  0  0  0  0  0
   -1.2733    1.2743   -1.6478 C   0  0  0  0  0  0  0  0  0  0  0  0
   -1.9096    2.1626   -1.7123 H   0  0  0  0  0  0  0  0  0  0  0  0
   -0.9931    0.9670   -2.6607 H   0  0  0  0  0  0  0  0  0  0  0  0
   -0.0279    1.5186   -0.8134 C   0  0  0  0  0  0  0  0  0  0  0  0
   -0.2855    2.1517    0.0432 H   0  0  0  0  0  0  0  0  0  0  0  0
    0.7601    2.0184   -1.3856 H   0  0  0  0  0  0  0  0  0  0  0  0
    0.4116    0.1233   -0.3426 C   0  0  1  0  0  0  0  0  0  0  0  0
    1.1139   -0.3011   -1.0670 H   0  0  0  0  0  0  0  0  0  0  0  0
    1.1327    0.1988    1.0286 C   0  0  0  0  0  0  0  0  0  0  0  0
    1.8005    1.1835    1.3253 O   0  0  0  0  0  0  0  0  0  0  0  0
    1.0284   -0.8298    1.9457 N   0  0  0  0  0  0  0  0  0  0  0  0
    0.6608   -1.7058    1.5694 H   0  0  0  0  0  0  0  0  0  0  0  0
    1.7805   -0.8698    3.1926 C   0  0  0  0  0  0  0  0  0  0  0  0
    1.5501    0.0063    3.8077 H   0  0  0  0  0  0  0  0  0  0  0  0
    1.5193   -1.7674    3.7612 H   0  0  0  0  0  0  0  0  0  0  0  0
    2.8564   -0.8863    2.9902 H   0  0  0  0  0  0  0  0  0  0  0  0
  1  2  1  0  0  0  0
  2  3  1  0  0  0  0
  2  4  1  0  0  0  0
  2  5  1  0  0  0  0
  5  6  2  0  0  0  0
  5  7  1  0  0  0  0
  7  8  1  0  0  0  0
  7 17  1  0  0  0  0
  8  9  1  0  0  0  0
  8 10  1  0  0  0  0
  8 11  1  0  0  0  0
 11 12  1  0  0  0  0
 11 13  1  0  0  0  0
 11 14  1  0  0  0  0
 14 15  1  0  0  0  0
 14 16  1  0  0  0  0
 14 17  1  0  0  0  0
 17 18  1  0  0  0  0
 17 19  1  0  0  0  0
 19 20  2  0  0  0  0
 19 21  1  0  0  0  0
 21 22  1  0  0  0  0
 21 23  1  0  0  0  0
 23 24  1  0  0  0  0
 23 25  1  0  0  0  0
 23 26  1  0  0  0  0
M  END
$$$$

  -OEChem-01062216093D

 26 26  0     1  0  0  0  0  0999 V2000
   -1.9831   -3.8742   -0.2468 H   0  0  0  0  0  0  0  0  0  0  0  0
   -2.1428   -2.8328   -0.5403 C   0  0  0  0  0  0  0  0  0  0  0  0
   -2.9337   -2.4129    0.0862 H   0  0  0  0  0  0  0  0  0  0  0  0
   -2.4604   -2.8098   -1.5853 H   0  0  0  0  0  0  0  0  0  0  0  0
   -0.8568   -2.0359   -0.3670 C   0  0  0  0  0  0  0  0  0  0  0  0
    0.1772   -2.6564   -0.1592 O   0  0  0  0  0  0  0  0  0  0  0  0
   -0.8350   -0.6422   -0.3827 N   0  0  0  0  0  0  0  0  0  0  0  0
   -1.9534    0.1272   -0.9159 C   0  0  0  0  0  0  0  0  0  0  0  0
   -2.5780    0.4995   -0.0968 H   0  0  0  0  0  0  0  0  0  0  0  0
   -2.5824   -0.4389   -1.6100 H   0  0  0  0  0  0  0  0  0  0  0  0
   -1.2774    1.2761   -1.6474 C   0  0  0  0  0  0  0  0  0  0  0  0
   -1.9180    2.1613   -1.7086 H   0  0  0  0  0  0  0  0  0  0  0  0
   -1.0031    0.9684   -2.6619 H   0  0  0  0  0  0  0  0  0  0  0  0
   -0.0280    1.5269   -0.8214 C   0  0  0  0  0  0  0  0  0  0  0  0
   -0.2891    2.1609    0.0334 H   0  0  0  0  0  0  0  0  0  0  0  0
    0.7536    2.0321   -1.3976 H   0  0  0  0  0  0  0  0  0  0  0  0
    0.4232    0.1331   -0.3505 C   0  0  1  0  0  0  0  0  0  0  0  0
    1.1228   -0.2864   -1.0806 H   0  0  0  0  0  0  0  0  0  0  0  0
    1.1501    0.1989    1.0203 C   0  0  0  0  0  0  0  0  0  0  0  0
    1.6393    1.2472    1.4275 O   0  0  0  0  0  0  0  0  0  0  0  0
    1.3091   -0.9372    1.7902 N   0  0  0  0  0  0  0  0  0  0  0  0
    1.0151   -1.8148    1.3551 H   0  0  0  0  0  0  0  0  0  0  0  0
    2.0713   -0.9816    3.0306 C   0  0  0  0  0  0  0  0  0  0  0  0
    1.6626   -0.2712    3.7566 H   0  0  0  0  0  0  0  0  0  0  0  0
    2.0238   -1.9845    3.4655 H   0  0  0  0  0  0  0  0  0  0  0  0
    3.1212   -0.7325    2.8448 H   0  0  0  0  0  0  0  0  0  0  0  0
  1  2  1  0  0  0  0
  2  3  1  0  0  0  0
  2  4  1  0  0  0  0
  2  5  1  0  0  0  0
  5  6  2  0  0  0  0
  5  7  1  0  0  0  0
  7  8  1  0  0  0  0
  7 17  1  0  0  0  0
  8  9  1  0  0  0  0
  8 10  1  0  0  0  0
  8 11  1  0  0  0  0
 11 12  1  0  0  0  0
 11 13  1  0  0  0  0
 11 14  1  0  0  0  0
 14 15  1  0  0  0  0
 14 16  1  0  0  0  0
 14 17  1  0  0  0  0
 17 18  1  0  0  0  0
 17 19  1  0  0  0  0
 19 20  2  0  0  0  0
 19 21  1  0  0  0  0
 21 22  1  0  0  0  0
 21 23  1  0  0  0  0
 23 24  1  0  0  0  0
 23 25  1  0  0  0  0
 23 26  1  0  0  0  0
M  END
$$$$

  -OEChem-01062216093D

 26 26  0     1  0  0  0  0  0999 V2000
   -1.9410   -3.8632   -0.1826 H   0  0  0  0  0  0  0  0  0  0  0  0
   -2.1138   -2.8255   -0.4812 C   0  0  0  0  0  0  0  0  0  0  0  0
   -2.8829   -2.4012    0.1690 H   0  0  0  0  0  0  0  0  0  0  0  0
   -2.4686   -2.8138   -1.5145 H   0  0  0  0  0  0  0  0  0  0  0  0
   -0.8249   -2.0235   -0.3607 C   0  0  0  0  0  0  0  0  0  0  0  0
    0.2207   -2.6400   -0.2030 O   0  0  0  0  0  0  0  0  0  0  0  0
   -0.8129   -0.6298   -0.3760 N   0  0  0  0  0  0  0  0  0  0  0  0
   -1.9430    0.1298   -0.8979 C   0  0  0  0  0  0  0  0  0  0  0  0
   -2.5572    0.5058   -0.0726 H   0  0  0  0  0  0  0  0  0  0  0  0
   -2.5793   -0.4453   -1.5777 H   0  0  0  0  0  0  0  0  0  0  0  0
   -1.2833    1.2756   -1.6494 C   0  0  0  0  0  0  0  0  0  0  0  0
   -1.9294    2.1570   -1.7087 H   0  0  0  0  0  0  0  0  0  0  0  0
   -1.0223    0.9600   -2.6649 H   0  0  0  0  0  0  0  0  0  0  0  0
   -0.0229    1.5395   -0.8442 C   0  0  0  0  0  0  0  0  0  0  0  0
   -0.2785    2.1829    0.0048 H   0  0  0  0  0  0  0  0  0  0  0  0
    0.7480    2.0423   -1.4364 H   0  0  0  0  0  0  0  0  0  0  0  0
    0.4412    0.1503   -0.3686 C   0  0  1  0  0  0  0  0  0  0  0  0
    1.1320   -0.2676   -1.1080 H   0  0  0  0  0  0  0  0  0  0  0  0
    1.1822    0.2077    0.9955 C   0  0  0  0  0  0  0  0  0  0  0  0
    1.4702    1.2731    1.5305 O   0  0  0  0  0  0  0  0  0  0  0  0
    1.6160   -0.9583    1.5955 N   0  0  0  0  0  0  0  0  0  0  0  0
    1.3582   -1.8306    1.1267 H   0  0  0  0  0  0  0  0  0  0  0  0
    2.3444   -1.0129    2.8555 C   0  0  0  0  0  0  0  0  0  0  0  0
    1.7379   -0.5962    3.6662 H   0  0  0  0  0  0  0  0  0  0  0  0
    2.5896   -2.0501    3.1035 H   0  0  0  0  0  0  0  0  0  0  0  0
    3.2779   -0.4451    2.7837 H   0  0  0  0  0  0  0  0  0  0  0  0
  1  2  1  0  0  0  0
  2  3  1  0  0  0  0
  2  4  1  0  0  0  0
  2  5  1  0  0  0  0
  5  6  2  0  0  0  0
  5  7  1  0  0  0  0
  7  8  1  0  0  0  0
  7 17  1  0  0  0  0
  8  9  1  0  0  0  0
  8 10  1  0  0  0  0
  8 11  1  0  0  0  0
 11 12  1  0  0  0  0
 11 13  1  0  0  0  0
 11 14  1  0  0  0  0
 14 15  1  0  0  0  0
 14 16  1  0  0  0  0
 14 17  1  0  0  0  0
 17 18  1  0  0  0  0
 17 19  1  0  0  0  0
 19 20  2  0  0  0  0
 19 21  1  0  0  0  0
 21 22  1  0  0  0  0
 21 23  1  0  0  0  0
 23 24  1  0  0  0  0
 23 25  1  0  0  0  0
 23 26  1  0  0  0  0
M  END
$$$$

  -OEChem-01062216093D

 26 26  0     1  0  0  0  0  0999 V2000
   -1.8663   -3.8558   -0.1159 H   0  0  0  0  0  0  0  0  0  0  0  0
   -2.0602   -2.8249   -0.4250 C   0  0  0  0  0  0  0  0  0  0  0  0
   -2.8248   -2.4037    0.2325 H   0  0  0  0  0  0  0  0  0  0  0  0
   -2.4322   -2.8315   -1.4522 H   0  0  0  0  0  0  0  0  0  0  0  0
   -0.7816   -2.0028   -0.3364 C   0  0  0  0  0  0  0  0  0  0  0  0
    0.2785   -2.6007   -0.1998 O   0  0  0  0  0  0  0  0  0  0  0  0
   -0.7896   -0.6093   -0.3644 N   0  0  0  0  0  0  0  0  0  0  0  0
   -1.9344    0.1379   -0.8701 C   0  0  0  0  0  0  0  0  0  0  0  0
   -2.5316    0.5218   -0.0360 H   0  0  0  0  0  0  0  0  0  0  0  0
   -2.5828   -0.4492   -1.5282 H   0  0  0  0  0  0  0  0  0  0  0  0
   -1.2942    1.2772   -1.6495 C   0  0  0  0  0  0  0  0  0  0  0  0
   -1.9448    2.1555   -1.7063 H   0  0  0  0  0  0  0  0  0  0  0  0
   -1.0541    0.9501   -2.6664 H   0  0  0  0  0  0  0  0  0  0  0  0
   -0.0176    1.5572   -0.8749 C   0  0  0  0  0  0  0  0  0  0  0  0
   -0.2585    2.2144   -0.0327 H   0  0  0  0  0  0  0  0  0  0  0  0
    0.7386    2.0531   -1.4912 H   0  0  0  0  0  0  0  0  0  0  0  0
    0.4594    0.1739   -0.3932 C   0  0  1  0  0  0  0  0  0  0  0  0
    1.1387   -0.2459   -1.1423 H   0  0  0  0  0  0  0  0  0  0  0  0
    1.2113    0.2298    0.9634 C   0  0  0  0  0  0  0  0  0  0  0  0
    1.2774    1.2536    1.6353 O   0  0  0  0  0  0  0  0  0  0  0  0
    1.9090   -0.8829    1.3917 N   0  0  0  0  0  0  0  0  0  0  0  0
    1.6982   -1.7502    0.8912 H   0  0  0  0  0  0  0  0  0  0  0  0
    2.5867   -0.9632    2.6786 C   0  0  0  0  0  0  0  0  0  0  0  0
    1.8644   -0.8794    3.4971 H   0  0  0  0  0  0  0  0  0  0  0  0
    3.1077   -1.9210    2.7701 H   0  0  0  0  0  0  0  0  0  0  0  0
    3.3246   -0.1599    2.7750 H   0  0  0  0  0  0  0  0  0  0  0  0
  1  2  1  0  0  0  0
  2  3  1  0  0  0  0
  2  4  1  0  0  0  0
  2  5  1  0  0  0  0
  5  6  2  0  0  0  0
  5  7  1  0  0  0  0
  7  8  1  0  0  0  0
  7 17  1  0  0  0  0
  8  9  1  0  0  0  0
  8 10  1  0  0  0  0
  8 11  1  0  0  0  0
 11 12  1  0  0  0  0
 11 13  1  0  0  0  0
 11 14  1  0  0  0  0
 14 15  1  0  0  0  0
 14 16  1  0  0  0  0
 14 17  1  0  0  0  0
 17 18  1  0  0  0  0
 17 19  1  0  0  0  0
 19 20  2  0  0  0  0
 19 21  1  0  0  0  0
 21 22  1  0  0  0  0
 21 23  1  0  0  0  0
 23 24  1  0  0  0  0
 23 25  1  0  0  0  0
 23 26  1  0  0  0  0
M  END
$$$$

  -OEChem-01062216093D

 26 26  0     1  0  0  0  0  0999 V2000
   -1.7960   -3.8529   -0.0803 H   0  0  0  0  0  0  0  0  0  0  0  0
   -2.0098   -2.8264   -0.3912 C   0  0  0  0  0  0  0  0  0  0  0  0
   -2.7773   -2.4160    0.2697 H   0  0  0  0  0  0  0  0  0  0  0  0
   -2.3880   -2.8420   -1.4159 H   0  0  0  0  0  0  0  0  0  0  0  0
   -0.7457   -1.9819   -0.3134 C   0  0  0  0  0  0  0  0  0  0  0  0
    0.3286   -2.5557   -0.1760 O   0  0  0  0  0  0  0  0  0  0  0  0
   -0.7781   -0.5899   -0.3582 N   0  0  0  0  0  0  0  0  0  0  0  0
   -1.9326    0.1441   -0.8587 C   0  0  0  0  0  0  0  0  0  0  0  0
   -2.5240    0.5316   -0.0223 H   0  0  0  0  0  0  0  0  0  0  0  0
   -2.5829   -0.4543   -1.5045 H   0  0  0  0  0  0  0  0  0  0  0  0
   -1.3032    1.2795   -1.6533 C   0  0  0  0  0  0  0  0  0  0  0  0
   -1.9587    2.1540   -1.7120 H   0  0  0  0  0  0  0  0  0  0  0  0
   -1.0711    0.9437   -2.6692 H   0  0  0  0  0  0  0  0  0  0  0  0
   -0.0190    1.5730   -0.8932 C   0  0  0  0  0  0  0  0  0  0  0  0
   -0.2501    2.2390   -0.0553 H   0  0  0  0  0  0  0  0  0  0  0  0
    0.7292    2.0636   -1.5234 H   0  0  0  0  0  0  0  0  0  0  0  0
    0.4652    0.1950   -0.4055 C   0  0  1  0  0  0  0  0  0  0  0  0
    1.1443   -0.2254   -1.1545 H   0  0  0  0  0  0  0  0  0  0  0  0
    1.2051    0.2534    0.9547 C   0  0  0  0  0  0  0  0  0  0  0  0
    1.0559    1.1780    1.7465 O   0  0  0  0  0  0  0  0  0  0  0  0
    2.1384   -0.7255    1.2377 N   0  0  0  0  0  0  0  0  0  0  0  0
    2.0349   -1.5794    0.6857 H   0  0  0  0  0  0  0  0  0  0  0  0
    2.8223   -0.8181    2.5209 C   0  0  0  0  0  0  0  0  0  0  0  0
    2.1027   -0.9988    3.3261 H   0  0  0  0  0  0  0  0  0  0  0  0
    3.5418   -1.6422    2.5048 H   0  0  0  0  0  0  0  0  0  0  0  0
    3.3660    0.1080    2.7343 H   0  0  0  0  0  0  0  0  0  0  0  0
  1  2  1  0  0  0  0
  2  3  1  0  0  0  0
  2  4  1  0  0  0  0
  2  5  1  0  0  0  0
  5  6  2  0  0  0  0
  5  7  1  0  0  0  0
  7  8  1  0  0  0  0
  7 17  1  0  0  0  0
  8  9  1  0  0  0  0
  8 10  1  0  0  0  0
  8 11  1  0  0  0  0
 11 12  1  0  0  0  0
 11 13  1  0  0  0  0
 11 14  1  0  0  0  0
 14 15  1  0  0  0  0
 14 16  1  0  0  0  0
 14 17  1  0  0  0  0
 17 18  1  0  0  0  0
 17 19  1  0  0  0  0
 19 20  2  0  0  0  0
 19 21  1  0  0  0  0
 21 22  1  0  0  0  0
 21 23  1  0  0  0  0
 23 24  1  0  0  0  0
 23 25  1  0  0  0  0
 23 26  1  0  0  0  0
M  END
$$$$

  -OEChem-01062216093D

 26 26  0     1  0  0  0  0  0999 V2000
   -1.7665   -3.8521   -0.0580 H   0  0  0  0  0  0  0  0  0  0  0  0
   -1.9902   -2.8285   -0.3709 C   0  0  0  0  0  0  0  0  0  0  0  0
   -2.7509   -2.4188    0.2982 H   0  0  0  0  0  0  0  0  0  0  0  0
   -2.3819   -2.8507   -1.3904 H   0  0  0  0  0  0  0  0  0  0  0  0
   -0.7305   -1.9763   -0.3129 C   0  0  0  0  0  0  0  0  0  0  0  0
    0.3509   -2.5388   -0.1863 O   0  0  0  0  0  0  0  0  0  0  0  0
   -0.7730   -0.5859   -0.3694 N   0  0  0  0  0  0  0  0  0  0  0  0
   -1.9329    0.1454   -0.8590 C   0  0  0  0  0  0  0  0  0  0  0  0
   -2.5207    0.5278   -0.0174 H   0  0  0  0  0  0  0  0  0  0  0  0
   -2.5843   -0.4532   -1.5035 H   0  0  0  0  0  0  0  0  0  0  0  0
   -1.3088    1.2859   -1.6520 C   0  0  0  0  0  0  0  0  0  0  0  0
   -1.9663    2.1594   -1.7028 H   0  0  0  0  0  0  0  0  0  0  0  0
   -1.0822    0.9553   -2.6710 H   0  0  0  0  0  0  0  0  0  0  0  0
   -0.0200    1.5784   -0.8974 C   0  0  0  0  0  0  0  0  0  0  0  0
   -0.2429    2.2398   -0.0536 H   0  0  0  0  0  0  0  0  0  0  0  0
    0.7233    2.0717   -1.5313 H   0  0  0  0  0  0  0  0  0  0  0  0
    0.4670    0.1995   -0.4196 C   0  0  1  0  0  0  0  0  0  0  0  0
    1.1469   -0.2179   -1.1694 H   0  0  0  0  0  0  0  0  0  0  0  0
    1.1948    0.2650    0.9448 C   0  0  0  0  0  0  0  0  0  0  0  0
    0.8360    1.0266    1.8369 O   0  0  0  0  0  0  0  0  0  0  0  0
    2.3322   -0.4989    1.1283 N   0  0  0  0  0  0  0  0  0  0  0  0
    2.4203   -1.2899    0.4919 H   0  0  0  0  0  0  0  0  0  0  0  0
    3.0267   -0.5745    2.4074 C   0  0  0  0  0  0  0  0  0  0  0  0
    2.3731   -1.0059    3.1728 H   0  0  0  0  0  0  0  0  0  0  0  0
    3.9177   -1.2028    2.3154 H   0  0  0  0  0  0  0  0  0  0  0  0
    3.3423    0.4221    2.7336 H   0  0  0  0  0  0  0  0  0  0  0  0
  1  2  1  0  0  0  0
  2  3  1  0  0  0  0
  2  4  1  0  0  0  0
  2  5  1  0  0  0  0
  5  6  2  0  0  0  0
  5  7  1  0  0  0  0
  7  8  1  0  0  0  0
  7 17  1  0  0  0  0
  8  9  1  0  0  0  0
  8 10  1  0  0  0  0
  8 11  1  0  0  0  0
 11 12  1  0  0  0  0
 11 13  1  0  0  0  0
 11 14  1  0  0  0  0
 14 15  1  0  0  0  0
 14 16  1  0  0  0  0
 14 17  1  0  0  0  0
 17 18  1  0  0  0  0
 17 19  1  0  0  0  0
 19 20  2  0  0  0  0
 19 21  1  0  0  0  0
 21 22  1  0  0  0  0
 21 23  1  0  0  0  0
 23 24  1  0  0  0  0
 23 25  1  0  0  0  0
 23 26  1  0  0  0  0
M  END
$$$$

  -OEChem-01062216093D

 26 26  0     1  0  0  0  0  0999 V2000
   -1.7703   -3.8570   -0.0550 H   0  0  0  0  0  0  0  0  0  0  0  0
   -1.9958   -2.8321   -0.3625 C   0  0  0  0  0  0  0  0  0  0  0  0
   -2.7472   -2.4228    0.3172 H   0  0  0  0  0  0  0  0  0  0  0  0
   -2.3997   -2.8506   -1.3772 H   0  0  0  0  0  0  0  0  0  0  0  0
   -0.7338   -1.9826   -0.3165 C   0  0  0  0  0  0  0  0  0  0  0  0
    0.3472   -2.5465   -0.1986 O   0  0  0  0  0  0  0  0  0  0  0  0
   -0.7735   -0.5932   -0.3837 N   0  0  0  0  0  0  0  0  0  0  0  0
   -1.9342    0.1409   -0.8655 C   0  0  0  0  0  0  0  0  0  0  0  0
   -2.5215    0.5155   -0.0201 H   0  0  0  0  0  0  0  0  0  0  0  0
   -2.5851   -0.4533   -1.5146 H   0  0  0  0  0  0  0  0  0  0  0  0
   -1.3101    1.2886   -1.6488 C   0  0  0  0  0  0  0  0  0  0  0  0
   -1.9676    2.1623   -1.6923 H   0  0  0  0  0  0  0  0  0  0  0  0
   -1.0837    0.9666   -2.6705 H   0  0  0  0  0  0  0  0  0  0  0  0
   -0.0207    1.5748   -0.8920 C   0  0  0  0  0  0  0  0  0  0  0  0
   -0.2397    2.2252   -0.0381 H   0  0  0  0  0  0  0  0  0  0  0  0
    0.7218    2.0743   -1.5218 H   0  0  0  0  0  0  0  0  0  0  0  0
    0.4659    0.1930   -0.4271 C   0  0  1  0  0  0  0  0  0  0  0  0
    1.1484   -0.2229   -1.1751 H   0  0  0  0  0  0  0  0  0  0  0  0
    1.1857    0.2742    0.9394 C   0  0  0  0  0  0  0  0  0  0  0  0
    0.6678    0.8332    1.9008 O   0  0  0  0  0  0  0  0  0  0  0  0
    2.4732   -0.2167    1.0585 N   0  0  0  0  0  0  0  0  0  0  0  0
    2.7687   -0.8563    0.3252 H   0  0  0  0  0  0  0  0  0  0  0  0
    3.1803   -0.2616    2.3324 C   0  0  0  0  0  0  0  0  0  0  0  0
    2.6556   -0.9136    3.0386 H   0  0  0  0  0  0  0  0  0  0  0  0
    4.1934   -0.6488    2.1879 H   0  0  0  0  0  0  0  0  0  0  0  0
    3.2550    0.7410    2.7666 H   0  0  0  0  0  0  0  0  0  0  0  0
  1  2  1  0  0  0  0
  2  3  1  0  0  0  0
  2  4  1  0  0  0  0
  2  5  1  0  0  0  0
  5  6  2  0  0  0  0
  5  7  1  0  0  0  0
  7  8  1  0  0  0  0
  7 17  1  0  0  0  0
  8  9  1  0  0  0  0
  8 10  1  0  0  0  0
  8 11  1  0  0  0  0
 11 12  1  0  0  0  0
 11 13  1  0  0  0  0
 11 14  1  0  0  0  0
 14 15  1  0  0  0  0
 14 16  1  0  0  0  0
 14 17  1  0  0  0  0
 17 18  1  0  0  0  0
 17 19  1  0  0  0  0
 19 20  2  0  0  0  0
 19 21  1  0  0  0  0
 21 22  1  0  0  0  0
 21 23  1  0  0  0  0
 23 24  1  0  0  0  0
 23 25  1  0  0  0  0
 23 26  1  0  0  0  0
M  END
$$$$

  -OEChem-01062216093D

 26 26  0     1  0  0  0  0  0999 V2000
   -1.7862   -3.8606   -0.0461 H   0  0  0  0  0  0  0  0  0  0  0  0
   -2.0072   -2.8376   -0.3627 C   0  0  0  0  0  0  0  0  0  0  0  0
   -2.7568   -2.4187    0.3132 H   0  0  0  0  0  0  0  0  0  0  0  0
   -2.4110   -2.8632   -1.3772 H   0  0  0  0  0  0  0  0  0  0  0  0
   -0.7410   -1.9941   -0.3247 C   0  0  0  0  0  0  0  0  0  0  0  0
    0.3379   -2.5628   -0.2146 O   0  0  0  0  0  0  0  0  0  0  0  0
   -0.7756   -0.6053   -0.3981 N   0  0  0  0  0  0  0  0  0  0  0  0
   -1.9349    0.1328   -0.8761 C   0  0  0  0  0  0  0  0  0  0  0  0
   -2.5268    0.4963   -0.0291 H   0  0  0  0  0  0  0  0  0  0  0  0
   -2.5811   -0.4553   -1.5356 H   0  0  0  0  0  0  0  0  0  0  0  0
   -1.3077    1.2903   -1.6421 C   0  0  0  0  0  0  0  0  0  0  0  0
   -1.9647    2.1649   -1.6765 H   0  0  0  0  0  0  0  0  0  0  0  0
   -1.0778    0.9818   -2.6671 H   0  0  0  0  0  0  0  0  0  0  0  0
   -0.0214    1.5665   -0.8765 C   0  0  0  0  0  0  0  0  0  0  0  0
   -0.2429    2.2021   -0.0117 H   0  0  0  0  0  0  0  0  0  0  0  0
    0.7231    2.0757   -1.4964 H   0  0  0  0  0  0  0  0  0  0  0  0
    0.4642    0.1811   -0.4267 C   0  0  1  0  0  0  0  0  0  0  0  0
    1.1523   -0.2320   -1.1709 H   0  0  0  0  0  0  0  0  0  0  0  0
    1.1731    0.2755    0.9438 C   0  0  0  0  0  0  0  0  0  0  0  0
    0.5598    0.6173    1.9496 O   0  0  0  0  0  0  0  0  0  0  0  0
    2.5415    0.0875    1.0221 N   0  0  0  0  0  0  0  0  0  0  0  0
    2.9834   -0.3466    0.2171 H   0  0  0  0  0  0  0  0  0  0  0  0
    3.2654    0.0951    2.2872 C   0  0  0  0  0  0  0  0  0  0  0  0
    2.9141   -0.7161    2.9336 H   0  0  0  0  0  0  0  0  0  0  0  0
    4.3366   -0.0401    2.1100 H   0  0  0  0  0  0  0  0  0  0  0  0
    3.1209    1.0479    2.8074 H   0  0  0  0  0  0  0  0  0  0  0  0
  1  2  1  0  0  0  0
  2  3  1  0  0  0  0
  2  4  1  0  0  0  0
  2  5  1  0  0  0  0
  5  6  2  0  0  0  0
  5  7  1  0  0  0  0
  7  8  1  0  0  0  0
  7 17  1  0  0  0  0
  8  9  1  0  0  0  0
  8 10  1  0  0  0  0
  8 11  1  0  0  0  0
 11 12  1  0  0  0  0
 11 13  1  0  0  0  0
 11 14  1  0  0  0  0
 14 15  1  0  0  0  0
 14 16  1  0  0  0  0
 14 17  1  0  0  0  0
 17 18  1  0  0  0  0
 17 19  1  0  0  0  0
 19 20  2  0  0  0  0
 19 21  1  0  0  0  0
 21 22  1  0  0  0  0
 21 23  1  0  0  0  0
 23 24  1  0  0  0  0
 23 25  1  0  0  0  0
 23 26  1  0  0  0  0
M  END
$$$$

  -OEChem-01062216093D

 26 26  0     1  0  0  0  0  0999 V2000
   -1.7995   -3.8681   -0.0570 H   0  0  0  0  0  0  0  0  0  0  0  0
   -2.0180   -2.8426   -0.3673 C   0  0  0  0  0  0  0  0  0  0  0  0
   -2.7606   -2.4232    0.3159 H   0  0  0  0  0  0  0  0  0  0  0  0
   -2.4287   -2.8613   -1.3792 H   0  0  0  0  0  0  0  0  0  0  0  0
   -0.7481   -2.0050   -0.3330 C   0  0  0  0  0  0  0  0  0  0  0  0
    0.3287   -2.5795   -0.2337 O   0  0  0  0  0  0  0  0  0  0  0  0
   -0.7791   -0.6162   -0.4079 N   0  0  0  0  0  0  0  0  0  0  0  0
   -1.9353    0.1251   -0.8877 C   0  0  0  0  0  0  0  0  0  0  0  0
   -2.5343    0.4797   -0.0420 H   0  0  0  0  0  0  0  0  0  0  0  0
   -2.5751   -0.4574   -1.5582 H   0  0  0  0  0  0  0  0  0  0  0  0
   -1.3022    1.2900   -1.6369 C   0  0  0  0  0  0  0  0  0  0  0  0
   -1.9584    2.1653   -1.6668 H   0  0  0  0  0  0  0  0  0  0  0  0
   -1.0645    0.9920   -2.6634 H   0  0  0  0  0  0  0  0  0  0  0  0
   -0.0216    1.5566   -0.8584 C   0  0  0  0  0  0  0  0  0  0  0  0
   -0.2497    2.1797    0.0142 H   0  0  0  0  0  0  0  0  0  0  0  0
    0.7269    2.0742   -1.4661 H   0  0  0  0  0  0  0  0  0  0  0  0
    0.4622    0.1682   -0.4183 C   0  0  1  0  0  0  0  0  0  0  0  0
    1.1579   -0.2424   -1.1568 H   0  0  0  0  0  0  0  0  0  0  0  0
    1.1602    0.2703    0.9572 C   0  0  0  0  0  0  0  0  0  0  0  0
    0.5087    0.3822    1.9903 O   0  0  0  0  0  0  0  0  0  0  0  0
    2.5372    0.3951    1.0176 N   0  0  0  0  0  0  0  0  0  0  0  0
    3.0531    0.1880    0.1679 H   0  0  0  0  0  0  0  0  0  0  0  0
    3.2697    0.4678    2.2758 C   0  0  0  0  0  0  0  0  0  0  0  0
    3.1304   -0.4524    2.8529 H   0  0  0  0  0  0  0  0  0  0  0  0
    4.3387    0.5994    2.0831 H   0  0  0  0  0  0  0  0  0  0  0  0
    2.9216    1.3160    2.8747 H   0  0  0  0  0  0  0  0  0  0  0  0
  1  2  1  0  0  0  0
  2  3  1  0  0  0  0
  2  4  1  0  0  0  0
  2  5  1  0  0  0  0
  5  6  2  0  0  0  0
  5  7  1  0  0  0  0
  7  8  1  0  0  0  0
  7 17  1  0  0  0  0
  8  9  1  0  0  0  0
  8 10  1  0  0  0  0
  8 11  1  0  0  0  0
 11 12  1  0  0  0  0
 11 13  1  0  0  0  0
 11 14  1  0  0  0  0
 14 15  1  0  0  0  0
 14 16  1  0  0  0  0
 14 17  1  0  0  0  0
 17 18  1  0  0  0  0
 17 19  1  0  0  0  0
 19 20  2  0  0  0  0
 19 21  1  0  0  0  0
 21 22  1  0  0  0  0
 21 23  1  0  0  0  0
 23 24  1  0  0  0  0
 23 25  1  0  0  0  0
 23 26  1  0  0  0  0
M  END
$$$$

  -OEChem-01062216093D

 26 26  0     1  0  0  0  0  0999 V2000
   -1.8114   -3.8727   -0.0585 H   0  0  0  0  0  0  0  0  0  0  0  0
   -2.0262   -2.8485   -0.3758 C   0  0  0  0  0  0  0  0  0  0  0  0
   -2.7692   -2.4231    0.3031 H   0  0  0  0  0  0  0  0  0  0  0  0
   -2.4338   -2.8713   -1.3890 H   0  0  0  0  0  0  0  0  0  0  0  0
   -0.7539   -2.0146   -0.3423 C   0  0  0  0  0  0  0  0  0  0  0  0
    0.3215   -2.5943   -0.2616 O   0  0  0  0  0  0  0  0  0  0  0  0
   -0.7826   -0.6252   -0.4130 N   0  0  0  0  0  0  0  0  0  0  0  0
   -1.9359    0.1182   -0.8953 C   0  0  0  0  0  0  0  0  0  0  0  0
   -2.5419    0.4655   -0.0516 H   0  0  0  0  0  0  0  0  0  0  0  0
   -2.5694   -0.4601   -1.5754 H   0  0  0  0  0  0  0  0  0  0  0  0
   -1.2977    1.2894   -1.6298 C   0  0  0  0  0  0  0  0  0  0  0  0
   -1.9541    2.1646   -1.6574 H   0  0  0  0  0  0  0  0  0  0  0  0
   -1.0527    0.9999   -2.6570 H   0  0  0  0  0  0  0  0  0  0  0  0
   -0.0229    1.5487   -0.8395 C   0  0  0  0  0  0  0  0  0  0  0  0
   -0.2576    2.1632    0.0374 H   0  0  0  0  0  0  0  0  0  0  0  0
    0.7288    2.0727   -1.4376 H   0  0  0  0  0  0  0  0  0  0  0  0
    0.4602    0.1579   -0.4067 C   0  0  1  0  0  0  0  0  0  0  0  0
    1.1628   -0.2488   -1.1410 H   0  0  0  0  0  0  0  0  0  0  0  0
    1.1524    0.2621    0.9726 C   0  0  0  0  0  0  0  0  0  0  0  0
    0.5216    0.1249    2.0151 O   0  0  0  0  0  0  0  0  0  0  0  0
    2.4655    0.6949    1.0437 N   0  0  0  0  0  0  0  0  0  0  0  0
    2.9876    0.7344    0.1740 H   0  0  0  0  0  0  0  0  0  0  0  0
    3.1909    0.8268    2.3014 C   0  0  0  0  0  0  0  0  0  0  0  0
    3.2642   -0.1435    2.8038 H   0  0  0  0  0  0  0  0  0  0  0  0
    4.2028    1.1997    2.1168 H   0  0  0  0  0  0  0  0  0  0  0  0
    2.6808    1.5310    2.9672 H   0  0  0  0  0  0  0  0  0  0  0  0
  1  2  1  0  0  0  0
  2  3  1  0  0  0  0
  2  4  1  0  0  0  0
  2  5  1  0  0  0  0
  5  6  2  0  0  0  0
  5  7  1  0  0  0  0
  7  8  1  0  0  0  0
  7 17  1  0  0  0  0
  8  9  1  0  0  0  0
  8 10  1  0  0  0  0
  8 11  1  0  0  0  0
 11 12  1  0  0  0  0
 11 13  1  0  0  0  0
 11 14  1  0  0  0  0
 14 15  1  0  0  0  0
 14 16  1  0  0  0  0
 14 17  1  0  0  0  0
 17 18  1  0  0  0  0
 17 19  1  0  0  0  0
 19 20  2  0  0  0  0
 19 21  1  0  0  0  0
 21 22  1  0  0  0  0
 21 23  1  0  0  0  0
 23 24  1  0  0  0  0
 23 25  1  0  0  0  0
 23 26  1  0  0  0  0
M  END
$$$$

  -OEChem-01062216093D

 26 26  0     1  0  0  0  0  0999 V2000
   -1.8022   -3.8718   -0.3096 H   0  0  0  0  0  0  0  0  0  0  0  0
   -2.0367   -2.8118   -0.4407 C   0  0  0  0  0  0  0  0  0  0  0  0
   -2.6332   -2.4794    0.4123 H   0  0  0  0  0  0  0  0  0  0  0  0
   -2.6186   -2.6903   -1.3570 H   0  0  0  0  0  0  0  0  0  0  0  0
   -0.7527   -1.9997   -0.5239 C   0  0  0  0  0  0  0  0  0  0  0  0
    0.3080   -2.5935   -0.6672 O   0  0  0  0  0  0  0  0  0  0  0  0
   -0.7662   -0.6081   -0.5207 N   0  0  0  0  0  0  0  0  0  0  0  0
   -1.9729    0.1853   -0.6764 C   0  0  0  0  0  0  0  0  0  0  0  0
   -2.4912    0.2858    0.2833 H   0  0  0  0  0  0  0  0  0  0  0  0
   -2.6631   -0.2330   -1.4163 H   0  0  0  0  0  0  0  0  0  0  0  0
   -1.4275    1.5258   -1.1472 C   0  0  0  0  0  0  0  0  0  0  0  0
   -2.0890    2.3556   -0.8796 H   0  0  0  0  0  0  0  0  0  0  0  0
   -1.2964    1.5160   -2.2343 H   0  0  0  0  0  0  0  0  0  0  0  0
   -0.0730    1.6218   -0.4566 C   0  0  0  0  0  0  0  0  0  0  0  0
   -0.2124    1.9837    0.5686 H   0  0  0  0  0  0  0  0  0  0  0  0
    0.6018    2.3079   -0.9776 H   0  0  0  0  0  0  0  0  0  0  0  0
    0.4685    0.1853   -0.4474 C   0  0  1  0  0  0  0  0  0  0  0  0
    1.0733   -0.0039   -1.3397 H   0  0  0  0  0  0  0  0  0  0  0  0
    1.3454   -0.0342    0.8115 C   0  0  0  0  0  0  0  0  0  0  0  0
    0.9203   -0.6305    1.7948 O   0  0  0  0  0  0  0  0  0  0  0  0
    2.5257    0.6788    0.9435 N   0  0  0  0  0  0  0  0  0  0  0  0
    2.8728    1.1627    0.1216 H   0  0  0  0  0  0  0  0  0  0  0  0
    3.3739    0.6080    2.1274 C   0  0  0  0  0  0  0  0  0  0  0  0
    3.7119   -0.4200    2.2954 H   0  0  0  0  0  0  0  0  0  0  0  0
    4.2539    1.2457    2.0005 H   0  0  0  0  0  0  0  0  0  0  0  0
    2.8266    0.9482    3.0128 H   0  0  0  0  0  0  0  0  0  0  0  0
  1  2  1  0  0  0  0
  2  3  1  0  0  0  0
  2  4  1  0  0  0  0
  2  5  1  0  0  0  0
  5  6  2  0  0  0  0
  5  7  1  0  0  0  0
  7  8  1  0  0  0  0
  7 17  1  0  0  0  0
  8  9  1  0  0  0  0
  8 10  1  0  0  0  0
  8 11  1  0  0  0  0
 11 12  1  0  0  0  0
 11 13  1  0  0  0  0
 11 14  1  0  0  0  0
 14 15  1  0  0  0  0
 14 16  1  0  0  0  0
 14 17  1  0  0  0  0
 17 18  1  0  0  0  0
 17 19  1  0  0  0  0
 19 20  2  0  0  0  0
 19 21  1  0  0  0  0
 21 22  1  0  0  0  0
 21 23  1  0  0  0  0
 23 24  1  0  0  0  0
 23 25  1  0  0  0  0
 23 26  1  0  0  0  0
M  END
$$$$

  -OEChem-01062216093D

 26 26  0     1  0  0  0  0  0999 V2000
   -1.8055   -3.8708   -0.3003 H   0  0  0  0  0  0  0  0  0  0  0  0
   -2.0396   -2.8109   -0.4321 C   0  0  0  0  0  0  0  0  0  0  0  0
   -2.6225   -2.4741    0.4285 H   0  0  0  0  0  0  0  0  0  0  0  0
   -2.6345   -2.6914   -1.3402 H   0  0  0  0  0  0  0  0  0  0  0  0
   -0.7548   -2.0028   -0.5377 C   0  0  0  0  0  0  0  0  0  0  0  0
    0.2953   -2.5991   -0.7350 O   0  0  0  0  0  0  0  0  0  0  0  0
   -0.7644   -0.6108   -0.5206 N   0  0  0  0  0  0  0  0  0  0  0  0
   -1.9713    0.1806   -0.6843 C   0  0  0  0  0  0  0  0  0  0  0  0
   -2.4956    0.2815    0.2721 H   0  0  0  0  0  0  0  0  0  0  0  0
   -2.6565   -0.2397   -1.4279 H   0  0  0  0  0  0  0  0  0  0  0  0
   -1.4266    1.5214   -1.1536 C   0  0  0  0  0  0  0  0  0  0  0  0
   -2.0914    2.3505   -0.8920 H   0  0  0  0  0  0  0  0  0  0  0  0
   -1.2885    1.5098   -2.2399 H   0  0  0  0  0  0  0  0  0  0  0  0
   -0.0772    1.6196   -0.4543 C   0  0  0  0  0  0  0  0  0  0  0  0
   -0.2263    1.9827    0.5690 H   0  0  0  0  0  0  0  0  0  0  0  0
    0.5982    2.3072   -0.9725 H   0  0  0  0  0  0  0  0  0  0  0  0
    0.4704    0.1836   -0.4391 C   0  0  1  0  0  0  0  0  0  0  0  0
    1.0767   -0.0026   -1.3311 H   0  0  0  0  0  0  0  0  0  0  0  0
    1.3581   -0.0365    0.8160 C   0  0  0  0  0  0  0  0  0  0  0  0
    1.0611   -0.8412    1.6910 O   0  0  0  0  0  0  0  0  0  0  0  0
    2.3547    0.8817    1.1076 N   0  0  0  0  0  0  0  0  0  0  0  0
    2.5880    1.5618    0.3914 H   0  0  0  0  0  0  0  0  0  0  0  0
    3.1669    0.8283    2.3176 C   0  0  0  0  0  0  0  0  0  0  0  0
    3.7191   -0.1161    2.3666 H   0  0  0  0  0  0  0  0  0  0  0  0
    3.8873    1.6518    2.3258 H   0  0  0  0  0  0  0  0  0  0  0  0
    2.5351    0.9138    3.2080 H   0  0  0  0  0  0  0  0  0  0  0  0
  1  2  1  0  0  0  0
  2  3  1  0  0  0  0
  2  4  1  0  0  0  0
  2  5  1  0  0  0  0
  5  6  2  0  0  0  0
  5  7  1  0  0  0  0
  7  8  1  0  0  0  0
  7 17  1  0  0  0  0
  8  9  1  0  0  0  0
  8 10  1  0  0  0  0
  8 11  1  0  0  0  0
 11 12  1  0  0  0  0
 11 13  1  0  0  0  0
 11 14  1  0  0  0  0
 14 15  1  0  0  0  0
 14 16  1  0  0  0  0
 14 17  1  0  0  0  0
 17 18  1  0  0  0  0
 17 19  1  0  0  0  0
 19 20  2  0  0  0  0
 19 21  1  0  0  0  0
 21 22  1  0  0  0  0
 21 23  1  0  0  0  0
 23 24  1  0  0  0  0
 23 25  1  0  0  0  0
 23 26  1  0  0  0  0
M  END
$$$$

  -OEChem-01062216093D

 26 26  0     1  0  0  0  0  0999 V2000
   -1.7991   -3.8684   -0.2787 H   0  0  0  0  0  0  0  0  0  0  0  0
   -2.0367   -2.8096   -0.4143 C   0  0  0  0  0  0  0  0  0  0  0  0
   -2.6021   -2.4661    0.4551 H   0  0  0  0  0  0  0  0  0  0  0  0
   -2.6502   -2.6982   -1.3110 H   0  0  0  0  0  0  0  0  0  0  0  0
   -0.7545   -2.0017   -0.5520 C   0  0  0  0  0  0  0  0  0  0  0  0
    0.2826   -2.5982   -0.8053 O   0  0  0  0  0  0  0  0  0  0  0  0
   -0.7622   -0.6092   -0.5192 N   0  0  0  0  0  0  0  0  0  0  0  0
   -1.9715    0.1752   -0.6995 C   0  0  0  0  0  0  0  0  0  0  0  0
   -2.5058    0.2786    0.2510 H   0  0  0  0  0  0  0  0  0  0  0  0
   -2.6477   -0.2532   -1.4467 H   0  0  0  0  0  0  0  0  0  0  0  0
   -1.4317    1.5161   -1.1726 C   0  0  0  0  0  0  0  0  0  0  0  0
   -2.1044    2.3425   -0.9232 H   0  0  0  0  0  0  0  0  0  0  0  0
   -1.2819    1.4981   -2.2572 H   0  0  0  0  0  0  0  0  0  0  0  0
   -0.0905    1.6263   -0.4610 C   0  0  0  0  0  0  0  0  0  0  0  0
   -0.2585    1.9954    0.5571 H   0  0  0  0  0  0  0  0  0  0  0  0
    0.5858    2.3157   -0.9759 H   0  0  0  0  0  0  0  0  0  0  0  0
    0.4693    0.1927   -0.4303 C   0  0  1  0  0  0  0  0  0  0  0  0
    1.0773    0.0096   -1.3218 H   0  0  0  0  0  0  0  0  0  0  0  0
    1.3710   -0.0247    0.8200 C   0  0  0  0  0  0  0  0  0  0  0  0
    1.2657   -1.0062    1.5438 O   0  0  0  0  0  0  0  0  0  0  0  0
    2.1415    1.0240    1.3008 N   0  0  0  0  0  0  0  0  0  0  0  0
    2.2063    1.8581    0.7267 H   0  0  0  0  0  0  0  0  0  0  0  0
    2.9204    0.9564    2.5323 C   0  0  0  0  0  0  0  0  0  0  0  0
    3.6472    0.1387    2.4816 H   0  0  0  0  0  0  0  0  0  0  0  0
    3.4644    1.8929    2.6874 H   0  0  0  0  0  0  0  0  0  0  0  0
    2.2637    0.7917    3.3931 H   0  0  0  0  0  0  0  0  0  0  0  0
  1  2  1  0  0  0  0
  2  3  1  0  0  0  0
  2  4  1  0  0  0  0
  2  5  1  0  0  0  0
  5  6  2  0  0  0  0
  5  7  1  0  0  0  0
  7  8  1  0  0  0  0
  7 17  1  0  0  0  0
  8  9  1  0  0  0  0
  8 10  1  0  0  0  0
  8 11  1  0  0  0  0
 11 12  1  0  0  0  0
 11 13  1  0  0  0  0
 11 14  1  0  0  0  0
 14 15  1  0  0  0  0
 14 16  1  0  0  0  0
 14 17  1  0  0  0  0
 17 18  1  0  0  0  0
 17 19  1  0  0  0  0
 19 20  2  0  0  0  0
 19 21  1  0  0  0  0
 21 22  1  0  0  0  0
 21 23  1  0  0  0  0
 23 24  1  0  0  0  0
 23 25  1  0  0  0  0
 23 26  1  0  0  0  0
M  END
$$$$

  -OEChem-01062216093D

 26 26  0     1  0  0  0  0  0999 V2000
   -1.8014   -3.8590   -0.2420 H   0  0  0  0  0  0  0  0  0  0  0  0
   -2.0402   -2.8033   -0.3978 C   0  0  0  0  0  0  0  0  0  0  0  0
   -2.6082   -2.4450    0.4639 H   0  0  0  0  0  0  0  0  0  0  0  0
   -2.6513   -2.7095   -1.2981 H   0  0  0  0  0  0  0  0  0  0  0  0
   -0.7580   -1.9970   -0.5478 C   0  0  0  0  0  0  0  0  0  0  0  0
    0.2684   -2.5971   -0.8285 O   0  0  0  0  0  0  0  0  0  0  0  0
   -0.7649   -0.6043   -0.5064 N   0  0  0  0  0  0  0  0  0  0  0  0
   -1.9749    0.1698   -0.7270 C   0  0  0  0  0  0  0  0  0  0  0  0
   -2.5305    0.2871    0.2095 H   0  0  0  0  0  0  0  0  0  0  0  0
   -2.6326   -0.2762   -1.4806 H   0  0  0  0  0  0  0  0  0  0  0  0
   -1.4367    1.5058   -1.2139 C   0  0  0  0  0  0  0  0  0  0  0  0
   -2.1214    2.3311   -0.9953 H   0  0  0  0  0  0  0  0  0  0  0  0
   -1.2636    1.4685   -2.2947 H   0  0  0  0  0  0  0  0  0  0  0  0
   -0.1128    1.6403   -0.4764 C   0  0  0  0  0  0  0  0  0  0  0  0
   -0.3157    2.0288    0.5273 H   0  0  0  0  0  0  0  0  0  0  0  0
    0.5700    2.3261   -0.9877 H   0  0  0  0  0  0  0  0  0  0  0  0
    0.4590    0.2109   -0.4066 C   0  0  1  0  0  0  0  0  0  0  0  0
    1.0771    0.0219   -1.2902 H   0  0  0  0  0  0  0  0  0  0  0  0
    1.3638    0.0026    0.8462 C   0  0  0  0  0  0  0  0  0  0  0  0
    1.5327   -1.0922    1.3632 O   0  0  0  0  0  0  0  0  0  0  0  0
    1.8793    1.0941    1.5310 N   0  0  0  0  0  0  0  0  0  0  0  0
    1.7325    2.0125    1.1256 H   0  0  0  0  0  0  0  0  0  0  0  0
    2.6702    0.9845    2.7522 C   0  0  0  0  0  0  0  0  0  0  0  0
    3.5692    0.3849    2.5740 H   0  0  0  0  0  0  0  0  0  0  0  0
    2.9791    1.9773    3.0931 H   0  0  0  0  0  0  0  0  0  0  0  0
    2.0839    0.5128    3.5478 H   0  0  0  0  0  0  0  0  0  0  0  0
  1  2  1  0  0  0  0
  2  3  1  0  0  0  0
  2  4  1  0  0  0  0
  2  5  1  0  0  0  0
  5  6  2  0  0  0  0
  5  7  1  0  0  0  0
  7  8  1  0  0  0  0
  7 17  1  0  0  0  0
  8  9  1  0  0  0  0
  8 10  1  0  0  0  0
  8 11  1  0  0  0  0
 11 12  1  0  0  0  0
 11 13  1  0  0  0  0
 11 14  1  0  0  0  0
 14 15  1  0  0  0  0
 14 16  1  0  0  0  0
 14 17  1  0  0  0  0
 17 18  1  0  0  0  0
 17 19  1  0  0  0  0
 19 20  2  0  0  0  0
 19 21  1  0  0  0  0
 21 22  1  0  0  0  0
 21 23  1  0  0  0  0
 23 24  1  0  0  0  0
 23 25  1  0  0  0  0
 23 26  1  0  0  0  0
M  END
$$$$

  -OEChem-01062216093D

 26 26  0     1  0  0  0  0  0999 V2000
   -1.8377   -3.8497   -0.2384 H   0  0  0  0  0  0  0  0  0  0  0  0
   -2.0643   -2.7944   -0.4136 C   0  0  0  0  0  0  0  0  0  0  0  0
   -2.6645   -2.4254    0.4214 H   0  0  0  0  0  0  0  0  0  0  0  0
   -2.6386   -2.7070   -1.3384 H   0  0  0  0  0  0  0  0  0  0  0  0
   -0.7728   -1.9958   -0.5211 C   0  0  0  0  0  0  0  0  0  0  0  0
    0.2577   -2.6107   -0.7386 O   0  0  0  0  0  0  0  0  0  0  0  0
   -0.7748   -0.6026   -0.4802 N   0  0  0  0  0  0  0  0  0  0  0  0
   -1.9794    0.1666   -0.7497 C   0  0  0  0  0  0  0  0  0  0  0  0
   -2.5583    0.3053    0.1696 H   0  0  0  0  0  0  0  0  0  0  0  0
   -2.6189   -0.2969   -1.5084 H   0  0  0  0  0  0  0  0  0  0  0  0
   -1.4328    1.4915   -1.2569 C   0  0  0  0  0  0  0  0  0  0  0  0
   -2.1256    2.3197   -1.0778 H   0  0  0  0  0  0  0  0  0  0  0  0
   -1.2325    1.4266   -2.3317 H   0  0  0  0  0  0  0  0  0  0  0  0
   -0.1282    1.6510   -0.4912 C   0  0  0  0  0  0  0  0  0  0  0  0
   -0.3624    2.0690    0.4924 H   0  0  0  0  0  0  0  0  0  0  0  0
    0.5677    2.3238   -1.0024 H   0  0  0  0  0  0  0  0  0  0  0  0
    0.4424    0.2242   -0.3728 C   0  0  1  0  0  0  0  0  0  0  0  0
    1.0728    0.0208   -1.2447 H   0  0  0  0  0  0  0  0  0  0  0  0
    1.3383    0.0220    0.8870 C   0  0  0  0  0  0  0  0  0  0  0  0
    1.8606   -1.0502    1.1498 O   0  0  0  0  0  0  0  0  0  0  0  0
    1.5939    1.0648    1.7663 N   0  0  0  0  0  0  0  0  0  0  0  0
    1.1827    1.9677    1.5566 H   0  0  0  0  0  0  0  0  0  0  0  0
    2.4281    0.9328    2.9559 C   0  0  0  0  0  0  0  0  0  0  0  0
    3.4492    0.6508    2.6782 H   0  0  0  0  0  0  0  0  0  0  0  0
    2.4667    1.8822    3.4983 H   0  0  0  0  0  0  0  0  0  0  0  0
    2.0213    0.1682    3.6264 H   0  0  0  0  0  0  0  0  0  0  0  0
  1  2  1  0  0  0  0
  2  3  1  0  0  0  0
  2  4  1  0  0  0  0
  2  5  1  0  0  0  0
  5  6  2  0  0  0  0
  5  7  1  0  0  0  0
  7  8  1  0  0  0  0
  7 17  1  0  0  0  0
  8  9  1  0  0  0  0
  8 10  1  0  0  0  0
  8 11  1  0  0  0  0
 11 12  1  0  0  0  0
 11 13  1  0  0  0  0
 11 14  1  0  0  0  0
 14 15  1  0  0  0  0
 14 16  1  0  0  0  0
 14 17  1  0  0  0  0
 17 18  1  0  0  0  0
 17 19  1  0  0  0  0
 19 20  2  0  0  0  0
 19 21  1  0  0  0  0
 21 22  1  0  0  0  0
 21 23  1  0  0  0  0
 23 24  1  0  0  0  0
 23 25  1  0  0  0  0
 23 26  1  0  0  0  0
M  END
$$$$

  -OEChem-01062216093D

 26 26  0     1  0  0  0  0  0999 V2000
   -1.9051   -3.8557   -0.3236 H   0  0  0  0  0  0  0  0  0  0  0  0
   -2.1051   -2.7970   -0.5119 C   0  0  0  0  0  0  0  0  0  0  0  0
   -2.7975   -2.4337    0.2511 H   0  0  0  0  0  0  0  0  0  0  0  0
   -2.5676   -2.6988   -1.4966 H   0  0  0  0  0  0  0  0  0  0  0  0
   -0.8060   -2.0034   -0.4623 C   0  0  0  0  0  0  0  0  0  0  0  0
    0.2372   -2.6319   -0.4809 O   0  0  0  0  0  0  0  0  0  0  0  0
   -0.8012   -0.6095   -0.4296 N   0  0  0  0  0  0  0  0  0  0  0  0
   -1.9915    0.1705   -0.7378 C   0  0  0  0  0  0  0  0  0  0  0  0
   -2.5823    0.3397    0.1687 H   0  0  0  0  0  0  0  0  0  0  0  0
   -2.6272   -0.2995   -1.4952 H   0  0  0  0  0  0  0  0  0  0  0  0
   -1.4216    1.4764   -1.2684 C   0  0  0  0  0  0  0  0  0  0  0  0
   -2.1089    2.3157   -1.1223 H   0  0  0  0  0  0  0  0  0  0  0  0
   -1.2048    1.3824   -2.3378 H   0  0  0  0  0  0  0  0  0  0  0  0
   -0.1268    1.6462   -0.4884 C   0  0  0  0  0  0  0  0  0  0  0  0
   -0.3642    2.0997    0.4775 H   0  0  0  0  0  0  0  0  0  0  0  0
    0.5857    2.2928   -1.0106 H   0  0  0  0  0  0  0  0  0  0  0  0
    0.4186    0.2153   -0.3288 C   0  0  1  0  0  0  0  0  0  0  0  0
    1.0496   -0.0127   -1.1946 H   0  0  0  0  0  0  0  0  0  0  0  0
    1.3099    0.0114    0.9297 C   0  0  0  0  0  0  0  0  0  0  0  0
    2.1741   -0.8522    0.9526 O   0  0  0  0  0  0  0  0  0  0  0  0
    1.3265    0.9344    1.9652 N   0  0  0  0  0  0  0  0  0  0  0  0
    0.6181    1.6597    1.9557 H   0  0  0  0  0  0  0  0  0  0  0  0
    2.2152    0.8370    3.1180 C   0  0  0  0  0  0  0  0  0  0  0  0
    3.2624    0.8595    2.7981 H   0  0  0  0  0  0  0  0  0  0  0  0
    2.0451    1.6762    3.7989 H   0  0  0  0  0  0  0  0  0  0  0  0
    2.0331   -0.0947    3.6641 H   0  0  0  0  0  0  0  0  0  0  0  0
  1  2  1  0  0  0  0
  2  3  1  0  0  0  0
  2  4  1  0  0  0  0
  2  5  1  0  0  0  0
  5  6  2  0  0  0  0
  5  7  1  0  0  0  0
  7  8  1  0  0  0  0
  7 17  1  0  0  0  0
  8  9  1  0  0  0  0
  8 10  1  0  0  0  0
  8 11  1  0  0  0  0
 11 12  1  0  0  0  0
 11 13  1  0  0  0  0
 11 14  1  0  0  0  0
 14 15  1  0  0  0  0
 14 16  1  0  0  0  0
 14 17  1  0  0  0  0
 17 18  1  0  0  0  0
 17 19  1  0  0  0  0
 19 20  2  0  0  0  0
 19 21  1  0  0  0  0
 21 22  1  0  0  0  0
 21 23  1  0  0  0  0
 23 24  1  0  0  0  0
 23 25  1  0  0  0  0
 23 26  1  0  0  0  0
M  END
$$$$

  -OEChem-01062216093D

 26 26  0     1  0  0  0  0  0999 V2000
   -1.9102   -3.8581   -0.3698 H   0  0  0  0  0  0  0  0  0  0  0  0
   -2.1058   -2.7973   -0.5505 C   0  0  0  0  0  0  0  0  0  0  0  0
   -2.8282   -2.4461    0.1900 H   0  0  0  0  0  0  0  0  0  0  0  0
   -2.5306   -2.6861   -1.5507 H   0  0  0  0  0  0  0  0  0  0  0  0
   -0.8122   -2.0012   -0.4407 C   0  0  0  0  0  0  0  0  0  0  0  0
    0.2322   -2.6243   -0.3657 O   0  0  0  0  0  0  0  0  0  0  0  0
   -0.8086   -0.6077   -0.4180 N   0  0  0  0  0  0  0  0  0  0  0  0
   -1.9951    0.1805   -0.7218 C   0  0  0  0  0  0  0  0  0  0  0  0
   -2.5784    0.3572    0.1880 H   0  0  0  0  0  0  0  0  0  0  0  0
   -2.6392   -0.2872   -1.4736 H   0  0  0  0  0  0  0  0  0  0  0  0
   -1.4159    1.4798   -1.2603 C   0  0  0  0  0  0  0  0  0  0  0  0
   -2.0945    2.3258   -1.1134 H   0  0  0  0  0  0  0  0  0  0  0  0
   -1.2079    1.3798   -2.3309 H   0  0  0  0  0  0  0  0  0  0  0  0
   -0.1129    1.6446   -0.4907 C   0  0  0  0  0  0  0  0  0  0  0  0
   -0.3279    2.1078    0.4761 H   0  0  0  0  0  0  0  0  0  0  0  0
    0.6017    2.2785   -1.0253 H   0  0  0  0  0  0  0  0  0  0  0  0
    0.4156    0.2095   -0.3317 C   0  0  1  0  0  0  0  0  0  0  0  0
    1.0392   -0.0270   -1.2008 H   0  0  0  0  0  0  0  0  0  0  0  0
    1.3008   -0.0057    0.9244 C   0  0  0  0  0  0  0  0  0  0  0  0
    2.3433   -0.6397    0.8393 O   0  0  0  0  0  0  0  0  0  0  0  0
    1.1020    0.7370    2.0781 N   0  0  0  0  0  0  0  0  0  0  0  0
    0.2250    1.2405    2.1561 H   0  0  0  0  0  0  0  0  0  0  0  0
    1.9616    0.6391    3.2521 C   0  0  0  0  0  0  0  0  0  0  0  0
    2.9910    0.9140    2.9986 H   0  0  0  0  0  0  0  0  0  0  0  0
    1.6083    1.3150    4.0365 H   0  0  0  0  0  0  0  0  0  0  0  0
    1.9565   -0.3827    3.6458 H   0  0  0  0  0  0  0  0  0  0  0  0
  1  2  1  0  0  0  0
  2  3  1  0  0  0  0
  2  4  1  0  0  0  0
  2  5  1  0  0  0  0
  5  6  2  0  0  0  0
  5  7  1  0  0  0  0
  7  8  1  0  0  0  0
  7 17  1  0  0  0  0
  8  9  1  0  0  0  0
  8 10  1  0  0  0  0
  8 11  1  0  0  0  0
 11 12  1  0  0  0  0
 11 13  1  0  0  0  0
 11 14  1  0  0  0  0
 14 15  1  0  0  0  0
 14 16  1  0  0  0  0
 14 17  1  0  0  0  0
 17 18  1  0  0  0  0
 17 19  1  0  0  0  0
 19 20  2  0  0  0  0
 19 21  1  0  0  0  0
 21 22  1  0  0  0  0
 21 23  1  0  0  0  0
 23 24  1  0  0  0  0
 23 25  1  0  0  0  0
 23 26  1  0  0  0  0
M  END
$$$$

  -OEChem-01062216093D

 26 26  0     1  0  0  0  0  0999 V2000
   -1.9095   -3.8615   -0.4056 H   0  0  0  0  0  0  0  0  0  0  0  0
   -2.1046   -2.7986   -0.5742 C   0  0  0  0  0  0  0  0  0  0  0  0
   -2.8390   -2.4586    0.1596 H   0  0  0  0  0  0  0  0  0  0  0  0
   -2.5140   -2.6745   -1.5794 H   0  0  0  0  0  0  0  0  0  0  0  0
   -0.8149   -2.0016   -0.4337 C   0  0  0  0  0  0  0  0  0  0  0  0
    0.2295   -2.6192   -0.3142 O   0  0  0  0  0  0  0  0  0  0  0  0
   -0.8104   -0.6087   -0.4194 N   0  0  0  0  0  0  0  0  0  0  0  0
   -1.9955    0.1883   -0.7055 C   0  0  0  0  0  0  0  0  0  0  0  0
   -2.5693    0.3624    0.2109 H   0  0  0  0  0  0  0  0  0  0  0  0
   -2.6496   -0.2698   -1.4545 H   0  0  0  0  0  0  0  0  0  0  0  0
   -1.4106    1.4870   -1.2397 C   0  0  0  0  0  0  0  0  0  0  0  0
   -2.0810    2.3368   -1.0792 H   0  0  0  0  0  0  0  0  0  0  0  0
   -1.2151    1.3930   -2.3132 H   0  0  0  0  0  0  0  0  0  0  0  0
   -0.0964    1.6387   -0.4850 C   0  0  0  0  0  0  0  0  0  0  0  0
   -0.2873    2.0948    0.4911 H   0  0  0  0  0  0  0  0  0  0  0  0
    0.6162    2.2697   -1.0258 H   0  0  0  0  0  0  0  0  0  0  0  0
    0.4192    0.1997   -0.3438 C   0  0  1  0  0  0  0  0  0  0  0  0
    1.0358   -0.0384   -1.2177 H   0  0  0  0  0  0  0  0  0  0  0  0
    1.3003   -0.0214    0.9090 C   0  0  0  0  0  0  0  0  0  0  0  0
    2.4519   -0.4157    0.7830 O   0  0  0  0  0  0  0  0  0  0  0  0
    0.9192    0.4918    2.1383 N   0  0  0  0  0  0  0  0  0  0  0  0
   -0.0510    0.7728    2.2340 H   0  0  0  0  0  0  0  0  0  0  0  0
    1.7394    0.3771    3.3384 C   0  0  0  0  0  0  0  0  0  0  0  0
    2.7051    0.8726    3.1922 H   0  0  0  0  0  0  0  0  0  0  0  0
    1.2359    0.8490    4.1874 H   0  0  0  0  0  0  0  0  0  0  0  0
    1.9167   -0.6759    3.5811 H   0  0  0  0  0  0  0  0  0  0  0  0
  1  2  1  0  0  0  0
  2  3  1  0  0  0  0
  2  4  1  0  0  0  0
  2  5  1  0  0  0  0
  5  6  2  0  0  0  0
  5  7  1  0  0  0  0
  7  8  1  0  0  0  0
  7 17  1  0  0  0  0
  8  9  1  0  0  0  0
  8 10  1  0  0  0  0
  8 11  1  0  0  0  0
 11 12  1  0  0  0  0
 11 13  1  0  0  0  0
 11 14  1  0  0  0  0
 14 15  1  0  0  0  0
 14 16  1  0  0  0  0
 14 17  1  0  0  0  0
 17 18  1  0  0  0  0
 17 19  1  0  0  0  0
 19 20  2  0  0  0  0
 19 21  1  0  0  0  0
 21 22  1  0  0  0  0
 21 23  1  0  0  0  0
 23 24  1  0  0  0  0
 23 25  1  0  0  0  0
 23 26  1  0  0  0  0
M  END
$$$$

  -OEChem-01062216093D

 26 26  0     1  0  0  0  0  0999 V2000
   -1.9044   -3.8642   -0.4161 H   0  0  0  0  0  0  0  0  0  0  0  0
   -2.1022   -2.8003   -0.5751 C   0  0  0  0  0  0  0  0  0  0  0  0
   -2.8294   -2.4664    0.1687 H   0  0  0  0  0  0  0  0  0  0  0  0
   -2.5221   -2.6691   -1.5751 H   0  0  0  0  0  0  0  0  0  0  0  0
   -0.8123   -2.0030   -0.4418 C   0  0  0  0  0  0  0  0  0  0  0  0
    0.2335   -2.6173   -0.3119 O   0  0  0  0  0  0  0  0  0  0  0  0
   -0.8053   -0.6105   -0.4346 N   0  0  0  0  0  0  0  0  0  0  0  0
   -1.9910    0.1942   -0.6949 C   0  0  0  0  0  0  0  0  0  0  0  0
   -2.5530    0.3586    0.2305 H   0  0  0  0  0  0  0  0  0  0  0  0
   -2.6555   -0.2516   -1.4422 H   0  0  0  0  0  0  0  0  0  0  0  0
   -1.4059    1.4980   -1.2172 C   0  0  0  0  0  0  0  0  0  0  0  0
   -2.0692    2.3489   -1.0338 H   0  0  0  0  0  0  0  0  0  0  0  0
   -1.2254    1.4203   -2.2947 H   0  0  0  0  0  0  0  0  0  0  0  0
   -0.0807    1.6320   -0.4778 C   0  0  0  0  0  0  0  0  0  0  0  0
   -0.2519    2.0690    0.5112 H   0  0  0  0  0  0  0  0  0  0  0  0
    0.6280    2.2685   -1.0175 H   0  0  0  0  0  0  0  0  0  0  0  0
    0.4288    0.1907   -0.3641 C   0  0  1  0  0  0  0  0  0  0  0  0
    1.0419   -0.0427   -1.2417 H   0  0  0  0  0  0  0  0  0  0  0  0
    1.3050   -0.0323    0.8879 C   0  0  0  0  0  0  0  0  0  0  0  0
    2.5150   -0.1734    0.7686 O   0  0  0  0  0  0  0  0  0  0  0  0
    0.7860    0.2109    2.1485 N   0  0  0  0  0  0  0  0  0  0  0  0
   -0.2251    0.2652    2.2174 H   0  0  0  0  0  0  0  0  0  0  0  0
    1.5673    0.0630    3.3701 C   0  0  0  0  0  0  0  0  0  0  0  0
    2.4238    0.7452    3.3628 H   0  0  0  0  0  0  0  0  0  0  0  0
    0.9508    0.2945    4.2439 H   0  0  0  0  0  0  0  0  0  0  0  0
    1.9352   -0.9639    3.4664 H   0  0  0  0  0  0  0  0  0  0  0  0
  1  2  1  0  0  0  0
  2  3  1  0  0  0  0
  2  4  1  0  0  0  0
  2  5  1  0  0  0  0
  5  6  2  0  0  0  0
  5  7  1  0  0  0  0
  7  8  1  0  0  0  0
  7 17  1  0  0  0  0
  8  9  1  0  0  0  0
  8 10  1  0  0  0  0
  8 11  1  0  0  0  0
 11 12  1  0  0  0  0
 11 13  1  0  0  0  0
 11 14  1  0  0  0  0
 14 15  1  0  0  0  0
 14 16  1  0  0  0  0
 14 17  1  0  0  0  0
 17 18  1  0  0  0  0
 17 19  1  0  0  0  0
 19 20  2  0  0  0  0
 19 21  1  0  0  0  0
 21 22  1  0  0  0  0
 21 23  1  0  0  0  0
 23 24  1  0  0  0  0
 23 25  1  0  0  0  0
 23 26  1  0  0  0  0
M  END
$$$$

  -OEChem-01062216093D

 26 26  0     1  0  0  0  0  0999 V2000
   -1.9157   -3.8662   -0.4420 H   0  0  0  0  0  0  0  0  0  0  0  0
   -2.1101   -2.8005   -0.5933 C   0  0  0  0  0  0  0  0  0  0  0  0
   -2.8431   -2.4711    0.1469 H   0  0  0  0  0  0  0  0  0  0  0  0
   -2.5218   -2.6603   -1.5955 H   0  0  0  0  0  0  0  0  0  0  0  0
   -0.8197   -2.0069   -0.4444 C   0  0  0  0  0  0  0  0  0  0  0  0
    0.2238   -2.6216   -0.2949 O   0  0  0  0  0  0  0  0  0  0  0  0
   -0.8081   -0.6147   -0.4422 N   0  0  0  0  0  0  0  0  0  0  0  0
   -1.9923    0.1966   -0.6891 C   0  0  0  0  0  0  0  0  0  0  0  0
   -2.5493    0.3550    0.2403 H   0  0  0  0  0  0  0  0  0  0  0  0
   -2.6617   -0.2403   -1.4374 H   0  0  0  0  0  0  0  0  0  0  0  0
   -1.4043    1.5027   -1.2013 C   0  0  0  0  0  0  0  0  0  0  0  0
   -2.0620    2.3552   -1.0051 H   0  0  0  0  0  0  0  0  0  0  0  0
   -1.2311    1.4357   -2.2806 H   0  0  0  0  0  0  0  0  0  0  0  0
   -0.0737    1.6223   -0.4685 C   0  0  0  0  0  0  0  0  0  0  0  0
   -0.2361    2.0441    0.5292 H   0  0  0  0  0  0  0  0  0  0  0  0
    0.6349    2.2632   -1.0032 H   0  0  0  0  0  0  0  0  0  0  0  0
    0.4311    0.1798   -0.3717 C   0  0  1  0  0  0  0  0  0  0  0  0
    1.0423   -0.0515   -1.2507 H   0  0  0  0  0  0  0  0  0  0  0  0
    1.3088   -0.0366    0.8782 C   0  0  0  0  0  0  0  0  0  0  0  0
    2.5248    0.0776    0.7940 O   0  0  0  0  0  0  0  0  0  0  0  0
    0.7235   -0.0871    2.1312 N   0  0  0  0  0  0  0  0  0  0  0  0
   -0.2768   -0.2569    2.1505 H   0  0  0  0  0  0  0  0  0  0  0  0
    1.4917   -0.2704    3.3556 C   0  0  0  0  0  0  0  0  0  0  0  0
    2.2036    0.5512    3.4876 H   0  0  0  0  0  0  0  0  0  0  0  0
    0.8240   -0.2901    4.2220 H   0  0  0  0  0  0  0  0  0  0  0  0
    2.0451   -1.2148    3.3215 H   0  0  0  0  0  0  0  0  0  0  0  0
  1  2  1  0  0  0  0
  2  3  1  0  0  0  0
  2  4  1  0  0  0  0
  2  5  1  0  0  0  0
  5  6  2  0  0  0  0
  5  7  1  0  0  0  0
  7  8  1  0  0  0  0
  7 17  1  0  0  0  0
  8  9  1  0  0  0  0
  8 10  1  0  0  0  0
  8 11  1  0  0  0  0
 11 12  1  0  0  0  0
 11 13  1  0  0  0  0
 11 14  1  0  0  0  0
 14 15  1  0  0  0  0
 14 16  1  0  0  0  0
 14 17  1  0  0  0  0
 17 18  1  0  0  0  0
 17 19  1  0  0  0  0
 19 20  2  0  0  0  0
 19 21  1  0  0  0  0
 21 22  1  0  0  0  0
 21 23  1  0  0  0  0
 23 24  1  0  0  0  0
 23 25  1  0  0  0  0
 23 26  1  0  0  0  0
M  END
$$$$

  -OEChem-01062216093D

 26 26  0     1  0  0  0  0  0999 V2000
   -1.9350   -3.8647   -0.4654 H   0  0  0  0  0  0  0  0  0  0  0  0
   -2.1263   -2.7972   -0.6070 C   0  0  0  0  0  0  0  0  0  0  0  0
   -2.8570   -2.4719    0.1372 H   0  0  0  0  0  0  0  0  0  0  0  0
   -2.5394   -2.6467   -1.6071 H   0  0  0  0  0  0  0  0  0  0  0  0
   -0.8336   -2.0088   -0.4526 C   0  0  0  0  0  0  0  0  0  0  0  0
    0.2061   -2.6263   -0.2871 O   0  0  0  0  0  0  0  0  0  0  0  0
   -0.8146   -0.6170   -0.4506 N   0  0  0  0  0  0  0  0  0  0  0  0
   -1.9955    0.1990   -0.6977 C   0  0  0  0  0  0  0  0  0  0  0  0
   -2.5549    0.3537    0.2310 H   0  0  0  0  0  0  0  0  0  0  0  0
   -2.6634   -0.2319   -1.4508 H   0  0  0  0  0  0  0  0  0  0  0  0
   -1.4028    1.5061   -1.2003 C   0  0  0  0  0  0  0  0  0  0  0  0
   -2.0588    2.3591   -1.0007 H   0  0  0  0  0  0  0  0  0  0  0  0
   -1.2259    1.4451   -2.2794 H   0  0  0  0  0  0  0  0  0  0  0  0
   -0.0749    1.6168   -0.4622 C   0  0  0  0  0  0  0  0  0  0  0  0
   -0.2393    2.0300    0.5391 H   0  0  0  0  0  0  0  0  0  0  0  0
    0.6369    2.2604   -0.9892 H   0  0  0  0  0  0  0  0  0  0  0  0
    0.4280    0.1737   -0.3710 C   0  0  1  0  0  0  0  0  0  0  0  0
    1.0422   -0.0557   -1.2482 H   0  0  0  0  0  0  0  0  0  0  0  0
    1.3068   -0.0339    0.8804 C   0  0  0  0  0  0  0  0  0  0  0  0
    2.4790    0.3195    0.8587 O   0  0  0  0  0  0  0  0  0  0  0  0
    0.7304   -0.3857    2.0879 N   0  0  0  0  0  0  0  0  0  0  0  0
   -0.2051   -0.7752    2.0316 H   0  0  0  0  0  0  0  0  0  0  0  0
    1.5103   -0.6137    3.2975 C   0  0  0  0  0  0  0  0  0  0  0  0
    2.0433    0.2978    3.5877 H   0  0  0  0  0  0  0  0  0  0  0  0
    0.8523   -0.9051    4.1216 H   0  0  0  0  0  0  0  0  0  0  0  0
    2.2407   -1.4135    3.1363 H   0  0  0  0  0  0  0  0  0  0  0  0
  1  2  1  0  0  0  0
  2  3  1  0  0  0  0
  2  4  1  0  0  0  0
  2  5  1  0  0  0  0
  5  6  2  0  0  0  0
  5  7  1  0  0  0  0
  7  8  1  0  0  0  0
  7 17  1  0  0  0  0
  8  9  1  0  0  0  0
  8 10  1  0  0  0  0
  8 11  1  0  0  0  0
 11 12  1  0  0  0  0
 11 13  1  0  0  0  0
 11 14  1  0  0  0  0
 14 15  1  0  0  0  0
 14 16  1  0  0  0  0
 14 17  1  0  0  0  0
 17 18  1  0  0  0  0
 17 19  1  0  0  0  0
 19 20  2  0  0  0  0
 19 21  1  0  0  0  0
 21 22  1  0  0  0  0
 21 23  1  0  0  0  0
 23 24  1  0  0  0  0
 23 25  1  0  0  0  0
 23 26  1  0  0  0  0
M  END
$$$$

  -OEChem-01062216093D

 26 26  0     1  0  0  0  0  0999 V2000
   -1.9910   -3.8588   -0.5030 H   0  0  0  0  0  0  0  0  0  0  0  0
   -2.1651   -2.7893   -0.6516 C   0  0  0  0  0  0  0  0  0  0  0  0
   -2.9105   -2.4534    0.0731 H   0  0  0  0  0  0  0  0  0  0  0  0
   -2.5511   -2.6360   -1.6622 H   0  0  0  0  0  0  0  0  0  0  0  0
   -0.8673   -2.0157   -0.4664 C   0  0  0  0  0  0  0  0  0  0  0  0
    0.1600   -2.6450   -0.2695 O   0  0  0  0  0  0  0  0  0  0  0  0
   -0.8314   -0.6248   -0.4531 N   0  0  0  0  0  0  0  0  0  0  0  0
   -2.0049    0.2008   -0.7064 C   0  0  0  0  0  0  0  0  0  0  0  0
   -2.5727    0.3523    0.2180 H   0  0  0  0  0  0  0  0  0  0  0  0
   -2.6685   -0.2201   -1.4688 H   0  0  0  0  0  0  0  0  0  0  0  0
   -1.4015    1.5074   -1.1949 C   0  0  0  0  0  0  0  0  0  0  0  0
   -2.0541    2.3626   -0.9940 H   0  0  0  0  0  0  0  0  0  0  0  0
   -1.2156    1.4538   -2.2729 H   0  0  0  0  0  0  0  0  0  0  0  0
   -0.0802    1.6048   -0.4448 C   0  0  0  0  0  0  0  0  0  0  0  0
   -0.2514    2.0105    0.5585 H   0  0  0  0  0  0  0  0  0  0  0  0
    0.6395    2.2495   -0.9595 H   0  0  0  0  0  0  0  0  0  0  0  0
    0.4169    0.1587   -0.3573 C   0  0  1  0  0  0  0  0  0  0  0  0
    1.0326   -0.0687   -1.2336 H   0  0  0  0  0  0  0  0  0  0  0  0
    1.3044   -0.0447    0.8916 C   0  0  0  0  0  0  0  0  0  0  0  0
    2.3816    0.5351    0.9557 O   0  0  0  0  0  0  0  0  0  0  0  0
    0.8173   -0.6834    2.0177 N   0  0  0  0  0  0  0  0  0  0  0  0
    0.0333   -1.3068    1.8477 H   0  0  0  0  0  0  0  0  0  0  0  0
    1.6333   -0.9122    3.2032 C   0  0  0  0  0  0  0  0  0  0  0  0
    1.9743    0.0395    3.6240 H   0  0  0  0  0  0  0  0  0  0  0  0
    1.0504   -1.4359    3.9666 H   0  0  0  0  0  0  0  0  0  0  0  0
    2.5083   -1.5216    2.9541 H   0  0  0  0  0  0  0  0  0  0  0  0
  1  2  1  0  0  0  0
  2  3  1  0  0  0  0
  2  4  1  0  0  0  0
  2  5  1  0  0  0  0
  5  6  2  0  0  0  0
  5  7  1  0  0  0  0
  7  8  1  0  0  0  0
  7 17  1  0  0  0  0
  8  9  1  0  0  0  0
  8 10  1  0  0  0  0
  8 11  1  0  0  0  0
 11 12  1  0  0  0  0
 11 13  1  0  0  0  0
 11 14  1  0  0  0  0
 14 15  1  0  0  0  0
 14 16  1  0  0  0  0
 14 17  1  0  0  0  0
 17 18  1  0  0  0  0
 17 19  1  0  0  0  0
 19 20  2  0  0  0  0
 19 21  1  0  0  0  0
 21 22  1  0  0  0  0
 21 23  1  0  0  0  0
 23 24  1  0  0  0  0
 23 25  1  0  0  0  0
 23 26  1  0  0  0  0
M  END
$$$$

  -OEChem-01062216093D

 26 26  0     1  0  0  0  0  0999 V2000
   -2.0468   -3.8506   -0.5304 H   0  0  0  0  0  0  0  0  0  0  0  0
   -2.2038   -2.7789   -0.6820 C   0  0  0  0  0  0  0  0  0  0  0  0
   -2.9546   -2.4328    0.0324 H   0  0  0  0  0  0  0  0  0  0  0  0
   -2.5740   -2.6211   -1.6978 H   0  0  0  0  0  0  0  0  0  0  0  0
   -0.8980   -2.0227   -0.4798 C   0  0  0  0  0  0  0  0  0  0  0  0
    0.1193   -2.6691   -0.2814 O   0  0  0  0  0  0  0  0  0  0  0  0
   -0.8433   -0.6323   -0.4535 N   0  0  0  0  0  0  0  0  0  0  0  0
   -2.0109    0.2015   -0.7089 C   0  0  0  0  0  0  0  0  0  0  0  0
   -2.5818    0.3511    0.2137 H   0  0  0  0  0  0  0  0  0  0  0  0
   -2.6734   -0.2120   -1.4764 H   0  0  0  0  0  0  0  0  0  0  0  0
   -1.4021    1.5081   -1.1882 C   0  0  0  0  0  0  0  0  0  0  0  0
   -2.0528    2.3644   -0.9853 H   0  0  0  0  0  0  0  0  0  0  0  0
   -1.2111    1.4599   -2.2654 H   0  0  0  0  0  0  0  0  0  0  0  0
   -0.0859    1.5952   -0.4301 C   0  0  0  0  0  0  0  0  0  0  0  0
   -0.2636    1.9959    0.5742 H   0  0  0  0  0  0  0  0  0  0  0  0
    0.6387    2.2416   -0.9359 H   0  0  0  0  0  0  0  0  0  0  0  0
    0.4092    0.1466   -0.3455 C   0  0  1  0  0  0  0  0  0  0  0  0
    1.0249   -0.0782   -1.2224 H   0  0  0  0  0  0  0  0  0  0  0  0
    1.3065   -0.0568    0.9005 C   0  0  0  0  0  0  0  0  0  0  0  0
    2.2591    0.6946    1.0740 O   0  0  0  0  0  0  0  0  0  0  0  0
    0.9669   -0.9445    1.9048 N   0  0  0  0  0  0  0  0  0  0  0  0
    0.3671   -1.7081    1.5957 H   0  0  0  0  0  0  0  0  0  0  0  0
    1.8194   -1.1776    3.0636 C   0  0  0  0  0  0  0  0  0  0  0  0
    1.9654   -0.2492    3.6257 H   0  0  0  0  0  0  0  0  0  0  0  0
    1.3576   -1.9131    3.7291 H   0  0  0  0  0  0  0  0  0  0  0  0
    2.7973   -1.5574    2.7499 H   0  0  0  0  0  0  0  0  0  0  0  0
  1  2  1  0  0  0  0
  2  3  1  0  0  0  0
  2  4  1  0  0  0  0
  2  5  1  0  0  0  0
  5  6  2  0  0  0  0
  5  7  1  0  0  0  0
  7  8  1  0  0  0  0
  7 17  1  0  0  0  0
  8  9  1  0  0  0  0
  8 10  1  0  0  0  0
  8 11  1  0  0  0  0
 11 12  1  0  0  0  0
 11 13  1  0  0  0  0
 11 14  1  0  0  0  0
 14 15  1  0  0  0  0
 14 16  1  0  0  0  0
 14 17  1  0  0  0  0
 17 18  1  0  0  0  0
 17 19  1  0  0  0  0
 19 20  2  0  0  0  0
 19 21  1  0  0  0  0
 21 22  1  0  0  0  0
 21 23  1  0  0  0  0
 23 24  1  0  0  0  0
 23 25  1  0  0  0  0
 23 26  1  0  0  0  0
M  END
$$$$

  -OEChem-01062216093D

 26 26  0     1  0  0  0  0  0999 V2000
   -2.0722   -3.8436   -0.5148 H   0  0  0  0  0  0  0  0  0  0  0  0
   -2.2237   -2.7710   -0.6657 C   0  0  0  0  0  0  0  0  0  0  0  0
   -2.9489   -2.4154    0.0704 H   0  0  0  0  0  0  0  0  0  0  0  0
   -2.6233   -2.6133   -1.6702 H   0  0  0  0  0  0  0  0  0  0  0  0
   -0.9054   -2.0261   -0.5056 C   0  0  0  0  0  0  0  0  0  0  0  0
    0.1158   -2.6854   -0.3781 O   0  0  0  0  0  0  0  0  0  0  0  0
   -0.8420   -0.6358   -0.4637 N   0  0  0  0  0  0  0  0  0  0  0  0
   -2.0090    0.1994   -0.7184 C   0  0  0  0  0  0  0  0  0  0  0  0
   -2.5837    0.3423    0.2030 H   0  0  0  0  0  0  0  0  0  0  0  0
   -2.6683   -0.2096   -1.4907 H   0  0  0  0  0  0  0  0  0  0  0  0
   -1.4023    1.5104   -1.1876 C   0  0  0  0  0  0  0  0  0  0  0  0
   -2.0561    2.3640   -0.9835 H   0  0  0  0  0  0  0  0  0  0  0  0
   -1.2045    1.4686   -2.2638 H   0  0  0  0  0  0  0  0  0  0  0  0
   -0.0922    1.5939   -0.4204 C   0  0  0  0  0  0  0  0  0  0  0  0
   -0.2804    1.9879    0.5846 H   0  0  0  0  0  0  0  0  0  0  0  0
    0.6335    2.2472   -0.9155 H   0  0  0  0  0  0  0  0  0  0  0  0
    0.4093    0.1451   -0.3406 C   0  0  1  0  0  0  0  0  0  0  0  0
    1.0296   -0.0708   -1.2163 H   0  0  0  0  0  0  0  0  0  0  0  0
    1.3073   -0.0631    0.9085 C   0  0  0  0  0  0  0  0  0  0  0  0
    2.1267    0.7988    1.2062 O   0  0  0  0  0  0  0  0  0  0  0  0
    1.1569   -1.1466    1.7538 N   0  0  0  0  0  0  0  0  0  0  0  0
    0.6733   -1.9422    1.3347 H   0  0  0  0  0  0  0  0  0  0  0  0
    2.0471   -1.4037    2.8784 C   0  0  0  0  0  0  0  0  0  0  0  0
    2.0167   -0.5720    3.5900 H   0  0  0  0  0  0  0  0  0  0  0  0
    1.7391   -2.3145    3.4006 H   0  0  0  0  0  0  0  0  0  0  0  0
    3.0770   -1.5334    2.5301 H   0  0  0  0  0  0  0  0  0  0  0  0
  1  2  1  0  0  0  0
  2  3  1  0  0  0  0
  2  4  1  0  0  0  0
  2  5  1  0  0  0  0
  5  6  2  0  0  0  0
  5  7  1  0  0  0  0
  7  8  1  0  0  0  0
  7 17  1  0  0  0  0
  8  9  1  0  0  0  0
  8 10  1  0  0  0  0
  8 11  1  0  0  0  0
 11 12  1  0  0  0  0
 11 13  1  0  0  0  0
 11 14  1  0  0  0  0
 14 15  1  0  0  0  0
 14 16  1  0  0  0  0
 14 17  1  0  0  0  0
 17 18  1  0  0  0  0
 17 19  1  0  0  0  0
 19 20  2  0  0  0  0
 19 21  1  0  0  0  0
 21 22  1  0  0  0  0
 21 23  1  0  0  0  0
 23 24  1  0  0  0  0
 23 25  1  0  0  0  0
 23 26  1  0  0  0  0
M  END
$$$$

  -OEChem-01062216093D

 26 26  0     1  0  0  0  0  0999 V2000
   -2.0766   -3.8404   -0.4883 H   0  0  0  0  0  0  0  0  0  0  0  0
   -2.2289   -2.7683   -0.6416 C   0  0  0  0  0  0  0  0  0  0  0  0
   -2.9287   -2.4056    0.1152 H   0  0  0  0  0  0  0  0  0  0  0  0
   -2.6603   -2.6153   -1.6336 H   0  0  0  0  0  0  0  0  0  0  0  0
   -0.9028   -2.0281   -0.5286 C   0  0  0  0  0  0  0  0  0  0  0  0
    0.1215   -2.6938   -0.4824 O   0  0  0  0  0  0  0  0  0  0  0  0
   -0.8359   -0.6379   -0.4719 N   0  0  0  0  0  0  0  0  0  0  0  0
   -2.0048    0.1963   -0.7201 C   0  0  0  0  0  0  0  0  0  0  0  0
   -2.5788    0.3319    0.2030 H   0  0  0  0  0  0  0  0  0  0  0  0
   -2.6638   -0.2104   -1.4940 H   0  0  0  0  0  0  0  0  0  0  0  0
   -1.4039    1.5126   -1.1825 C   0  0  0  0  0  0  0  0  0  0  0  0
   -2.0611    2.3623   -0.9730 H   0  0  0  0  0  0  0  0  0  0  0  0
   -1.2052    1.4781   -2.2590 H   0  0  0  0  0  0  0  0  0  0  0  0
   -0.0953    1.5942   -0.4137 C   0  0  0  0  0  0  0  0  0  0  0  0
   -0.2901    1.9821    0.5928 H   0  0  0  0  0  0  0  0  0  0  0  0
    0.6291    2.2539   -0.9022 H   0  0  0  0  0  0  0  0  0  0  0  0
    0.4136    0.1454   -0.3415 C   0  0  1  0  0  0  0  0  0  0  0  0
    1.0342   -0.0619   -1.2189 H   0  0  0  0  0  0  0  0  0  0  0  0
    1.3144   -0.0721    0.9074 C   0  0  0  0  0  0  0  0  0  0  0  0
    1.9890    0.8572    1.3379 O   0  0  0  0  0  0  0  0  0  0  0  0
    1.3867   -1.2830    1.5693 N   0  0  0  0  0  0  0  0  0  0  0  0
    0.9812   -2.0776    1.0705 H   0  0  0  0  0  0  0  0  0  0  0  0
    2.3070   -1.5478    2.6675 C   0  0  0  0  0  0  0  0  0  0  0  0
    2.1282   -0.8518    3.4937 H   0  0  0  0  0  0  0  0  0  0  0  0
    2.1654   -2.5669    3.0394 H   0  0  0  0  0  0  0  0  0  0  0  0
    3.3439   -1.4402    2.3328 H   0  0  0  0  0  0  0  0  0  0  0  0
  1  2  1  0  0  0  0
  2  3  1  0  0  0  0
  2  4  1  0  0  0  0
  2  5  1  0  0  0  0
  5  6  2  0  0  0  0
  5  7  1  0  0  0  0
  7  8  1  0  0  0  0
  7 17  1  0  0  0  0
  8  9  1  0  0  0  0
  8 10  1  0  0  0  0
  8 11  1  0  0  0  0
 11 12  1  0  0  0  0
 11 13  1  0  0  0  0
 11 14  1  0  0  0  0
 14 15  1  0  0  0  0
 14 16  1  0  0  0  0
 14 17  1  0  0  0  0
 17 18  1  0  0  0  0
 17 19  1  0  0  0  0
 19 20  2  0  0  0  0
 19 21  1  0  0  0  0
 21 22  1  0  0  0  0
 21 23  1  0  0  0  0
 23 24  1  0  0  0  0
 23 25  1  0  0  0  0
 23 26  1  0  0  0  0
M  END
$$$$

  -OEChem-01062216093D

 26 26  0     1  0  0  0  0  0999 V2000
   -2.0527   -3.8396   -0.4539 H   0  0  0  0  0  0  0  0  0  0  0  0
   -2.2132   -2.7681   -0.6024 C   0  0  0  0  0  0  0  0  0  0  0  0
   -2.8870   -2.4066    0.1781 H   0  0  0  0  0  0  0  0  0  0  0  0
   -2.6789   -2.6168   -1.5791 H   0  0  0  0  0  0  0  0  0  0  0  0
   -0.8859   -2.0247   -0.5347 C   0  0  0  0  0  0  0  0  0  0  0  0
    0.1410   -2.6882   -0.5541 O   0  0  0  0  0  0  0  0  0  0  0  0
   -0.8226   -0.6344   -0.4704 N   0  0  0  0  0  0  0  0  0  0  0  0
   -1.9974    0.1947   -0.7057 C   0  0  0  0  0  0  0  0  0  0  0  0
   -2.5602    0.3299    0.2243 H   0  0  0  0  0  0  0  0  0  0  0  0
   -2.6649   -0.2158   -1.4702 H   0  0  0  0  0  0  0  0  0  0  0  0
   -1.4086    1.5128   -1.1783 C   0  0  0  0  0  0  0  0  0  0  0  0
   -2.0674    2.3600   -0.9637 H   0  0  0  0  0  0  0  0  0  0  0  0
   -1.2211    1.4761   -2.2565 H   0  0  0  0  0  0  0  0  0  0  0  0
   -0.0928    1.6010   -0.4231 C   0  0  0  0  0  0  0  0  0  0  0  0
   -0.2852    1.9915    0.5826 H   0  0  0  0  0  0  0  0  0  0  0  0
    0.6238    2.2640   -0.9185 H   0  0  0  0  0  0  0  0  0  0  0  0
    0.4247    0.1536   -0.3532 C   0  0  1  0  0  0  0  0  0  0  0  0
    1.0365   -0.0489   -1.2379 H   0  0  0  0  0  0  0  0  0  0  0  0
    1.3371   -0.0760    0.8871 C   0  0  0  0  0  0  0  0  0  0  0  0
    1.8495    0.8778    1.4633 O   0  0  0  0  0  0  0  0  0  0  0  0
    1.6492   -1.3405    1.3473 N   0  0  0  0  0  0  0  0  0  0  0  0
    1.2931   -2.1227    0.7931 H   0  0  0  0  0  0  0  0  0  0  0  0
    2.5673   -1.6109    2.4456 C   0  0  0  0  0  0  0  0  0  0  0  0
    2.2126   -1.1367    3.3664 H   0  0  0  0  0  0  0  0  0  0  0  0
    2.6400   -2.6888    2.6186 H   0  0  0  0  0  0  0  0  0  0  0  0
    3.5666   -1.2290    2.2128 H   0  0  0  0  0  0  0  0  0  0  0  0
  1  2  1  0  0  0  0
  2  3  1  0  0  0  0
  2  4  1  0  0  0  0
  2  5  1  0  0  0  0
  5  6  2  0  0  0  0
  5  7  1  0  0  0  0
  7  8  1  0  0  0  0
  7 17  1  0  0  0  0
  8  9  1  0  0  0  0
  8 10  1  0  0  0  0
  8 11  1  0  0  0  0
 11 12  1  0  0  0  0
 11 13  1  0  0  0  0
 11 14  1  0  0  0  0
 14 15  1  0  0  0  0
 14 16  1  0  0  0  0
 14 17  1  0  0  0  0
 17 18  1  0  0  0  0
 17 19  1  0  0  0  0
 19 20  2  0  0  0  0
 19 21  1  0  0  0  0
 21 22  1  0  0  0  0
 21 23  1  0  0  0  0
 23 24  1  0  0  0  0
 23 25  1  0  0  0  0
 23 26  1  0  0  0  0
M  END
$$$$

  -OEChem-01062216093D

 26 26  0     1  0  0  0  0  0999 V2000
   -1.9914   -3.8421   -0.4018 H   0  0  0  0  0  0  0  0  0  0  0  0
   -2.1689   -2.7731   -0.5494 C   0  0  0  0  0  0  0  0  0  0  0  0
   -2.8235   -2.4165    0.2497 H   0  0  0  0  0  0  0  0  0  0  0  0
   -2.6654   -2.6309   -1.5120 H   0  0  0  0  0  0  0  0  0  0  0  0
   -0.8491   -2.0141   -0.5238 C   0  0  0  0  0  0  0  0  0  0  0  0
    0.1852   -2.6645   -0.5774 O   0  0  0  0  0  0  0  0  0  0  0  0
   -0.8008   -0.6230   -0.4618 N   0  0  0  0  0  0  0  0  0  0  0  0
   -1.9867    0.1949   -0.6795 C   0  0  0  0  0  0  0  0  0  0  0  0
   -2.5313    0.3337    0.2607 H   0  0  0  0  0  0  0  0  0  0  0  0
   -2.6662   -0.2273   -1.4271 H   0  0  0  0  0  0  0  0  0  0  0  0
   -1.4168    1.5135   -1.1750 C   0  0  0  0  0  0  0  0  0  0  0  0
   -2.0772    2.3575   -0.9534 H   0  0  0  0  0  0  0  0  0  0  0  0
   -1.2520    1.4697   -2.2566 H   0  0  0  0  0  0  0  0  0  0  0  0
   -0.0865    1.6184   -0.4476 C   0  0  0  0  0  0  0  0  0  0  0  0
   -0.2657    2.0197    0.5559 H   0  0  0  0  0  0  0  0  0  0  0  0
    0.6151    2.2813   -0.9634 H   0  0  0  0  0  0  0  0  0  0  0  0
    0.4421    0.1739   -0.3768 C   0  0  1  0  0  0  0  0  0  0  0  0
    1.0374   -0.0275   -1.2730 H   0  0  0  0  0  0  0  0  0  0  0  0
    1.3744   -0.0631    0.8472 C   0  0  0  0  0  0  0  0  0  0  0  0
    1.7058    0.8640    1.5784 O   0  0  0  0  0  0  0  0  0  0  0  0
    1.9299   -1.3026    1.0979 N   0  0  0  0  0  0  0  0  0  0  0  0
    1.5908   -2.0734    0.5166 H   0  0  0  0  0  0  0  0  0  0  0  0
    2.8005   -1.5981    2.2281 C   0  0  0  0  0  0  0  0  0  0  0  0
    2.2657   -1.4501    3.1718 H   0  0  0  0  0  0  0  0  0  0  0  0
    3.1393   -2.6374    2.1800 H   0  0  0  0  0  0  0  0  0  0  0  0
    3.6814   -0.9478    2.2145 H   0  0  0  0  0  0  0  0  0  0  0  0
  1  2  1  0  0  0  0
  2  3  1  0  0  0  0
  2  4  1  0  0  0  0
  2  5  1  0  0  0  0
  5  6  2  0  0  0  0
  5  7  1  0  0  0  0
  7  8  1  0  0  0  0
  7 17  1  0  0  0  0
  8  9  1  0  0  0  0
  8 10  1  0  0  0  0
  8 11  1  0  0  0  0
 11 12  1  0  0  0  0
 11 13  1  0  0  0  0
 11 14  1  0  0  0  0
 14 15  1  0  0  0  0
 14 16  1  0  0  0  0
 14 17  1  0  0  0  0
 17 18  1  0  0  0  0
 17 19  1  0  0  0  0
 19 20  2  0  0  0  0
 19 21  1  0  0  0  0
 21 22  1  0  0  0  0
 21 23  1  0  0  0  0
 23 24  1  0  0  0  0
 23 25  1  0  0  0  0
 23 26  1  0  0  0  0
M  END
$$$$

  -OEChem-01062216093D

 26 26  0     1  0  0  0  0  0999 V2000
   -1.9007   -3.8478   -0.3659 H   0  0  0  0  0  0  0  0  0  0  0  0
   -2.1025   -2.7820   -0.5046 C   0  0  0  0  0  0  0  0  0  0  0  0
   -2.7504   -2.4425    0.3072 H   0  0  0  0  0  0  0  0  0  0  0  0
   -2.6180   -2.6446   -1.4579 H   0  0  0  0  0  0  0  0  0  0  0  0
   -0.7989   -1.9959   -0.4962 C   0  0  0  0  0  0  0  0  0  0  0  0
    0.2514   -2.6212   -0.5519 O   0  0  0  0  0  0  0  0  0  0  0  0
   -0.7798   -0.6040   -0.4490 N   0  0  0  0  0  0  0  0  0  0  0  0
   -1.9777    0.1969   -0.6592 C   0  0  0  0  0  0  0  0  0  0  0  0
   -2.5100    0.3415    0.2872 H   0  0  0  0  0  0  0  0  0  0  0  0
   -2.6632   -0.2420   -1.3916 H   0  0  0  0  0  0  0  0  0  0  0  0
   -1.4259    1.5149   -1.1786 C   0  0  0  0  0  0  0  0  0  0  0  0
   -2.0913    2.3556   -0.9590 H   0  0  0  0  0  0  0  0  0  0  0  0
   -1.2752    1.4584   -2.2617 H   0  0  0  0  0  0  0  0  0  0  0  0
   -0.0855    1.6428   -0.4714 C   0  0  0  0  0  0  0  0  0  0  0  0
   -0.2549    2.0590    0.5274 H   0  0  0  0  0  0  0  0  0  0  0  0
    0.6029    2.3039   -1.0072 H   0  0  0  0  0  0  0  0  0  0  0  0
    0.4545    0.2031   -0.3918 C   0  0  1  0  0  0  0  0  0  0  0  0
    1.0428    0.0000   -1.2922 H   0  0  0  0  0  0  0  0  0  0  0  0
    1.3857   -0.0373    0.8296 C   0  0  0  0  0  0  0  0  0  0  0  0
    1.5275    0.8075    1.7071 O   0  0  0  0  0  0  0  0  0  0  0  0
    2.1652   -1.1763    0.8915 N   0  0  0  0  0  0  0  0  0  0  0  0
    1.8741   -1.9318    0.2655 H   0  0  0  0  0  0  0  0  0  0  0  0
    3.0167   -1.5075    2.0265 C   0  0  0  0  0  0  0  0  0  0  0  0
    2.4134   -1.6540    2.9283 H   0  0  0  0  0  0  0  0  0  0  0  0
    3.5702   -2.4292    1.8235 H   0  0  0  0  0  0  0  0  0  0  0  0
    3.7400   -0.7065    2.2116 H   0  0  0  0  0  0  0  0  0  0  0  0
  1  2  1  0  0  0  0
  2  3  1  0  0  0  0
  2  4  1  0  0  0  0
  2  5  1  0  0  0  0
  5  6  2  0  0  0  0
  5  7  1  0  0  0  0
  7  8  1  0  0  0  0
  7 17  1  0  0  0  0
  8  9  1  0  0  0  0
  8 10  1  0  0  0  0
  8 11  1  0  0  0  0
 11 12  1  0  0  0  0
 11 13  1  0  0  0  0
 11 14  1  0  0  0  0
 14 15  1  0  0  0  0
 14 16  1  0  0  0  0
 14 17  1  0  0  0  0
 17 18  1  0  0  0  0
 17 19  1  0  0  0  0
 19 20  2  0  0  0  0
 19 21  1  0  0  0  0
 21 22  1  0  0  0  0
 21 23  1  0  0  0  0
 23 24  1  0  0  0  0
 23 25  1  0  0  0  0
 23 26  1  0  0  0  0
M  END
$$$$

  -OEChem-01062216093D

 26 26  0     1  0  0  0  0  0999 V2000
   -1.8091   -3.8518   -0.3254 H   0  0  0  0  0  0  0  0  0  0  0  0
   -2.0372   -2.7921   -0.4708 C   0  0  0  0  0  0  0  0  0  0  0  0
   -2.6861   -2.4612    0.3437 H   0  0  0  0  0  0  0  0  0  0  0  0
   -2.5636   -2.6737   -1.4206 H   0  0  0  0  0  0  0  0  0  0  0  0
   -0.7526   -1.9757   -0.4788 C   0  0  0  0  0  0  0  0  0  0  0  0
    0.3165   -2.5709   -0.5298 O   0  0  0  0  0  0  0  0  0  0  0  0
   -0.7652   -0.5839   -0.4494 N   0  0  0  0  0  0  0  0  0  0  0  0
   -1.9727    0.2032   -0.6475 C   0  0  0  0  0  0  0  0  0  0  0  0
   -2.4942    0.3476    0.3048 H   0  0  0  0  0  0  0  0  0  0  0  0
   -2.6623   -0.2466   -1.3691 H   0  0  0  0  0  0  0  0  0  0  0  0
   -1.4348    1.5234   -1.1788 C   0  0  0  0  0  0  0  0  0  0  0  0
   -2.1034    2.3603   -0.9543 H   0  0  0  0  0  0  0  0  0  0  0  0
   -1.2975    1.4637   -2.2635 H   0  0  0  0  0  0  0  0  0  0  0  0
   -0.0856    1.6648   -0.4885 C   0  0  0  0  0  0  0  0  0  0  0  0
   -0.2428    2.0871    0.5094 H   0  0  0  0  0  0  0  0  0  0  0  0
    0.5908    2.3269   -1.0378 H   0  0  0  0  0  0  0  0  0  0  0  0
    0.4618    0.2282   -0.4111 C   0  0  1  0  0  0  0  0  0  0  0  0
    1.0493    0.0268   -1.3123 H   0  0  0  0  0  0  0  0  0  0  0  0
    1.3761   -0.0192    0.8180 C   0  0  0  0  0  0  0  0  0  0  0  0
    1.3192    0.6863    1.8196 O   0  0  0  0  0  0  0  0  0  0  0  0
    2.3596   -0.9873    0.7421 N   0  0  0  0  0  0  0  0  0  0  0  0
    2.1763   -1.7131    0.0465 H   0  0  0  0  0  0  0  0  0  0  0  0
    3.2122   -1.3315    1.8727 C   0  0  0  0  0  0  0  0  0  0  0  0
    2.6119   -1.7284    2.6979 H   0  0  0  0  0  0  0  0  0  0  0  0
    3.9422   -2.0906    1.5756 H   0  0  0  0  0  0  0  0  0  0  0  0
    3.7580   -0.4498    2.2252 H   0  0  0  0  0  0  0  0  0  0  0  0
  1  2  1  0  0  0  0
  2  3  1  0  0  0  0
  2  4  1  0  0  0  0
  2  5  1  0  0  0  0
  5  6  2  0  0  0  0
  5  7  1  0  0  0  0
  7  8  1  0  0  0  0
  7 17  1  0  0  0  0
  8  9  1  0  0  0  0
  8 10  1  0  0  0  0
  8 11  1  0  0  0  0
 11 12  1  0  0  0  0
 11 13  1  0  0  0  0
 11 14  1  0  0  0  0
 14 15  1  0  0  0  0
 14 16  1  0  0  0  0
 14 17  1  0  0  0  0
 17 18  1  0  0  0  0
 17 19  1  0  0  0  0
 19 20  2  0  0  0  0
 19 21  1  0  0  0  0
 21 22  1  0  0  0  0
 21 23  1  0  0  0  0
 23 24  1  0  0  0  0
 23 25  1  0  0  0  0
 23 26  1  0  0  0  0
M  END
$$$$

  -OEChem-01062216093D

 26 26  0     1  0  0  0  0  0999 V2000
   -1.7577   -3.8529   -0.3125 H   0  0  0  0  0  0  0  0  0  0  0  0
   -2.0011   -2.7953   -0.4467 C   0  0  0  0  0  0  0  0  0  0  0  0
   -2.6418   -2.4776    0.3795 H   0  0  0  0  0  0  0  0  0  0  0  0
   -2.5418   -2.6759   -1.3884 H   0  0  0  0  0  0  0  0  0  0  0  0
   -0.7273   -1.9635   -0.4661 C   0  0  0  0  0  0  0  0  0  0  0  0
    0.3518   -2.5411   -0.5138 O   0  0  0  0  0  0  0  0  0  0  0  0
   -0.7588   -0.5726   -0.4569 N   0  0  0  0  0  0  0  0  0  0  0  0
   -1.9728    0.2070   -0.6402 C   0  0  0  0  0  0  0  0  0  0  0  0
   -2.4834    0.3490    0.3184 H   0  0  0  0  0  0  0  0  0  0  0  0
   -2.6684   -0.2470   -1.3535 H   0  0  0  0  0  0  0  0  0  0  0  0
   -1.4438    1.5293   -1.1779 C   0  0  0  0  0  0  0  0  0  0  0  0
   -2.1122    2.3645   -0.9465 H   0  0  0  0  0  0  0  0  0  0  0  0
   -1.3192    1.4692   -2.2640 H   0  0  0  0  0  0  0  0  0  0  0  0
   -0.0859    1.6754   -0.5032 C   0  0  0  0  0  0  0  0  0  0  0  0
   -0.2269    2.0976    0.4975 H   0  0  0  0  0  0  0  0  0  0  0  0
    0.5819    2.3371   -1.0635 H   0  0  0  0  0  0  0  0  0  0  0  0
    0.4640    0.2409   -0.4329 C   0  0  1  0  0  0  0  0  0  0  0  0
    1.0489    0.0383   -1.3356 H   0  0  0  0  0  0  0  0  0  0  0  0
    1.3661   -0.0020    0.8033 C   0  0  0  0  0  0  0  0  0  0  0  0
    1.1172    0.5113    1.8891 O   0  0  0  0  0  0  0  0  0  0  0  0
    2.5293   -0.7347    0.6562 N   0  0  0  0  0  0  0  0  0  0  0  0
    2.5322   -1.3629   -0.1457 H   0  0  0  0  0  0  0  0  0  0  0  0
    3.3821   -1.0802    1.7866 C   0  0  0  0  0  0  0  0  0  0  0  0
    2.8457   -1.7305    2.4854 H   0  0  0  0  0  0  0  0  0  0  0  0
    4.2758   -1.6061    1.4370 H   0  0  0  0  0  0  0  0  0  0  0  0
    3.7013   -0.1778    2.3186 H   0  0  0  0  0  0  0  0  0  0  0  0
  1  2  1  0  0  0  0
  2  3  1  0  0  0  0
  2  4  1  0  0  0  0
  2  5  1  0  0  0  0
  5  6  2  0  0  0  0
  5  7  1  0  0  0  0
  7  8  1  0  0  0  0
  7 17  1  0  0  0  0
  8  9  1  0  0  0  0
  8 10  1  0  0  0  0
  8 11  1  0  0  0  0
 11 12  1  0  0  0  0
 11 13  1  0  0  0  0
 11 14  1  0  0  0  0
 14 15  1  0  0  0  0
 14 16  1  0  0  0  0
 14 17  1  0  0  0  0
 17 18  1  0  0  0  0
 17 19  1  0  0  0  0
 19 20  2  0  0  0  0
 19 21  1  0  0  0  0
 21 22  1  0  0  0  0
 21 23  1  0  0  0  0
 23 24  1  0  0  0  0
 23 25  1  0  0  0  0
 23 26  1  0  0  0  0
M  END
$$$$

  -OEChem-01062216093D

 26 26  0     1  0  0  0  0  0999 V2000
   -1.7507   -3.8546   -0.2906 H   0  0  0  0  0  0  0  0  0  0  0  0
   -1.9961   -2.7991   -0.4371 C   0  0  0  0  0  0  0  0  0  0  0  0
   -2.6360   -2.4729    0.3864 H   0  0  0  0  0  0  0  0  0  0  0  0
   -2.5387   -2.6917   -1.3792 H   0  0  0  0  0  0  0  0  0  0  0  0
   -0.7240   -1.9649   -0.4686 C   0  0  0  0  0  0  0  0  0  0  0  0
    0.3562   -2.5396   -0.5176 O   0  0  0  0  0  0  0  0  0  0  0  0
   -0.7583   -0.5746   -0.4735 N   0  0  0  0  0  0  0  0  0  0  0  0
   -1.9743    0.2045   -0.6416 C   0  0  0  0  0  0  0  0  0  0  0  0
   -2.4778    0.3379    0.3220 H   0  0  0  0  0  0  0  0  0  0  0  0
   -2.6740   -0.2451   -1.3534 H   0  0  0  0  0  0  0  0  0  0  0  0
   -1.4492    1.5318   -1.1716 C   0  0  0  0  0  0  0  0  0  0  0  0
   -2.1161    2.3644   -0.9273 H   0  0  0  0  0  0  0  0  0  0  0  0
   -1.3324    1.4815   -2.2590 H   0  0  0  0  0  0  0  0  0  0  0  0
   -0.0866    1.6724   -0.5045 C   0  0  0  0  0  0  0  0  0  0  0  0
   -0.2173    2.0823    0.5029 H   0  0  0  0  0  0  0  0  0  0  0  0
    0.5765    2.3398   -1.0634 H   0  0  0  0  0  0  0  0  0  0  0  0
    0.4634    0.2390   -0.4501 C   0  0  1  0  0  0  0  0  0  0  0  0
    1.0488    0.0375   -1.3525 H   0  0  0  0  0  0  0  0  0  0  0  0
    1.3572    0.0088    0.7927 C   0  0  0  0  0  0  0  0  0  0  0  0
    0.9626    0.3020    1.9167 O   0  0  0  0  0  0  0  0  0  0  0  0
    2.6551   -0.4408    0.6300 N   0  0  0  0  0  0  0  0  0  0  0  0
    2.8574   -0.8812   -0.2636 H   0  0  0  0  0  0  0  0  0  0  0  0
    3.5166   -0.7645    1.7603 C   0  0  0  0  0  0  0  0  0  0  0  0
    3.0910   -1.5894    2.3411 H   0  0  0  0  0  0  0  0  0  0  0  0
    4.5077   -1.0633    1.4059 H   0  0  0  0  0  0  0  0  0  0  0  0
    3.6341    0.1047    2.4160 H   0  0  0  0  0  0  0  0  0  0  0  0
  1  2  1  0  0  0  0
  2  3  1  0  0  0  0
  2  4  1  0  0  0  0
  2  5  1  0  0  0  0
  5  6  2  0  0  0  0
  5  7  1  0  0  0  0
  7  8  1  0  0  0  0
  7 17  1  0  0  0  0
  8  9  1  0  0  0  0
  8 10  1  0  0  0  0
  8 11  1  0  0  0  0
 11 12  1  0  0  0  0
 11 13  1  0  0  0  0
 11 14  1  0  0  0  0
 14 15  1  0  0  0  0
 14 16  1  0  0  0  0
 14 17  1  0  0  0  0
 17 18  1  0  0  0  0
 17 19  1  0  0  0  0
 19 20  2  0  0  0  0
 19 21  1  0  0  0  0
 21 22  1  0  0  0  0
 21 23  1  0  0  0  0
 23 24  1  0  0  0  0
 23 25  1  0  0  0  0
 23 26  1  0  0  0  0
M  END
$$$$

  -OEChem-01062216093D

 26 26  0     1  0  0  0  0  0999 V2000
   -1.7623   -3.8577   -0.2861 H   0  0  0  0  0  0  0  0  0  0  0  0
   -2.0054   -2.8017   -0.4329 C   0  0  0  0  0  0  0  0  0  0  0  0
   -2.6370   -2.4715    0.3955 H   0  0  0  0  0  0  0  0  0  0  0  0
   -2.5555   -2.6945   -1.3706 H   0  0  0  0  0  0  0  0  0  0  0  0
   -0.7303   -1.9723   -0.4765 C   0  0  0  0  0  0  0  0  0  0  0  0
    0.3471   -2.5509   -0.5336 O   0  0  0  0  0  0  0  0  0  0  0  0
   -0.7607   -0.5822   -0.4905 N   0  0  0  0  0  0  0  0  0  0  0  0
   -1.9752    0.2001   -0.6505 C   0  0  0  0  0  0  0  0  0  0  0  0
   -2.4785    0.3245    0.3144 H   0  0  0  0  0  0  0  0  0  0  0  0
   -2.6751   -0.2419   -1.3670 H   0  0  0  0  0  0  0  0  0  0  0  0
   -1.4474    1.5316   -1.1669 C   0  0  0  0  0  0  0  0  0  0  0  0
   -2.1124    2.3629   -0.9136 H   0  0  0  0  0  0  0  0  0  0  0  0
   -1.3312    1.4921   -2.2548 H   0  0  0  0  0  0  0  0  0  0  0  0
   -0.0844    1.6616   -0.4984 C   0  0  0  0  0  0  0  0  0  0  0  0
   -0.2123    2.0573    0.5156 H   0  0  0  0  0  0  0  0  0  0  0  0
    0.5794    2.3345   -1.0500 H   0  0  0  0  0  0  0  0  0  0  0  0
    0.4629    0.2282   -0.4583 C   0  0  1  0  0  0  0  0  0  0  0  0
    1.0532    0.0276   -1.3576 H   0  0  0  0  0  0  0  0  0  0  0  0
    1.3461    0.0078    0.7927 C   0  0  0  0  0  0  0  0  0  0  0  0
    0.8651    0.0788    1.9190 O   0  0  0  0  0  0  0  0  0  0  0  0
    2.7150   -0.1384    0.6535 N   0  0  0  0  0  0  0  0  0  0  0  0
    3.0518   -0.3543   -0.2800 H   0  0  0  0  0  0  0  0  0  0  0  0
    3.5947   -0.4089    1.7839 C   0  0  0  0  0  0  0  0  0  0  0  0
    3.3441   -1.3724    2.2401 H   0  0  0  0  0  0  0  0  0  0  0  0
    4.6368   -0.4412    1.4519 H   0  0  0  0  0  0  0  0  0  0  0  0
    3.5000    0.3758    2.5420 H   0  0  0  0  0  0  0  0  0  0  0  0
  1  2  1  0  0  0  0
  2  3  1  0  0  0  0
  2  4  1  0  0  0  0
  2  5  1  0  0  0  0
  5  6  2  0  0  0  0
  5  7  1  0  0  0  0
  7  8  1  0  0  0  0
  7 17  1  0  0  0  0
  8  9  1  0  0  0  0
  8 10  1  0  0  0  0
  8 11  1  0  0  0  0
 11 12  1  0  0  0  0
 11 13  1  0  0  0  0
 11 14  1  0  0  0  0
 14 15  1  0  0  0  0
 14 16  1  0  0  0  0
 14 17  1  0  0  0  0
 17 18  1  0  0  0  0
 17 19  1  0  0  0  0
 19 20  2  0  0  0  0
 19 21  1  0  0  0  0
 21 22  1  0  0  0  0
 21 23  1  0  0  0  0
 23 24  1  0  0  0  0
 23 25  1  0  0  0  0
 23 26  1  0  0  0  0
M  END
$$$$

  -OEChem-01062216093D

 26 26  0     1  0  0  0  0  0999 V2000
   -1.7727   -3.8620   -0.2844 H   0  0  0  0  0  0  0  0  0  0  0  0
   -2.0145   -2.8059   -0.4322 C   0  0  0  0  0  0  0  0  0  0  0  0
   -2.6353   -2.4709    0.4023 H   0  0  0  0  0  0  0  0  0  0  0  0
   -2.5747   -2.6998   -1.3637 H   0  0  0  0  0  0  0  0  0  0  0  0
   -0.7377   -1.9806   -0.4927 C   0  0  0  0  0  0  0  0  0  0  0  0
    0.3363   -2.5629   -0.5705 O   0  0  0  0  0  0  0  0  0  0  0  0
   -0.7646   -0.5903   -0.5055 N   0  0  0  0  0  0  0  0  0  0  0  0
   -1.9768    0.1956   -0.6623 C   0  0  0  0  0  0  0  0  0  0  0  0
   -2.4851    0.3103    0.3012 H   0  0  0  0  0  0  0  0  0  0  0  0
   -2.6735   -0.2372   -1.3877 H   0  0  0  0  0  0  0  0  0  0  0  0
   -1.4422    1.5312   -1.1607 C   0  0  0  0  0  0  0  0  0  0  0  0
   -2.1055    2.3619   -0.9009 H   0  0  0  0  0  0  0  0  0  0  0  0
   -1.3215    1.5038   -2.2486 H   0  0  0  0  0  0  0  0  0  0  0  0
   -0.0815    1.6482   -0.4850 C   0  0  0  0  0  0  0  0  0  0  0  0
   -0.2118    2.0295    0.5344 H   0  0  0  0  0  0  0  0  0  0  0  0
    0.5863    2.3261   -1.0252 H   0  0  0  0  0  0  0  0  0  0  0  0
    0.4624    0.2143   -0.4585 C   0  0  1  0  0  0  0  0  0  0  0  0
    1.0590    0.0162   -1.3542 H   0  0  0  0  0  0  0  0  0  0  0  0
    1.3380   -0.0036    0.7983 C   0  0  0  0  0  0  0  0  0  0  0  0
    0.8247   -0.1572    1.9018 O   0  0  0  0  0  0  0  0  0  0  0  0
    2.7102    0.1574    0.7162 N   0  0  0  0  0  0  0  0  0  0  0  0
    3.1144    0.1814   -0.2147 H   0  0  0  0  0  0  0  0  0  0  0  0
    3.5977   -0.0439    1.8552 C   0  0  0  0  0  0  0  0  0  0  0  0
    3.5345   -1.0777    2.2107 H   0  0  0  0  0  0  0  0  0  0  0  0
    4.6332    0.1626    1.5689 H   0  0  0  0  0  0  0  0  0  0  0  0
    3.3276    0.6284    2.6763 H   0  0  0  0  0  0  0  0  0  0  0  0
  1  2  1  0  0  0  0
  2  3  1  0  0  0  0
  2  4  1  0  0  0  0
  2  5  1  0  0  0  0
  5  6  2  0  0  0  0
  5  7  1  0  0  0  0
  7  8  1  0  0  0  0
  7 17  1  0  0  0  0
  8  9  1  0  0  0  0
  8 10  1  0  0  0  0
  8 11  1  0  0  0  0
 11 12  1  0  0  0  0
 11 13  1  0  0  0  0
 11 14  1  0  0  0  0
 14 15  1  0  0  0  0
 14 16  1  0  0  0  0
 14 17  1  0  0  0  0
 17 18  1  0  0  0  0
 17 19  1  0  0  0  0
 19 20  2  0  0  0  0
 19 21  1  0  0  0  0
 21 22  1  0  0  0  0
 21 23  1  0  0  0  0
 23 24  1  0  0  0  0
 23 25  1  0  0  0  0
 23 26  1  0  0  0  0
M  END
$$$$

  -OEChem-01062216093D

 26 26  0     1  0  0  0  0  0999 V2000
   -1.7896   -3.8682   -0.3023 H   0  0  0  0  0  0  0  0  0  0  0  0
   -2.0277   -2.8098   -0.4395 C   0  0  0  0  0  0  0  0  0  0  0  0
   -2.6380   -2.4780    0.4039 H   0  0  0  0  0  0  0  0  0  0  0  0
   -2.5969   -2.6938   -1.3645 H   0  0  0  0  0  0  0  0  0  0  0  0
   -0.7470   -1.9911   -0.5068 C   0  0  0  0  0  0  0  0  0  0  0  0
    0.3216   -2.5795   -0.6090 O   0  0  0  0  0  0  0  0  0  0  0  0
   -0.7670   -0.6002   -0.5136 N   0  0  0  0  0  0  0  0  0  0  0  0
   -1.9758    0.1902   -0.6706 C   0  0  0  0  0  0  0  0  0  0  0  0
   -2.4908    0.2968    0.2903 H   0  0  0  0  0  0  0  0  0  0  0  0
   -2.6681   -0.2341   -1.4051 H   0  0  0  0  0  0  0  0  0  0  0  0
   -1.4338    1.5285   -1.1528 C   0  0  0  0  0  0  0  0  0  0  0  0
   -2.0957    2.3591   -0.8889 H   0  0  0  0  0  0  0  0  0  0  0  0
   -1.3065    1.5113   -2.2403 H   0  0  0  0  0  0  0  0  0  0  0  0
   -0.0765    1.6333   -0.4682 C   0  0  0  0  0  0  0  0  0  0  0  0
   -0.2115    2.0031    0.5548 H   0  0  0  0  0  0  0  0  0  0  0  0
    0.5960    2.3158   -0.9969 H   0  0  0  0  0  0  0  0  0  0  0  0
    0.4645    0.1976   -0.4517 C   0  0  1  0  0  0  0  0  0  0  0  0
    1.0665    0.0035   -1.3446 H   0  0  0  0  0  0  0  0  0  0  0  0
    1.3371   -0.0207    0.8077 C   0  0  0  0  0  0  0  0  0  0  0  0
    0.8430   -0.3989    1.8646 O   0  0  0  0  0  0  0  0  0  0  0  0
    2.6449    0.4332    0.8141 N   0  0  0  0  0  0  0  0  0  0  0  0
    3.0486    0.6971   -0.0790 H   0  0  0  0  0  0  0  0  0  0  0  0
    3.5243    0.3073    1.9701 C   0  0  0  0  0  0  0  0  0  0  0  0
    3.6547   -0.7463    2.2390 H   0  0  0  0  0  0  0  0  0  0  0  0
    4.5073    0.7322    1.7456 H   0  0  0  0  0  0  0  0  0  0  0  0
    3.1063    0.8418    2.8297 H   0  0  0  0  0  0  0  0  0  0  0  0
  1  2  1  0  0  0  0
  2  3  1  0  0  0  0
  2  4  1  0  0  0  0
  2  5  1  0  0  0  0
  5  6  2  0  0  0  0
  5  7  1  0  0  0  0
  7  8  1  0  0  0  0
  7 17  1  0  0  0  0
  8  9  1  0  0  0  0
  8 10  1  0  0  0  0
  8 11  1  0  0  0  0
 11 12  1  0  0  0  0
 11 13  1  0  0  0  0
 11 14  1  0  0  0  0
 14 15  1  0  0  0  0
 14 16  1  0  0  0  0
 14 17  1  0  0  0  0
 17 18  1  0  0  0  0
 17 19  1  0  0  0  0
 19 20  2  0  0  0  0
 19 21  1  0  0  0  0
 21 22  1  0  0  0  0
 21 23  1  0  0  0  0
 23 24  1  0  0  0  0
 23 25  1  0  0  0  0
 23 26  1  0  0  0  0
M  END
$$$$

  -OEChem-01062216093D

 26 26  0     1  0  0  0  0  0999 V2000
   -1.8134   -3.8645   -0.5117 H   0  0  0  0  0  0  0  0  0  0  0  0
   -2.0361   -2.7945   -0.4767 C   0  0  0  0  0  0  0  0  0  0  0  0
   -2.4667   -2.5604    0.4998 H   0  0  0  0  0  0  0  0  0  0  0  0
   -2.7632   -2.5612   -1.2575 H   0  0  0  0  0  0  0  0  0  0  0  0
   -0.7626   -1.9886   -0.6879 C   0  0  0  0  0  0  0  0  0  0  0  0
    0.2537   -2.5793   -1.0281 O   0  0  0  0  0  0  0  0  0  0  0  0
   -0.7569   -0.5973   -0.6333 N   0  0  0  0  0  0  0  0  0  0  0  0
   -1.9671    0.1904   -0.4724 C   0  0  0  0  0  0  0  0  0  0  0  0
   -2.3847    0.0538    0.5310 H   0  0  0  0  0  0  0  0  0  0  0  0
   -2.7300   -0.0584   -1.2174 H   0  0  0  0  0  0  0  0  0  0  0  0
   -1.4696    1.6152   -0.6602 C   0  0  0  0  0  0  0  0  0  0  0  0
   -2.0985    2.3432   -0.1385 H   0  0  0  0  0  0  0  0  0  0  0  0
   -1.4492    1.8670   -1.7256 H   0  0  0  0  0  0  0  0  0  0  0  0
   -0.0526    1.5727   -0.1049 C   0  0  0  0  0  0  0  0  0  0  0  0
   -0.0858    1.6754    0.9860 H   0  0  0  0  0  0  0  0  0  0  0  0
    0.5677    2.3779   -0.5104 H   0  0  0  0  0  0  0  0  0  0  0  0
    0.4820    0.1870   -0.4945 C   0  0  1  0  0  0  0  0  0  0  0  0
    0.9779    0.2291   -1.4690 H   0  0  0  0  0  0  0  0  0  0  0  0
    1.5170   -0.2875    0.5598 C   0  0  0  0  0  0  0  0  0  0  0  0
    1.2049   -1.0564    1.4625 O   0  0  0  0  0  0  0  0  0  0  0  0
    2.6943    0.4275    0.7095 N   0  0  0  0  0  0  0  0  0  0  0  0
    2.9441    1.0742   -0.0317 H   0  0  0  0  0  0  0  0  0  0  0  0
    3.6681    0.1556    1.7606 C   0  0  0  0  0  0  0  0  0  0  0  0
    4.0405   -0.8713    1.6811 H   0  0  0  0  0  0  0  0  0  0  0  0
    4.5177    0.8398    1.6753 H   0  0  0  0  0  0  0  0  0  0  0  0
    3.2149    0.2910    2.7483 H   0  0  0  0  0  0  0  0  0  0  0  0
  1  2  1  0  0  0  0
  2  3  1  0  0  0  0
  2  4  1  0  0  0  0
  2  5  1  0  0  0  0
  5  6  2  0  0  0  0
  5  7  1  0  0  0  0
  7  8  1  0  0  0  0
  7 17  1  0  0  0  0
  8  9  1  0  0  0  0
  8 10  1  0  0  0  0
  8 11  1  0  0  0  0
 11 12  1  0  0  0  0
 11 13  1  0  0  0  0
 11 14  1  0  0  0  0
 14 15  1  0  0  0  0
 14 16  1  0  0  0  0
 14 17  1  0  0  0  0
 17 18  1  0  0  0  0
 17 19  1  0  0  0  0
 19 20  2  0  0  0  0
 19 21  1  0  0  0  0
 21 22  1  0  0  0  0
 21 23  1  0  0  0  0
 23 24  1  0  0  0  0
 23 25  1  0  0  0  0
 23 26  1  0  0  0  0
M  END
$$$$

  -OEChem-01062216093D

 26 26  0     1  0  0  0  0  0999 V2000
   -1.8197   -3.8643   -0.5029 H   0  0  0  0  0  0  0  0  0  0  0  0
   -2.0387   -2.7937   -0.4649 C   0  0  0  0  0  0  0  0  0  0  0  0
   -2.4476   -2.5573    0.5202 H   0  0  0  0  0  0  0  0  0  0  0  0
   -2.7820   -2.5592   -1.2301 H   0  0  0  0  0  0  0  0  0  0  0  0
   -0.7670   -1.9924   -0.7044 C   0  0  0  0  0  0  0  0  0  0  0  0
    0.2273   -2.5822   -1.1046 O   0  0  0  0  0  0  0  0  0  0  0  0
   -0.7516   -0.6014   -0.6343 N   0  0  0  0  0  0  0  0  0  0  0  0
   -1.9626    0.1866   -0.4817 C   0  0  0  0  0  0  0  0  0  0  0  0
   -2.3862    0.0503    0.5193 H   0  0  0  0  0  0  0  0  0  0  0  0
   -2.7212   -0.0630   -1.2311 H   0  0  0  0  0  0  0  0  0  0  0  0
   -1.4664    1.6115   -0.6671 C   0  0  0  0  0  0  0  0  0  0  0  0
   -2.0998    2.3388   -0.1499 H   0  0  0  0  0  0  0  0  0  0  0  0
   -1.4379    1.8631   -1.7324 H   0  0  0  0  0  0  0  0  0  0  0  0
   -0.0541    1.5679   -0.1012 C   0  0  0  0  0  0  0  0  0  0  0  0
   -0.0979    1.6713    0.9892 H   0  0  0  0  0  0  0  0  0  0  0  0
    0.5679    2.3739   -0.5025 H   0  0  0  0  0  0  0  0  0  0  0  0
    0.4884    0.1818   -0.4853 C   0  0  1  0  0  0  0  0  0  0  0  0
    0.9853    0.2269   -1.4591 H   0  0  0  0  0  0  0  0  0  0  0  0
    1.5382   -0.2858    0.5633 C   0  0  0  0  0  0  0  0  0  0  0  0
    1.3424   -1.2404    1.3058 O   0  0  0  0  0  0  0  0  0  0  0  0
    2.5470    0.5908    0.9331 N   0  0  0  0  0  0  0  0  0  0  0  0
    2.6899    1.4104    0.3519 H   0  0  0  0  0  0  0  0  0  0  0  0
    3.4861    0.3280    2.0181 C   0  0  0  0  0  0  0  0  0  0  0  0
    4.0447   -0.5941    1.8253 H   0  0  0  0  0  0  0  0  0  0  0  0
    4.1996    1.1526    2.1085 H   0  0  0  0  0  0  0  0  0  0  0  0
    2.9547    0.2262    2.9702 H   0  0  0  0  0  0  0  0  0  0  0  0
  1  2  1  0  0  0  0
  2  3  1  0  0  0  0
  2  4  1  0  0  0  0
  2  5  1  0  0  0  0
  5  6  2  0  0  0  0
  5  7  1  0  0  0  0
  7  8  1  0  0  0  0
  7 17  1  0  0  0  0
  8  9  1  0  0  0  0
  8 10  1  0  0  0  0
  8 11  1  0  0  0  0
 11 12  1  0  0  0  0
 11 13  1  0  0  0  0
 11 14  1  0  0  0  0
 14 15  1  0  0  0  0
 14 16  1  0  0  0  0
 14 17  1  0  0  0  0
 17 18  1  0  0  0  0
 17 19  1  0  0  0  0
 19 20  2  0  0  0  0
 19 21  1  0  0  0  0
 21 22  1  0  0  0  0
 21 23  1  0  0  0  0
 23 24  1  0  0  0  0
 23 25  1  0  0  0  0
 23 26  1  0  0  0  0
M  END
$$$$

  -OEChem-01062216093D

 26 26  0     1  0  0  0  0  0999 V2000
   -1.8150   -3.8619   -0.4735 H   0  0  0  0  0  0  0  0  0  0  0  0
   -2.0356   -2.7913   -0.4426 C   0  0  0  0  0  0  0  0  0  0  0  0
   -2.4284   -2.5462    0.5470 H   0  0  0  0  0  0  0  0  0  0  0  0
   -2.7915   -2.5655   -1.1980 H   0  0  0  0  0  0  0  0  0  0  0  0
   -0.7691   -1.9912   -0.7113 C   0  0  0  0  0  0  0  0  0  0  0  0
    0.2000   -2.5789   -1.1697 O   0  0  0  0  0  0  0  0  0  0  0  0
   -0.7474   -0.6010   -0.6252 N   0  0  0  0  0  0  0  0  0  0  0  0
   -1.9642    0.1840   -0.5018 C   0  0  0  0  0  0  0  0  0  0  0  0
   -2.4057    0.0566    0.4926 H   0  0  0  0  0  0  0  0  0  0  0  0
   -2.7081   -0.0763   -1.2622 H   0  0  0  0  0  0  0  0  0  0  0  0
   -1.4727    1.6089   -0.6937 C   0  0  0  0  0  0  0  0  0  0  0  0
   -2.1184    2.3395   -0.1966 H   0  0  0  0  0  0  0  0  0  0  0  0
   -1.4264    1.8480   -1.7613 H   0  0  0  0  0  0  0  0  0  0  0  0
   -0.0710    1.5778   -0.1035 C   0  0  0  0  0  0  0  0  0  0  0  0
   -0.1414    1.6924    0.9841 H   0  0  0  0  0  0  0  0  0  0  0  0
    0.5534    2.3842   -0.5007 H   0  0  0  0  0  0  0  0  0  0  0  0
    0.4885    0.1895   -0.4633 C   0  0  1  0  0  0  0  0  0  0  0  0
    0.9895    0.2339   -1.4351 H   0  0  0  0  0  0  0  0  0  0  0  0
    1.5533   -0.2648    0.5822 C   0  0  0  0  0  0  0  0  0  0  0  0
    1.5510   -1.3728    1.1007 O   0  0  0  0  0  0  0  0  0  0  0  0
    2.3537    0.6907    1.1921 N   0  0  0  0  0  0  0  0  0  0  0  0
    2.3340    1.6299    0.8088 H   0  0  0  0  0  0  0  0  0  0  0  0
    3.2797    0.3973    2.2808 C   0  0  0  0  0  0  0  0  0  0  0  0
    4.0151   -0.3514    1.9676 H   0  0  0  0  0  0  0  0  0  0  0  0
    3.8151    1.3046    2.5766 H   0  0  0  0  0  0  0  0  0  0  0  0
    2.7378    0.0161    3.1529 H   0  0  0  0  0  0  0  0  0  0  0  0
  1  2  1  0  0  0  0
  2  3  1  0  0  0  0
  2  4  1  0  0  0  0
  2  5  1  0  0  0  0
  5  6  2  0  0  0  0
  5  7  1  0  0  0  0
  7  8  1  0  0  0  0
  7 17  1  0  0  0  0
  8  9  1  0  0  0  0
  8 10  1  0  0  0  0
  8 11  1  0  0  0  0
 11 12  1  0  0  0  0
 11 13  1  0  0  0  0
 11 14  1  0  0  0  0
 14 15  1  0  0  0  0
 14 16  1  0  0  0  0
 14 17  1  0  0  0  0
 17 18  1  0  0  0  0
 17 19  1  0  0  0  0
 19 20  2  0  0  0  0
 19 21  1  0  0  0  0
 21 22  1  0  0  0  0
 21 23  1  0  0  0  0
 23 24  1  0  0  0  0
 23 25  1  0  0  0  0
 23 26  1  0  0  0  0
M  END
$$$$

  -OEChem-01062216093D

 26 26  0     1  0  0  0  0  0999 V2000
   -1.8425   -3.8552   -0.4486 H   0  0  0  0  0  0  0  0  0  0  0  0
   -2.0566   -2.7828   -0.4395 C   0  0  0  0  0  0  0  0  0  0  0  0
   -2.4723   -2.5205    0.5360 H   0  0  0  0  0  0  0  0  0  0  0  0
   -2.7925   -2.5652   -1.2167 H   0  0  0  0  0  0  0  0  0  0  0  0
   -0.7782   -1.9949   -0.6909 C   0  0  0  0  0  0  0  0  0  0  0  0
    0.1814   -2.5977   -1.1437 O   0  0  0  0  0  0  0  0  0  0  0  0
   -0.7459   -0.6047   -0.5975 N   0  0  0  0  0  0  0  0  0  0  0  0
   -1.9683    0.1796   -0.5275 C   0  0  0  0  0  0  0  0  0  0  0  0
   -2.4391    0.0727    0.4557 H   0  0  0  0  0  0  0  0  0  0  0  0
   -2.6891   -0.1003   -1.3032 H   0  0  0  0  0  0  0  0  0  0  0  0
   -1.4803    1.6022   -0.7391 C   0  0  0  0  0  0  0  0  0  0  0  0
   -2.1446    2.3398   -0.2781 H   0  0  0  0  0  0  0  0  0  0  0  0
   -1.4048    1.8164   -1.8105 H   0  0  0  0  0  0  0  0  0  0  0  0
   -0.0968    1.5945   -0.1086 C   0  0  0  0  0  0  0  0  0  0  0  0
   -0.2084    1.7372    0.9717 H   0  0  0  0  0  0  0  0  0  0  0  0
    0.5357    2.3948   -0.5061 H   0  0  0  0  0  0  0  0  0  0  0  0
    0.4812    0.2003   -0.4195 C   0  0  1  0  0  0  0  0  0  0  0  0
    0.9964    0.2336   -1.3847 H   0  0  0  0  0  0  0  0  0  0  0  0
    1.5486   -0.2360    0.6338 C   0  0  0  0  0  0  0  0  0  0  0  0
    1.8491   -1.4000    0.8474 O   0  0  0  0  0  0  0  0  0  0  0  0
    2.1158    0.7049    1.4822 N   0  0  0  0  0  0  0  0  0  0  0  0
    1.8745    1.6781    1.3287 H   0  0  0  0  0  0  0  0  0  0  0  0
    3.0810    0.3787    2.5270 C   0  0  0  0  0  0  0  0  0  0  0  0
    3.9772   -0.0763    2.0921 H   0  0  0  0  0  0  0  0  0  0  0  0
    3.3788    1.2848    3.0631 H   0  0  0  0  0  0  0  0  0  0  0  0
    2.6446   -0.3209    3.2478 H   0  0  0  0  0  0  0  0  0  0  0  0
  1  2  1  0  0  0  0
  2  3  1  0  0  0  0
  2  4  1  0  0  0  0
  2  5  1  0  0  0  0
  5  6  2  0  0  0  0
  5  7  1  0  0  0  0
  7  8  1  0  0  0  0
  7 17  1  0  0  0  0
  8  9  1  0  0  0  0
  8 10  1  0  0  0  0
  8 11  1  0  0  0  0
 11 12  1  0  0  0  0
 11 13  1  0  0  0  0
 11 14  1  0  0  0  0
 14 15  1  0  0  0  0
 14 16  1  0  0  0  0
 14 17  1  0  0  0  0
 17 18  1  0  0  0  0
 17 19  1  0  0  0  0
 19 20  2  0  0  0  0
 19 21  1  0  0  0  0
 21 22  1  0  0  0  0
 21 23  1  0  0  0  0
 23 24  1  0  0  0  0
 23 25  1  0  0  0  0
 23 26  1  0  0  0  0
M  END
$$$$

  -OEChem-01062216093D

 26 26  0     1  0  0  0  0  0999 V2000
   -1.9576   -3.8473   -0.5199 H   0  0  0  0  0  0  0  0  0  0  0  0
   -2.1390   -2.7689   -0.5419 C   0  0  0  0  0  0  0  0  0  0  0  0
   -2.6847   -2.4911    0.3628 H   0  0  0  0  0  0  0  0  0  0  0  0
   -2.7485   -2.5360   -1.4180 H   0  0  0  0  0  0  0  0  0  0  0  0
   -0.8155   -2.0169   -0.6078 C   0  0  0  0  0  0  0  0  0  0  0  0
    0.1865   -2.6750   -0.8178 O   0  0  0  0  0  0  0  0  0  0  0  0
   -0.7641   -0.6256   -0.5205 N   0  0  0  0  0  0  0  0  0  0  0  0
   -1.9812    0.1737   -0.5260 C   0  0  0  0  0  0  0  0  0  0  0  0
   -2.4865    0.1095    0.4436 H   0  0  0  0  0  0  0  0  0  0  0  0
   -2.6790   -0.1272   -1.3145 H   0  0  0  0  0  0  0  0  0  0  0  0
   -1.4753    1.5824   -0.7772 C   0  0  0  0  0  0  0  0  0  0  0  0
   -2.1503    2.3416   -0.3701 H   0  0  0  0  0  0  0  0  0  0  0  0
   -1.3633    1.7529   -1.8533 H   0  0  0  0  0  0  0  0  0  0  0  0
   -0.1130    1.5979   -0.1025 C   0  0  0  0  0  0  0  0  0  0  0  0
   -0.2623    1.7910    0.9641 H   0  0  0  0  0  0  0  0  0  0  0  0
    0.5399    2.3752   -0.5128 H   0  0  0  0  0  0  0  0  0  0  0  0
    0.4595    0.1881   -0.3392 C   0  0  1  0  0  0  0  0  0  0  0  0
    0.9877    0.1885   -1.2981 H   0  0  0  0  0  0  0  0  0  0  0  0
    1.5208   -0.2383    0.7203 C   0  0  0  0  0  0  0  0  0  0  0  0
    2.2398   -1.2121    0.5610 O   0  0  0  0  0  0  0  0  0  0  0  0
    1.8580    0.6018    1.7724 N   0  0  0  0  0  0  0  0  0  0  0  0
    1.3162    1.4510    1.8875 H   0  0  0  0  0  0  0  0  0  0  0  0
    2.9288    0.3196    2.7225 C   0  0  0  0  0  0  0  0  0  0  0  0
    3.8921    0.2541    2.2059 H   0  0  0  0  0  0  0  0  0  0  0  0
    2.9912    1.1162    3.4699 H   0  0  0  0  0  0  0  0  0  0  0  0
    2.7418   -0.6270    3.2406 H   0  0  0  0  0  0  0  0  0  0  0  0
  1  2  1  0  0  0  0
  2  3  1  0  0  0  0
  2  4  1  0  0  0  0
  2  5  1  0  0  0  0
  5  6  2  0  0  0  0
  5  7  1  0  0  0  0
  7  8  1  0  0  0  0
  7 17  1  0  0  0  0
  8  9  1  0  0  0  0
  8 10  1  0  0  0  0
  8 11  1  0  0  0  0
 11 12  1  0  0  0  0
 11 13  1  0  0  0  0
 11 14  1  0  0  0  0
 14 15  1  0  0  0  0
 14 16  1  0  0  0  0
 14 17  1  0  0  0  0
 17 18  1  0  0  0  0
 17 19  1  0  0  0  0
 19 20  2  0  0  0  0
 19 21  1  0  0  0  0
 21 22  1  0  0  0  0
 21 23  1  0  0  0  0
 23 24  1  0  0  0  0
 23 25  1  0  0  0  0
 23 26  1  0  0  0  0
M  END
$$$$

  -OEChem-01062216093D

 26 26  0     1  0  0  0  0  0999 V2000
   -1.9663   -3.8458   -0.5648 H   0  0  0  0  0  0  0  0  0  0  0  0
   -2.1466   -2.7677   -0.6035 C   0  0  0  0  0  0  0  0  0  0  0  0
   -2.7737   -2.4903    0.2469 H   0  0  0  0  0  0  0  0  0  0  0  0
   -2.6731   -2.5358   -1.5322 H   0  0  0  0  0  0  0  0  0  0  0  0
   -0.8239   -2.0138   -0.5496 C   0  0  0  0  0  0  0  0  0  0  0  0
    0.1973   -2.6748   -0.5910 O   0  0  0  0  0  0  0  0  0  0  0  0
   -0.7806   -0.6218   -0.4772 N   0  0  0  0  0  0  0  0  0  0  0  0
   -1.9936    0.1841   -0.5030 C   0  0  0  0  0  0  0  0  0  0  0  0
   -2.4998    0.1455    0.4676 H   0  0  0  0  0  0  0  0  0  0  0  0
   -2.6929   -0.1295   -1.2852 H   0  0  0  0  0  0  0  0  0  0  0  0
   -1.4753    1.5829   -0.7870 C   0  0  0  0  0  0  0  0  0  0  0  0
   -2.1453    2.3567   -0.3993 H   0  0  0  0  0  0  0  0  0  0  0  0
   -1.3626    1.7261   -1.8671 H   0  0  0  0  0  0  0  0  0  0  0  0
   -0.1101    1.6110   -0.1148 C   0  0  0  0  0  0  0  0  0  0  0  0
   -0.2475    1.8390    0.9458 H   0  0  0  0  0  0  0  0  0  0  0  0
    0.5481    2.3691   -0.5514 H   0  0  0  0  0  0  0  0  0  0  0  0
    0.4443    0.1914   -0.3208 C   0  0  1  0  0  0  0  0  0  0  0  0
    0.9628    0.1704   -1.2853 H   0  0  0  0  0  0  0  0  0  0  0  0
    1.5033   -0.2469    0.7299 C   0  0  0  0  0  0  0  0  0  0  0  0
    2.4312   -0.9735    0.4035 O   0  0  0  0  0  0  0  0  0  0  0  0
    1.6396    0.4253    1.9355 N   0  0  0  0  0  0  0  0  0  0  0  0
    0.8821    1.0395    2.2132 H   0  0  0  0  0  0  0  0  0  0  0  0
    2.7049    0.1502    2.8934 C   0  0  0  0  0  0  0  0  0  0  0  0
    3.6844    0.3450    2.4440 H   0  0  0  0  0  0  0  0  0  0  0  0
    2.5964    0.7905    3.7740 H   0  0  0  0  0  0  0  0  0  0  0  0
    2.6675   -0.8952    3.2177 H   0  0  0  0  0  0  0  0  0  0  0  0
  1  2  1  0  0  0  0
  2  3  1  0  0  0  0
  2  4  1  0  0  0  0
  2  5  1  0  0  0  0
  5  6  2  0  0  0  0
  5  7  1  0  0  0  0
  7  8  1  0  0  0  0
  7 17  1  0  0  0  0
  8  9  1  0  0  0  0
  8 10  1  0  0  0  0
  8 11  1  0  0  0  0
 11 12  1  0  0  0  0
 11 13  1  0  0  0  0
 11 14  1  0  0  0  0
 14 15  1  0  0  0  0
 14 16  1  0  0  0  0
 14 17  1  0  0  0  0
 17 18  1  0  0  0  0
 17 19  1  0  0  0  0
 19 20  2  0  0  0  0
 19 21  1  0  0  0  0
 21 22  1  0  0  0  0
 21 23  1  0  0  0  0
 23 24  1  0  0  0  0
 23 25  1  0  0  0  0
 23 26  1  0  0  0  0
M  END
$$$$

  -OEChem-01062216093D

 26 26  0     1  0  0  0  0  0999 V2000
   -1.9425   -3.8456   -0.5837 H   0  0  0  0  0  0  0  0  0  0  0  0
   -2.1300   -2.7685   -0.6141 C   0  0  0  0  0  0  0  0  0  0  0  0
   -2.7685   -2.5021    0.2313 H   0  0  0  0  0  0  0  0  0  0  0  0
   -2.6476   -2.5317   -1.5466 H   0  0  0  0  0  0  0  0  0  0  0  0
   -0.8143   -2.0052   -0.5386 C   0  0  0  0  0  0  0  0  0  0  0  0
    0.2162   -2.6548   -0.5328 O   0  0  0  0  0  0  0  0  0  0  0  0
   -0.7810   -0.6129   -0.4779 N   0  0  0  0  0  0  0  0  0  0  0  0
   -1.9938    0.1934   -0.4898 C   0  0  0  0  0  0  0  0  0  0  0  0
   -2.4896    0.1550    0.4861 H   0  0  0  0  0  0  0  0  0  0  0  0
   -2.7016   -0.1188   -1.2648 H   0  0  0  0  0  0  0  0  0  0  0  0
   -1.4736    1.5914   -0.7785 C   0  0  0  0  0  0  0  0  0  0  0  0
   -2.1372    2.3669   -0.3834 H   0  0  0  0  0  0  0  0  0  0  0  0
   -1.3731    1.7346   -1.8597 H   0  0  0  0  0  0  0  0  0  0  0  0
   -0.0997    1.6192   -0.1221 C   0  0  0  0  0  0  0  0  0  0  0  0
   -0.2152    1.8507    0.9405 H   0  0  0  0  0  0  0  0  0  0  0  0
    0.5547    2.3735   -0.5711 H   0  0  0  0  0  0  0  0  0  0  0  0
    0.4444    0.1989   -0.3365 C   0  0  1  0  0  0  0  0  0  0  0  0
    0.9570    0.1755   -1.3043 H   0  0  0  0  0  0  0  0  0  0  0  0
    1.4946   -0.2504    0.7131 C   0  0  0  0  0  0  0  0  0  0  0  0
    2.5438   -0.7605    0.3434 O   0  0  0  0  0  0  0  0  0  0  0  0
    1.4352    0.2073    2.0201 N   0  0  0  0  0  0  0  0  0  0  0  0
    0.5535    0.6040    2.3273 H   0  0  0  0  0  0  0  0  0  0  0  0
    2.4512   -0.0994    3.0201 C   0  0  0  0  0  0  0  0  0  0  0  0
    3.4264    0.2892    2.7082 H   0  0  0  0  0  0  0  0  0  0  0  0
    2.1889    0.3586    3.9785 H   0  0  0  0  0  0  0  0  0  0  0  0
    2.5327   -1.1821    3.1631 H   0  0  0  0  0  0  0  0  0  0  0  0
  1  2  1  0  0  0  0
  2  3  1  0  0  0  0
  2  4  1  0  0  0  0
  2  5  1  0  0  0  0
  5  6  2  0  0  0  0
  5  7  1  0  0  0  0
  7  8  1  0  0  0  0
  7 17  1  0  0  0  0
  8  9  1  0  0  0  0
  8 10  1  0  0  0  0
  8 11  1  0  0  0  0
 11 12  1  0  0  0  0
 11 13  1  0  0  0  0
 11 14  1  0  0  0  0
 14 15  1  0  0  0  0
 14 16  1  0  0  0  0
 14 17  1  0  0  0  0
 17 18  1  0  0  0  0
 17 19  1  0  0  0  0
 19 20  2  0  0  0  0
 19 21  1  0  0  0  0
 21 22  1  0  0  0  0
 21 23  1  0  0  0  0
 23 24  1  0  0  0  0
 23 25  1  0  0  0  0
 23 26  1  0  0  0  0
M  END
$$$$

  -OEChem-01062216093D

 26 26  0     1  0  0  0  0  0999 V2000
   -1.9279   -3.8456   -0.5969 H   0  0  0  0  0  0  0  0  0  0  0  0
   -2.1193   -2.7689   -0.6191 C   0  0  0  0  0  0  0  0  0  0  0  0
   -2.7589   -2.5110    0.2280 H   0  0  0  0  0  0  0  0  0  0  0  0
   -2.6382   -2.5272   -1.5496 H   0  0  0  0  0  0  0  0  0  0  0  0
   -0.8070   -2.0009   -0.5386 C   0  0  0  0  0  0  0  0  0  0  0  0
    0.2291   -2.6429   -0.5159 O   0  0  0  0  0  0  0  0  0  0  0  0
   -0.7784   -0.6087   -0.4882 N   0  0  0  0  0  0  0  0  0  0  0  0
   -1.9903    0.1988   -0.4784 C   0  0  0  0  0  0  0  0  0  0  0  0
   -2.4751    0.1526    0.5027 H   0  0  0  0  0  0  0  0  0  0  0  0
   -2.7072   -0.1055   -1.2481 H   0  0  0  0  0  0  0  0  0  0  0  0
   -1.4691    1.5983   -0.7598 C   0  0  0  0  0  0  0  0  0  0  0  0
   -2.1254    2.3716   -0.3487 H   0  0  0  0  0  0  0  0  0  0  0  0
   -1.3821    1.7520   -1.8407 H   0  0  0  0  0  0  0  0  0  0  0  0
   -0.0863    1.6177   -0.1206 C   0  0  0  0  0  0  0  0  0  0  0  0
   -0.1803    1.8372    0.9472 H   0  0  0  0  0  0  0  0  0  0  0  0
    0.5644    2.3738   -0.5720 H   0  0  0  0  0  0  0  0  0  0  0  0
    0.4491    0.1994   -0.3554 C   0  0  1  0  0  0  0  0  0  0  0  0
    0.9578    0.1785   -1.3252 H   0  0  0  0  0  0  0  0  0  0  0  0
    1.4914   -0.2541    0.6953 C   0  0  0  0  0  0  0  0  0  0  0  0
    2.6286   -0.5351    0.3401 O   0  0  0  0  0  0  0  0  0  0  0  0
    1.2608   -0.0467    2.0454 N   0  0  0  0  0  0  0  0  0  0  0  0
    0.3012    0.1357    2.3190 H   0  0  0  0  0  0  0  0  0  0  0  0
    2.2300   -0.3917    3.0783 C   0  0  0  0  0  0  0  0  0  0  0  0
    3.1595    0.1694    2.9352 H   0  0  0  0  0  0  0  0  0  0  0  0
    1.8307   -0.1491    4.0676 H   0  0  0  0  0  0  0  0  0  0  0  0
    2.4563   -1.4628    3.0475 H   0  0  0  0  0  0  0  0  0  0  0  0
  1  2  1  0  0  0  0
  2  3  1  0  0  0  0
  2  4  1  0  0  0  0
  2  5  1  0  0  0  0
  5  6  2  0  0  0  0
  5  7  1  0  0  0  0
  7  8  1  0  0  0  0
  7 17  1  0  0  0  0
  8  9  1  0  0  0  0
  8 10  1  0  0  0  0
  8 11  1  0  0  0  0
 11 12  1  0  0  0  0
 11 13  1  0  0  0  0
 11 14  1  0  0  0  0
 14 15  1  0  0  0  0
 14 16  1  0  0  0  0
 14 17  1  0  0  0  0
 17 18  1  0  0  0  0
 17 19  1  0  0  0  0
 19 20  2  0  0  0  0
 19 21  1  0  0  0  0
 21 22  1  0  0  0  0
 21 23  1  0  0  0  0
 23 24  1  0  0  0  0
 23 25  1  0  0  0  0
 23 26  1  0  0  0  0
M  END
$$$$

  -OEChem-01062216093D

 26 26  0     1  0  0  0  0  0999 V2000
   -1.9226   -3.8459   -0.6074 H   0  0  0  0  0  0  0  0  0  0  0  0
   -2.1159   -2.7694   -0.6224 C   0  0  0  0  0  0  0  0  0  0  0  0
   -2.7523   -2.5174    0.2291 H   0  0  0  0  0  0  0  0  0  0  0  0
   -2.6394   -2.5227   -1.5492 H   0  0  0  0  0  0  0  0  0  0  0  0
   -0.8047   -1.9996   -0.5437 C   0  0  0  0  0  0  0  0  0  0  0  0
    0.2342   -2.6378   -0.5138 O   0  0  0  0  0  0  0  0  0  0  0  0
   -0.7765   -0.6075   -0.5014 N   0  0  0  0  0  0  0  0  0  0  0  0
   -1.9873    0.2012   -0.4726 C   0  0  0  0  0  0  0  0  0  0  0  0
   -2.4653    0.1444    0.5112 H   0  0  0  0  0  0  0  0  0  0  0  0
   -2.7098   -0.0935   -1.2408 H   0  0  0  0  0  0  0  0  0  0  0  0
   -1.4649    1.6028   -0.7411 C   0  0  0  0  0  0  0  0  0  0  0  0
   -2.1155    2.3720   -0.3138 H   0  0  0  0  0  0  0  0  0  0  0  0
   -1.3875    1.7706   -1.8207 H   0  0  0  0  0  0  0  0  0  0  0  0
   -0.0759    1.6114   -0.1145 C   0  0  0  0  0  0  0  0  0  0  0  0
   -0.1549    1.8121    0.9590 H   0  0  0  0  0  0  0  0  0  0  0  0
    0.5721    2.3724   -0.5612 H   0  0  0  0  0  0  0  0  0  0  0  0
    0.4537    0.1968   -0.3707 C   0  0  1  0  0  0  0  0  0  0  0  0
    0.9618    0.1809   -1.3409 H   0  0  0  0  0  0  0  0  0  0  0  0
    1.4902   -0.2541    0.6828 C   0  0  0  0  0  0  0  0  0  0  0  0
    2.6777   -0.2940    0.3875 O   0  0  0  0  0  0  0  0  0  0  0  0
    1.1331   -0.3240    2.0186 N   0  0  0  0  0  0  0  0  0  0  0  0
    0.1385   -0.3584    2.2163 H   0  0  0  0  0  0  0  0  0  0  0  0
    2.0691   -0.7120    3.0662 C   0  0  0  0  0  0  0  0  0  0  0  0
    2.9127   -0.0147    3.1053 H   0  0  0  0  0  0  0  0  0  0  0  0
    1.5709   -0.7037    4.0403 H   0  0  0  0  0  0  0  0  0  0  0  0
    2.4536   -1.7204    2.8800 H   0  0  0  0  0  0  0  0  0  0  0  0
  1  2  1  0  0  0  0
  2  3  1  0  0  0  0
  2  4  1  0  0  0  0
  2  5  1  0  0  0  0
  5  6  2  0  0  0  0
  5  7  1  0  0  0  0
  7  8  1  0  0  0  0
  7 17  1  0  0  0  0
  8  9  1  0  0  0  0
  8 10  1  0  0  0  0
  8 11  1  0  0  0  0
 11 12  1  0  0  0  0
 11 13  1  0  0  0  0
 11 14  1  0  0  0  0
 14 15  1  0  0  0  0
 14 16  1  0  0  0  0
 14 17  1  0  0  0  0
 17 18  1  0  0  0  0
 17 19  1  0  0  0  0
 19 20  2  0  0  0  0
 19 21  1  0  0  0  0
 21 22  1  0  0  0  0
 21 23  1  0  0  0  0
 23 24  1  0  0  0  0
 23 25  1  0  0  0  0
 23 26  1  0  0  0  0
M  END
$$$$

  -OEChem-01062216093D

 26 26  0     1  0  0  0  0  0999 V2000
   -1.9308   -3.8455   -0.6170 H   0  0  0  0  0  0  0  0  0  0  0  0
   -2.1238   -2.7689   -0.6303 C   0  0  0  0  0  0  0  0  0  0  0  0
   -2.7599   -2.5178    0.2216 H   0  0  0  0  0  0  0  0  0  0  0  0
   -2.6477   -2.5206   -1.5564 H   0  0  0  0  0  0  0  0  0  0  0  0
   -0.8120   -2.0003   -0.5514 C   0  0  0  0  0  0  0  0  0  0  0  0
    0.2269   -2.6387   -0.5114 O   0  0  0  0  0  0  0  0  0  0  0  0
   -0.7800   -0.6083   -0.5142 N   0  0  0  0  0  0  0  0  0  0  0  0
   -1.9888    0.2038   -0.4758 C   0  0  0  0  0  0  0  0  0  0  0  0
   -2.4649    0.1396    0.5085 H   0  0  0  0  0  0  0  0  0  0  0  0
   -2.7140   -0.0817   -1.2452 H   0  0  0  0  0  0  0  0  0  0  0  0
   -1.4624    1.6065   -0.7309 C   0  0  0  0  0  0  0  0  0  0  0  0
   -2.1089    2.3741   -0.2942 H   0  0  0  0  0  0  0  0  0  0  0  0
   -1.3862    1.7853   -1.8087 H   0  0  0  0  0  0  0  0  0  0  0  0
   -0.0726    1.6034   -0.1068 C   0  0  0  0  0  0  0  0  0  0  0  0
   -0.1470    1.7881    0.9702 H   0  0  0  0  0  0  0  0  0  0  0  0
    0.5770    2.3679   -0.5452 H   0  0  0  0  0  0  0  0  0  0  0  0
    0.4535    0.1917   -0.3771 C   0  0  1  0  0  0  0  0  0  0  0  0
    0.9657    0.1802   -1.3451 H   0  0  0  0  0  0  0  0  0  0  0  0
    1.4865   -0.2497    0.6824 C   0  0  0  0  0  0  0  0  0  0  0  0
    2.6784   -0.0523    0.4824 O   0  0  0  0  0  0  0  0  0  0  0  0
    1.0670   -0.6088    1.9517 N   0  0  0  0  0  0  0  0  0  0  0  0
    0.0879   -0.8601    2.0391 H   0  0  0  0  0  0  0  0  0  0  0  0
    1.9918   -1.0425    2.9909 C   0  0  0  0  0  0  0  0  0  0  0  0
    2.7120   -0.2500    3.2198 H   0  0  0  0  0  0  0  0  0  0  0  0
    1.4445   -1.2845    3.9068 H   0  0  0  0  0  0  0  0  0  0  0  0
    2.5393   -1.9340    2.6668 H   0  0  0  0  0  0  0  0  0  0  0  0
  1  2  1  0  0  0  0
  2  3  1  0  0  0  0
  2  4  1  0  0  0  0
  2  5  1  0  0  0  0
  5  6  2  0  0  0  0
  5  7  1  0  0  0  0
  7  8  1  0  0  0  0
  7 17  1  0  0  0  0
  8  9  1  0  0  0  0
  8 10  1  0  0  0  0
  8 11  1  0  0  0  0
 11 12  1  0  0  0  0
 11 13  1  0  0  0  0
 11 14  1  0  0  0  0
 14 15  1  0  0  0  0
 14 16  1  0  0  0  0
 14 17  1  0  0  0  0
 17 18  1  0  0  0  0
 17 19  1  0  0  0  0
 19 20  2  0  0  0  0
 19 21  1  0  0  0  0
 21 22  1  0  0  0  0
 21 23  1  0  0  0  0
 23 24  1  0  0  0  0
 23 25  1  0  0  0  0
 23 26  1  0  0  0  0
M  END
$$$$

  -OEChem-01062216093D

 26 26  0     1  0  0  0  0  0999 V2000
   -1.9900   -3.8376   -0.6681 H   0  0  0  0  0  0  0  0  0  0  0  0
   -2.1686   -2.7584   -0.6721 C   0  0  0  0  0  0  0  0  0  0  0  0
   -2.8164   -2.5084    0.1716 H   0  0  0  0  0  0  0  0  0  0  0  0
   -2.6731   -2.4930   -1.6043 H   0  0  0  0  0  0  0  0  0  0  0  0
   -0.8489   -2.0074   -0.5614 C   0  0  0  0  0  0  0  0  0  0  0  0
    0.1804   -2.6590   -0.4918 O   0  0  0  0  0  0  0  0  0  0  0  0
   -0.7973   -0.6167   -0.5172 N   0  0  0  0  0  0  0  0  0  0  0  0
   -1.9990    0.2066   -0.4886 C   0  0  0  0  0  0  0  0  0  0  0  0
   -2.4872    0.1411    0.4897 H   0  0  0  0  0  0  0  0  0  0  0  0
   -2.7175   -0.0674   -1.2682 H   0  0  0  0  0  0  0  0  0  0  0  0
   -1.4593    1.6055   -0.7292 C   0  0  0  0  0  0  0  0  0  0  0  0
   -2.1042    2.3753   -0.2941 H   0  0  0  0  0  0  0  0  0  0  0  0
   -1.3700    1.7908   -1.8048 H   0  0  0  0  0  0  0  0  0  0  0  0
   -0.0768    1.5860   -0.0904 C   0  0  0  0  0  0  0  0  0  0  0  0
   -0.1622    1.7611    0.9876 H   0  0  0  0  0  0  0  0  0  0  0  0
    0.5845    2.3493   -0.5135 H   0  0  0  0  0  0  0  0  0  0  0  0
    0.4433    0.1724   -0.3623 C   0  0  1  0  0  0  0  0  0  0  0  0
    0.9618    0.1610   -1.3267 H   0  0  0  0  0  0  0  0  0  0  0  0
    1.4798   -0.2582    0.7002 C   0  0  0  0  0  0  0  0  0  0  0  0
    2.6234    0.1734    0.6218 O   0  0  0  0  0  0  0  0  0  0  0  0
    1.0825   -0.9015    1.8590 N   0  0  0  0  0  0  0  0  0  0  0  0
    0.1961   -1.3919    1.7938 H   0  0  0  0  0  0  0  0  0  0  0  0
    2.0331   -1.3381    2.8734 C   0  0  0  0  0  0  0  0  0  0  0  0
    2.5902   -0.4835    3.2716 H   0  0  0  0  0  0  0  0  0  0  0  0
    1.5059   -1.8204    3.7020 H   0  0  0  0  0  0  0  0  0  0  0  0
    2.7433   -2.0549    2.4479 H   0  0  0  0  0  0  0  0  0  0  0  0
  1  2  1  0  0  0  0
  2  3  1  0  0  0  0
  2  4  1  0  0  0  0
  2  5  1  0  0  0  0
  5  6  2  0  0  0  0
  5  7  1  0  0  0  0
  7  8  1  0  0  0  0
  7 17  1  0  0  0  0
  8  9  1  0  0  0  0
  8 10  1  0  0  0  0
  8 11  1  0  0  0  0
 11 12  1  0  0  0  0
 11 13  1  0  0  0  0
 11 14  1  0  0  0  0
 14 15  1  0  0  0  0
 14 16  1  0  0  0  0
 14 17  1  0  0  0  0
 17 18  1  0  0  0  0
 17 19  1  0  0  0  0
 19 20  2  0  0  0  0
 19 21  1  0  0  0  0
 21 22  1  0  0  0  0
 21 23  1  0  0  0  0
 23 24  1  0  0  0  0
 23 25  1  0  0  0  0
 23 26  1  0  0  0  0
M  END
$$$$

  -OEChem-01062216093D

 26 26  0     1  0  0  0  0  0999 V2000
   -2.0787   -3.8233   -0.7276 H   0  0  0  0  0  0  0  0  0  0  0  0
   -2.2355   -2.7408   -0.7158 C   0  0  0  0  0  0  0  0  0  0  0  0
   -2.8842   -2.4912    0.1273 H   0  0  0  0  0  0  0  0  0  0  0  0
   -2.7282   -2.4512   -1.6470 H   0  0  0  0  0  0  0  0  0  0  0  0
   -0.9015   -2.0182   -0.5847 C   0  0  0  0  0  0  0  0  0  0  0  0
    0.1126   -2.6939   -0.5113 O   0  0  0  0  0  0  0  0  0  0  0  0
   -0.8188   -0.6298   -0.5231 N   0  0  0  0  0  0  0  0  0  0  0  0
   -2.0093    0.2102   -0.4957 C   0  0  0  0  0  0  0  0  0  0  0  0
   -2.5047    0.1424    0.4788 H   0  0  0  0  0  0  0  0  0  0  0  0
   -2.7268   -0.0467   -1.2820 H   0  0  0  0  0  0  0  0  0  0  0  0
   -1.4529    1.6045   -0.7201 C   0  0  0  0  0  0  0  0  0  0  0  0
   -2.0915    2.3775   -0.2815 H   0  0  0  0  0  0  0  0  0  0  0  0
   -1.3542    1.7992   -1.7932 H   0  0  0  0  0  0  0  0  0  0  0  0
   -0.0769    1.5610   -0.0713 C   0  0  0  0  0  0  0  0  0  0  0  0
   -0.1689    1.7260    1.0078 H   0  0  0  0  0  0  0  0  0  0  0  0
    0.5960    2.3212   -0.4810 H   0  0  0  0  0  0  0  0  0  0  0  0
    0.4321    0.1439   -0.3506 C   0  0  1  0  0  0  0  0  0  0  0  0
    0.9519    0.1353   -1.3139 H   0  0  0  0  0  0  0  0  0  0  0  0
    1.4786   -0.2845    0.7075 C   0  0  0  0  0  0  0  0  0  0  0  0
    2.5284    0.3437    0.7770 O   0  0  0  0  0  0  0  0  0  0  0  0
    1.1743   -1.1837    1.7134 N   0  0  0  0  0  0  0  0  0  0  0  0
    0.4562   -1.8582    1.4576 H   0  0  0  0  0  0  0  0  0  0  0  0
    2.1522   -1.5894    2.7151 C   0  0  0  0  0  0  0  0  0  0  0  0
    2.4953   -0.7228    3.2900 H   0  0  0  0  0  0  0  0  0  0  0  0
    1.7046   -2.3065    3.4096 H   0  0  0  0  0  0  0  0  0  0  0  0
    3.0173   -2.0611    2.2370 H   0  0  0  0  0  0  0  0  0  0  0  0
  1  2  1  0  0  0  0
  2  3  1  0  0  0  0
  2  4  1  0  0  0  0
  2  5  1  0  0  0  0
  5  6  2  0  0  0  0
  5  7  1  0  0  0  0
  7  8  1  0  0  0  0
  7 17  1  0  0  0  0
  8  9  1  0  0  0  0
  8 10  1  0  0  0  0
  8 11  1  0  0  0  0
 11 12  1  0  0  0  0
 11 13  1  0  0  0  0
 11 14  1  0  0  0  0
 14 15  1  0  0  0  0
 14 16  1  0  0  0  0
 14 17  1  0  0  0  0
 17 18  1  0  0  0  0
 17 19  1  0  0  0  0
 19 20  2  0  0  0  0
 19 21  1  0  0  0  0
 21 22  1  0  0  0  0
 21 23  1  0  0  0  0
 23 24  1  0  0  0  0
 23 25  1  0  0  0  0
 23 26  1  0  0  0  0
M  END
$$$$

  -OEChem-01062216093D

 26 26  0     1  0  0  0  0  0999 V2000
   -2.1330   -3.8129   -0.7144 H   0  0  0  0  0  0  0  0  0  0  0  0
   -2.2743   -2.7283   -0.7155 C   0  0  0  0  0  0  0  0  0  0  0  0
   -2.9013   -2.4584    0.1376 H   0  0  0  0  0  0  0  0  0  0  0  0
   -2.7826   -2.4447   -1.6401 H   0  0  0  0  0  0  0  0  0  0  0  0
   -0.9280   -2.0226   -0.6218 C   0  0  0  0  0  0  0  0  0  0  0  0
    0.0794   -2.7132   -0.6195 O   0  0  0  0  0  0  0  0  0  0  0  0
   -0.8272   -0.6359   -0.5394 N   0  0  0  0  0  0  0  0  0  0  0  0
   -2.0138    0.2102   -0.5116 C   0  0  0  0  0  0  0  0  0  0  0  0
   -2.5172    0.1333    0.4582 H   0  0  0  0  0  0  0  0  0  0  0  0
   -2.7259   -0.0356   -1.3063 H   0  0  0  0  0  0  0  0  0  0  0  0
   -1.4535    1.6054   -0.7158 C   0  0  0  0  0  0  0  0  0  0  0  0
   -2.0939    2.3755   -0.2747 H   0  0  0  0  0  0  0  0  0  0  0  0
   -1.3429    1.8115   -1.7855 H   0  0  0  0  0  0  0  0  0  0  0  0
   -0.0854    1.5480   -0.0543 C   0  0  0  0  0  0  0  0  0  0  0  0
   -0.1895    1.7005    1.0258 H   0  0  0  0  0  0  0  0  0  0  0  0
    0.5936    2.3122   -0.4466 H   0  0  0  0  0  0  0  0  0  0  0  0
    0.4262    0.1318   -0.3437 C   0  0  1  0  0  0  0  0  0  0  0  0
    0.9528    0.1334   -1.3033 H   0  0  0  0  0  0  0  0  0  0  0  0
    1.4749   -0.2981    0.7169 C   0  0  0  0  0  0  0  0  0  0  0  0
    2.4188    0.4515    0.9399 O   0  0  0  0  0  0  0  0  0  0  0  0
    1.3107   -1.4039    1.5305 N   0  0  0  0  0  0  0  0  0  0  0  0
    0.7105   -2.1256    1.1307 H   0  0  0  0  0  0  0  0  0  0  0  0
    2.3175   -1.8238    2.4967 C   0  0  0  0  0  0  0  0  0  0  0  0
    2.4935   -1.0348    3.2355 H   0  0  0  0  0  0  0  0  0  0  0  0
    1.9802   -2.7205    3.0252 H   0  0  0  0  0  0  0  0  0  0  0  0
    3.2618   -2.0519    1.9915 H   0  0  0  0  0  0  0  0  0  0  0  0
  1  2  1  0  0  0  0
  2  3  1  0  0  0  0
  2  4  1  0  0  0  0
  2  5  1  0  0  0  0
  5  6  2  0  0  0  0
  5  7  1  0  0  0  0
  7  8  1  0  0  0  0
  7 17  1  0  0  0  0
  8  9  1  0  0  0  0
  8 10  1  0  0  0  0
  8 11  1  0  0  0  0
 11 12  1  0  0  0  0
 11 13  1  0  0  0  0
 11 14  1  0  0  0  0
 14 15  1  0  0  0  0
 14 16  1  0  0  0  0
 14 17  1  0  0  0  0
 17 18  1  0  0  0  0
 17 19  1  0  0  0  0
 19 20  2  0  0  0  0
 19 21  1  0  0  0  0
 21 22  1  0  0  0  0
 21 23  1  0  0  0  0
 23 24  1  0  0  0  0
 23 25  1  0  0  0  0
 23 26  1  0  0  0  0
M  END
$$$$

  -OEChem-01062216093D

 26 26  0     1  0  0  0  0  0999 V2000
   -2.1664   -3.8063   -0.7145 H   0  0  0  0  0  0  0  0  0  0  0  0
   -2.2994   -2.7207   -0.7020 C   0  0  0  0  0  0  0  0  0  0  0  0
   -2.8904   -2.4530    0.1773 H   0  0  0  0  0  0  0  0  0  0  0  0
   -2.8417   -2.4266   -1.6037 H   0  0  0  0  0  0  0  0  0  0  0  0
   -0.9448   -2.0254   -0.6555 C   0  0  0  0  0  0  0  0  0  0  0  0
    0.0545   -2.7228   -0.7431 O   0  0  0  0  0  0  0  0  0  0  0  0
   -0.8307   -0.6405   -0.5533 N   0  0  0  0  0  0  0  0  0  0  0  0
   -2.0145    0.2095   -0.5218 C   0  0  0  0  0  0  0  0  0  0  0  0
   -2.5207    0.1259    0.4460 H   0  0  0  0  0  0  0  0  0  0  0  0
   -2.7250   -0.0280   -1.3203 H   0  0  0  0  0  0  0  0  0  0  0  0
   -1.4532    1.6060   -0.7128 C   0  0  0  0  0  0  0  0  0  0  0  0
   -2.0947    2.3729   -0.2681 H   0  0  0  0  0  0  0  0  0  0  0  0
   -1.3365    1.8210   -1.7802 H   0  0  0  0  0  0  0  0  0  0  0  0
   -0.0902    1.5383   -0.0439 C   0  0  0  0  0  0  0  0  0  0  0  0
   -0.2029    1.6821    1.0366 H   0  0  0  0  0  0  0  0  0  0  0  0
    0.5924    2.3054   -0.4241 H   0  0  0  0  0  0  0  0  0  0  0  0
    0.4243    0.1226   -0.3415 C   0  0  1  0  0  0  0  0  0  0  0  0
    0.9545    0.1327   -1.2988 H   0  0  0  0  0  0  0  0  0  0  0  0
    1.4753   -0.3148    0.7192 C   0  0  0  0  0  0  0  0  0  0  0  0
    2.3020    0.5074    1.0989 O   0  0  0  0  0  0  0  0  0  0  0  0
    1.4883   -1.5610    1.3167 N   0  0  0  0  0  0  0  0  0  0  0  0
    0.9641   -2.2812    0.8170 H   0  0  0  0  0  0  0  0  0  0  0  0
    2.5267   -1.9903    2.2446 C   0  0  0  0  0  0  0  0  0  0  0  0
    2.5467   -1.3401    3.1254 H   0  0  0  0  0  0  0  0  0  0  0  0
    2.3327   -3.0145    2.5771 H   0  0  0  0  0  0  0  0  0  0  0  0
    3.5089   -1.9614    1.7614 H   0  0  0  0  0  0  0  0  0  0  0  0
  1  2  1  0  0  0  0
  2  3  1  0  0  0  0
  2  4  1  0  0  0  0
  2  5  1  0  0  0  0
  5  6  2  0  0  0  0
  5  7  1  0  0  0  0
  7  8  1  0  0  0  0
  7 17  1  0  0  0  0
  8  9  1  0  0  0  0
  8 10  1  0  0  0  0
  8 11  1  0  0  0  0
 11 12  1  0  0  0  0
 11 13  1  0  0  0  0
 11 14  1  0  0  0  0
 14 15  1  0  0  0  0
 14 16  1  0  0  0  0
 14 17  1  0  0  0  0
 17 18  1  0  0  0  0
 17 19  1  0  0  0  0
 19 20  2  0  0  0  0
 19 21  1  0  0  0  0
 21 22  1  0  0  0  0
 21 23  1  0  0  0  0
 23 24  1  0  0  0  0
 23 25  1  0  0  0  0
 23 26  1  0  0  0  0
M  END
$$$$

  -OEChem-01062216093D

 26 26  0     1  0  0  0  0  0999 V2000
   -2.1720   -3.8064   -0.6751 H   0  0  0  0  0  0  0  0  0  0  0  0
   -2.3050   -2.7208   -0.6686 C   0  0  0  0  0  0  0  0  0  0  0  0
   -2.8670   -2.4456    0.2271 H   0  0  0  0  0  0  0  0  0  0  0  0
   -2.8761   -2.4346   -1.5548 H   0  0  0  0  0  0  0  0  0  0  0  0
   -0.9495   -2.0259   -0.6721 C   0  0  0  0  0  0  0  0  0  0  0  0
    0.0410   -2.7208   -0.8424 O   0  0  0  0  0  0  0  0  0  0  0  0
   -0.8302   -0.6423   -0.5568 N   0  0  0  0  0  0  0  0  0  0  0  0
   -2.0136    0.2079   -0.5120 C   0  0  0  0  0  0  0  0  0  0  0  0
   -2.5099    0.1220    0.4607 H   0  0  0  0  0  0  0  0  0  0  0  0
   -2.7327   -0.0286   -1.3032 H   0  0  0  0  0  0  0  0  0  0  0  0
   -1.4568    1.6060   -0.7056 C   0  0  0  0  0  0  0  0  0  0  0  0
   -2.0958    2.3717   -0.2547 H   0  0  0  0  0  0  0  0  0  0  0  0
   -1.3482    1.8224   -1.7736 H   0  0  0  0  0  0  0  0  0  0  0  0
   -0.0898    1.5367   -0.0463 C   0  0  0  0  0  0  0  0  0  0  0  0
   -0.1987    1.6798    1.0346 H   0  0  0  0  0  0  0  0  0  0  0  0
    0.5894    2.3056   -0.4287 H   0  0  0  0  0  0  0  0  0  0  0  0
    0.4262    0.1209   -0.3502 C   0  0  1  0  0  0  0  0  0  0  0  0
    0.9484    0.1363   -1.3117 H   0  0  0  0  0  0  0  0  0  0  0  0
    1.4882   -0.3282    0.6986 C   0  0  0  0  0  0  0  0  0  0  0  0
    2.1872    0.5225    1.2388 O   0  0  0  0  0  0  0  0  0  0  0  0
    1.7008   -1.6435    1.0642 N   0  0  0  0  0  0  0  0  0  0  0  0
    1.2296   -2.3461    0.4909 H   0  0  0  0  0  0  0  0  0  0  0  0
    2.7579   -2.0769    1.9687 C   0  0  0  0  0  0  0  0  0  0  0  0
    2.6439   -1.6004    2.9479 H   0  0  0  0  0  0  0  0  0  0  0  0
    2.7133   -3.1614    2.1062 H   0  0  0  0  0  0  0  0  0  0  0  0
    3.7408   -1.8186    1.5613 H   0  0  0  0  0  0  0  0  0  0  0  0
  1  2  1  0  0  0  0
  2  3  1  0  0  0  0
  2  4  1  0  0  0  0
  2  5  1  0  0  0  0
  5  6  2  0  0  0  0
  5  7  1  0  0  0  0
  7  8  1  0  0  0  0
  7 17  1  0  0  0  0
  8  9  1  0  0  0  0
  8 10  1  0  0  0  0
  8 11  1  0  0  0  0
 11 12  1  0  0  0  0
 11 13  1  0  0  0  0
 11 14  1  0  0  0  0
 14 15  1  0  0  0  0
 14 16  1  0  0  0  0
 14 17  1  0  0  0  0
 17 18  1  0  0  0  0
 17 19  1  0  0  0  0
 19 20  2  0  0  0  0
 19 21  1  0  0  0  0
 21 22  1  0  0  0  0
 21 23  1  0  0  0  0
 23 24  1  0  0  0  0
 23 25  1  0  0  0  0
 23 26  1  0  0  0  0
M  END
$$$$

  -OEChem-01062216093D

 26 26  0     1  0  0  0  0  0999 V2000
   -2.1330   -3.8136   -0.6517 H   0  0  0  0  0  0  0  0  0  0  0  0
   -2.2738   -2.7291   -0.6339 C   0  0  0  0  0  0  0  0  0  0  0  0
   -2.8038   -2.4638    0.2841 H   0  0  0  0  0  0  0  0  0  0  0  0
   -2.8804   -2.4425   -1.4961 H   0  0  0  0  0  0  0  0  0  0  0  0
   -0.9252   -2.0225   -0.6838 C   0  0  0  0  0  0  0  0  0  0  0  0
    0.0631   -2.7064   -0.9040 O   0  0  0  0  0  0  0  0  0  0  0  0
   -0.8152   -0.6387   -0.5591 N   0  0  0  0  0  0  0  0  0  0  0  0
   -2.0052    0.2011   -0.4978 C   0  0  0  0  0  0  0  0  0  0  0  0
   -2.4884    0.1096    0.4812 H   0  0  0  0  0  0  0  0  0  0  0  0
   -2.7316   -0.0410   -1.2807 H   0  0  0  0  0  0  0  0  0  0  0  0
   -1.4637    1.6044   -0.6969 C   0  0  0  0  0  0  0  0  0  0  0  0
   -2.1041    2.3633   -0.2369 H   0  0  0  0  0  0  0  0  0  0  0  0
   -1.3701    1.8232   -1.7657 H   0  0  0  0  0  0  0  0  0  0  0  0
   -0.0883    1.5463   -0.0550 C   0  0  0  0  0  0  0  0  0  0  0  0
   -0.1917    1.6878    1.0267 H   0  0  0  0  0  0  0  0  0  0  0  0
    0.5800    2.3224   -0.4417 H   0  0  0  0  0  0  0  0  0  0  0  0
    0.4370    0.1344   -0.3675 C   0  0  1  0  0  0  0  0  0  0  0  0
    0.9459    0.1589   -1.3359 H   0  0  0  0  0  0  0  0  0  0  0  0
    1.5133   -0.3252    0.6634 C   0  0  0  0  0  0  0  0  0  0  0  0
    2.0656    0.5052    1.3774 O   0  0  0  0  0  0  0  0  0  0  0  0
    1.9349   -1.6346    0.7860 N   0  0  0  0  0  0  0  0  0  0  0  0
    1.4939   -2.3151    0.1628 H   0  0  0  0  0  0  0  0  0  0  0  0
    2.9706   -2.0851    1.7064 C   0  0  0  0  0  0  0  0  0  0  0  0
    2.6710   -1.8958    2.7423 H   0  0  0  0  0  0  0  0  0  0  0  0
    3.1393   -3.1594    1.5856 H   0  0  0  0  0  0  0  0  0  0  0  0
    3.9127   -1.5630    1.5092 H   0  0  0  0  0  0  0  0  0  0  0  0
  1  2  1  0  0  0  0
  2  3  1  0  0  0  0
  2  4  1  0  0  0  0
  2  5  1  0  0  0  0
  5  6  2  0  0  0  0
  5  7  1  0  0  0  0
  7  8  1  0  0  0  0
  7 17  1  0  0  0  0
  8  9  1  0  0  0  0
  8 10  1  0  0  0  0
  8 11  1  0  0  0  0
 11 12  1  0  0  0  0
 11 13  1  0  0  0  0
 11 14  1  0  0  0  0
 14 15  1  0  0  0  0
 14 16  1  0  0  0  0
 14 17  1  0  0  0  0
 17 18  1  0  0  0  0
 17 19  1  0  0  0  0
 19 20  2  0  0  0  0
 19 21  1  0  0  0  0
 21 22  1  0  0  0  0
 21 23  1  0  0  0  0
 23 24  1  0  0  0  0
 23 25  1  0  0  0  0
 23 26  1  0  0  0  0
M  END
$$$$

  -OEChem-01062216093D

 26 26  0     1  0  0  0  0  0999 V2000
   -2.0492   -3.8256   -0.6083 H   0  0  0  0  0  0  0  0  0  0  0  0
   -2.2116   -2.7440   -0.5945 C   0  0  0  0  0  0  0  0  0  0  0  0
   -2.7311   -2.4836    0.3309 H   0  0  0  0  0  0  0  0  0  0  0  0
   -2.8379   -2.4743   -1.4481 H   0  0  0  0  0  0  0  0  0  0  0  0
   -0.8783   -2.0116   -0.6702 C   0  0  0  0  0  0  0  0  0  0  0  0
    0.1198   -2.6759   -0.9057 O   0  0  0  0  0  0  0  0  0  0  0  0
   -0.7928   -0.6259   -0.5500 N   0  0  0  0  0  0  0  0  0  0  0  0
   -1.9927    0.1972   -0.4688 C   0  0  0  0  0  0  0  0  0  0  0  0
   -2.4532    0.1058    0.5210 H   0  0  0  0  0  0  0  0  0  0  0  0
   -2.7328   -0.0600   -1.2339 H   0  0  0  0  0  0  0  0  0  0  0  0
   -1.4737    1.6066   -0.6887 C   0  0  0  0  0  0  0  0  0  0  0  0
   -2.1141    2.3603   -0.2201 H   0  0  0  0  0  0  0  0  0  0  0  0
   -1.4064    1.8192   -1.7607 H   0  0  0  0  0  0  0  0  0  0  0  0
   -0.0843    1.5713   -0.0749 C   0  0  0  0  0  0  0  0  0  0  0  0
   -0.1723    1.7224    1.0066 H   0  0  0  0  0  0  0  0  0  0  0  0
    0.5662    2.3527   -0.4803 H   0  0  0  0  0  0  0  0  0  0  0  0
    0.4519    0.1631   -0.3898 C   0  0  1  0  0  0  0  0  0  0  0  0
    0.9428    0.1914   -1.3673 H   0  0  0  0  0  0  0  0  0  0  0  0
    1.5430   -0.3032    0.6214 C   0  0  0  0  0  0  0  0  0  0  0  0
    1.9402    0.4528    1.5017 O   0  0  0  0  0  0  0  0  0  0  0  0
    2.1674   -1.5305    0.5137 N   0  0  0  0  0  0  0  0  0  0  0  0
    1.7395   -2.1898   -0.1412 H   0  0  0  0  0  0  0  0  0  0  0  0
    3.1588   -2.0283    1.4582 C   0  0  0  0  0  0  0  0  0  0  0  0
    2.7201   -2.1307    2.4560 H   0  0  0  0  0  0  0  0  0  0  0  0
    3.5233   -3.0086    1.1369 H   0  0  0  0  0  0  0  0  0  0  0  0
    4.0129   -1.3454    1.5151 H   0  0  0  0  0  0  0  0  0  0  0  0
  1  2  1  0  0  0  0
  2  3  1  0  0  0  0
  2  4  1  0  0  0  0
  2  5  1  0  0  0  0
  5  6  2  0  0  0  0
  5  7  1  0  0  0  0
  7  8  1  0  0  0  0
  7 17  1  0  0  0  0
  8  9  1  0  0  0  0
  8 10  1  0  0  0  0
  8 11  1  0  0  0  0
 11 12  1  0  0  0  0
 11 13  1  0  0  0  0
 11 14  1  0  0  0  0
 14 15  1  0  0  0  0
 14 16  1  0  0  0  0
 14 17  1  0  0  0  0
 17 18  1  0  0  0  0
 17 19  1  0  0  0  0
 19 20  2  0  0  0  0
 19 21  1  0  0  0  0
 21 22  1  0  0  0  0
 21 23  1  0  0  0  0
 23 24  1  0  0  0  0
 23 25  1  0  0  0  0
 23 26  1  0  0  0  0
M  END
$$$$

  -OEChem-01062216093D

 26 26  0     1  0  0  0  0  0999 V2000
   -1.9415   -3.8383   -0.5644 H   0  0  0  0  0  0  0  0  0  0  0  0
   -2.1321   -2.7613   -0.5625 C   0  0  0  0  0  0  0  0  0  0  0  0
   -2.6603   -2.5039    0.3587 H   0  0  0  0  0  0  0  0  0  0  0  0
   -2.7630   -2.5166   -1.4201 H   0  0  0  0  0  0  0  0  0  0  0  0
   -0.8186   -1.9954   -0.6435 C   0  0  0  0  0  0  0  0  0  0  0  0
    0.2012   -2.6312   -0.8691 O   0  0  0  0  0  0  0  0  0  0  0  0
   -0.7703   -0.6069   -0.5411 N   0  0  0  0  0  0  0  0  0  0  0  0
   -1.9816    0.1964   -0.4506 C   0  0  0  0  0  0  0  0  0  0  0  0
   -2.4274    0.1065    0.5459 H   0  0  0  0  0  0  0  0  0  0  0  0
   -2.7277   -0.0790   -1.2034 H   0  0  0  0  0  0  0  0  0  0  0  0
   -1.4829    1.6112   -0.6893 C   0  0  0  0  0  0  0  0  0  0  0  0
   -2.1273    2.3607   -0.2192 H   0  0  0  0  0  0  0  0  0  0  0  0
   -1.4323    1.8148   -1.7639 H   0  0  0  0  0  0  0  0  0  0  0  0
   -0.0837    1.6016   -0.0938 C   0  0  0  0  0  0  0  0  0  0  0  0
   -0.1602    1.7655    0.9865 H   0  0  0  0  0  0  0  0  0  0  0  0
    0.5506    2.3868   -0.5168 H   0  0  0  0  0  0  0  0  0  0  0  0
    0.4637    0.1970   -0.4054 C   0  0  1  0  0  0  0  0  0  0  0  0
    0.9486    0.2262   -1.3860 H   0  0  0  0  0  0  0  0  0  0  0  0
    1.5469   -0.2782    0.6059 C   0  0  0  0  0  0  0  0  0  0  0  0
    1.7795    0.3539    1.6308 O   0  0  0  0  0  0  0  0  0  0  0  0
    2.3577   -1.3582    0.3133 N   0  0  0  0  0  0  0  0  0  0  0  0
    1.9764   -1.9917   -0.3938 H   0  0  0  0  0  0  0  0  0  0  0  0
    3.3352   -1.8951    1.2512 C   0  0  0  0  0  0  0  0  0  0  0  0
    2.8374   -2.2575    2.1565 H   0  0  0  0  0  0  0  0  0  0  0  0
    3.8762   -2.7288    0.7935 H   0  0  0  0  0  0  0  0  0  0  0  0
    4.0625   -1.1259    1.5312 H   0  0  0  0  0  0  0  0  0  0  0  0
  1  2  1  0  0  0  0
  2  3  1  0  0  0  0
  2  4  1  0  0  0  0
  2  5  1  0  0  0  0
  5  6  2  0  0  0  0
  5  7  1  0  0  0  0
  7  8  1  0  0  0  0
  7 17  1  0  0  0  0
  8  9  1  0  0  0  0
  8 10  1  0  0  0  0
  8 11  1  0  0  0  0
 11 12  1  0  0  0  0
 11 13  1  0  0  0  0
 11 14  1  0  0  0  0
 14 15  1  0  0  0  0
 14 16  1  0  0  0  0
 14 17  1  0  0  0  0
 17 18  1  0  0  0  0
 17 19  1  0  0  0  0
 19 20  2  0  0  0  0
 19 21  1  0  0  0  0
 21 22  1  0  0  0  0
 21 23  1  0  0  0  0
 23 24  1  0  0  0  0
 23 25  1  0  0  0  0
 23 26  1  0  0  0  0
M  END
$$$$

  -OEChem-01062216093D

 26 26  0     1  0  0  0  0  0999 V2000
   -1.8408   -3.8466   -0.5329 H   0  0  0  0  0  0  0  0  0  0  0  0
   -2.0596   -2.7751   -0.5392 C   0  0  0  0  0  0  0  0  0  0  0  0
   -2.5958   -2.5247    0.3793 H   0  0  0  0  0  0  0  0  0  0  0  0
   -2.6950   -2.5523   -1.3995 H   0  0  0  0  0  0  0  0  0  0  0  0
   -0.7670   -1.9758   -0.6239 C   0  0  0  0  0  0  0  0  0  0  0  0
    0.2755   -2.5803   -0.8368 O   0  0  0  0  0  0  0  0  0  0  0  0
   -0.7568   -0.5860   -0.5414 N   0  0  0  0  0  0  0  0  0  0  0  0
   -1.9768    0.2009   -0.4416 C   0  0  0  0  0  0  0  0  0  0  0  0
   -2.4114    0.1090    0.5597 H   0  0  0  0  0  0  0  0  0  0  0  0
   -2.7259   -0.0868   -1.1868 H   0  0  0  0  0  0  0  0  0  0  0  0
   -1.4918    1.6203   -0.6892 C   0  0  0  0  0  0  0  0  0  0  0  0
   -2.1385    2.3651   -0.2152 H   0  0  0  0  0  0  0  0  0  0  0  0
   -1.4538    1.8210   -1.7649 H   0  0  0  0  0  0  0  0  0  0  0  0
   -0.0854    1.6268   -0.1070 C   0  0  0  0  0  0  0  0  0  0  0  0
   -0.1499    1.7968    0.9730 H   0  0  0  0  0  0  0  0  0  0  0  0
    0.5368    2.4150   -0.5422 H   0  0  0  0  0  0  0  0  0  0  0  0
    0.4684    0.2259   -0.4211 C   0  0  1  0  0  0  0  0  0  0  0  0
    0.9541    0.2568   -1.4012 H   0  0  0  0  0  0  0  0  0  0  0  0
    1.5310   -0.2625    0.6011 C   0  0  0  0  0  0  0  0  0  0  0  0
    1.5851    0.1969    1.7370 O   0  0  0  0  0  0  0  0  0  0  0  0
    2.5187   -1.1388    0.1920 N   0  0  0  0  0  0  0  0  0  0  0  0
    2.2497   -1.7155   -0.6065 H   0  0  0  0  0  0  0  0  0  0  0  0
    3.5044   -1.6893    1.1137 C   0  0  0  0  0  0  0  0  0  0  0  0
    3.0113   -2.2818    1.8913 H   0  0  0  0  0  0  0  0  0  0  0  0
    4.2038   -2.3350    0.5743 H   0  0  0  0  0  0  0  0  0  0  0  0
    4.0766   -0.8865    1.5904 H   0  0  0  0  0  0  0  0  0  0  0  0
  1  2  1  0  0  0  0
  2  3  1  0  0  0  0
  2  4  1  0  0  0  0
  2  5  1  0  0  0  0
  5  6  2  0  0  0  0
  5  7  1  0  0  0  0
  7  8  1  0  0  0  0
  7 17  1  0  0  0  0
  8  9  1  0  0  0  0
  8 10  1  0  0  0  0
  8 11  1  0  0  0  0
 11 12  1  0  0  0  0
 11 13  1  0  0  0  0
 11 14  1  0  0  0  0
 14 15  1  0  0  0  0
 14 16  1  0  0  0  0
 14 17  1  0  0  0  0
 17 18  1  0  0  0  0
 17 19  1  0  0  0  0
 19 20  2  0  0  0  0
 19 21  1  0  0  0  0
 21 22  1  0  0  0  0
 21 23  1  0  0  0  0
 23 24  1  0  0  0  0
 23 25  1  0  0  0  0
 23 26  1  0  0  0  0
M  END
$$$$

  -OEChem-01062216093D

 26 26  0     1  0  0  0  0  0999 V2000
   -1.7757   -3.8512   -0.5107 H   0  0  0  0  0  0  0  0  0  0  0  0
   -2.0132   -2.7837   -0.5151 C   0  0  0  0  0  0  0  0  0  0  0  0
   -2.5429   -2.5413    0.4094 H   0  0  0  0  0  0  0  0  0  0  0  0
   -2.6627   -2.5725   -1.3679 H   0  0  0  0  0  0  0  0  0  0  0  0
   -0.7356   -1.9628   -0.6153 C   0  0  0  0  0  0  0  0  0  0  0  0
    0.3196   -2.5470   -0.8239 O   0  0  0  0  0  0  0  0  0  0  0  0
   -0.7505   -0.5725   -0.5533 N   0  0  0  0  0  0  0  0  0  0  0  0
   -1.9752    0.2029   -0.4353 C   0  0  0  0  0  0  0  0  0  0  0  0
   -2.3955    0.1052    0.5716 H   0  0  0  0  0  0  0  0  0  0  0  0
   -2.7312   -0.0897   -1.1714 H   0  0  0  0  0  0  0  0  0  0  0  0
   -1.5015    1.6266   -0.6859 C   0  0  0  0  0  0  0  0  0  0  0  0
   -2.1471    2.3659   -0.2019 H   0  0  0  0  0  0  0  0  0  0  0  0
   -1.4792    1.8300   -1.7614 H   0  0  0  0  0  0  0  0  0  0  0  0
   -0.0871    1.6414   -0.1214 C   0  0  0  0  0  0  0  0  0  0  0  0
   -0.1341    1.8085    0.9601 H   0  0  0  0  0  0  0  0  0  0  0  0
    0.5242    2.4335   -0.5646 H   0  0  0  0  0  0  0  0  0  0  0  0
    0.4685    0.2453   -0.4464 C   0  0  1  0  0  0  0  0  0  0  0  0
    0.9512    0.2764   -1.4278 H   0  0  0  0  0  0  0  0  0  0  0  0
    1.5188   -0.2426    0.5853 C   0  0  0  0  0  0  0  0  0  0  0  0
    1.3918   -0.0035    1.7818 O   0  0  0  0  0  0  0  0  0  0  0  0
    2.6709   -0.8666    0.1430 N   0  0  0  0  0  0  0  0  0  0  0  0
    2.5921   -1.2947   -0.7769 H   0  0  0  0  0  0  0  0  0  0  0  0
    3.6509   -1.4290    1.0634 C   0  0  0  0  0  0  0  0  0  0  0  0
    3.1976   -2.2231    1.6658 H   0  0  0  0  0  0  0  0  0  0  0  0
    4.4919   -1.8521    0.5059 H   0  0  0  0  0  0  0  0  0  0  0  0
    4.0382   -0.6545    1.7336 H   0  0  0  0  0  0  0  0  0  0  0  0
  1  2  1  0  0  0  0
  2  3  1  0  0  0  0
  2  4  1  0  0  0  0
  2  5  1  0  0  0  0
  5  6  2  0  0  0  0
  5  7  1  0  0  0  0
  7  8  1  0  0  0  0
  7 17  1  0  0  0  0
  8  9  1  0  0  0  0
  8 10  1  0  0  0  0
  8 11  1  0  0  0  0
 11 12  1  0  0  0  0
 11 13  1  0  0  0  0
 11 14  1  0  0  0  0
 14 15  1  0  0  0  0
 14 16  1  0  0  0  0
 14 17  1  0  0  0  0
 17 18  1  0  0  0  0
 17 19  1  0  0  0  0
 19 20  2  0  0  0  0
 19 21  1  0  0  0  0
 21 22  1  0  0  0  0
 21 23  1  0  0  0  0
 23 24  1  0  0  0  0
 23 25  1  0  0  0  0
 23 26  1  0  0  0  0
M  END
$$$$

  -OEChem-01062216093D

 26 26  0     1  0  0  0  0  0999 V2000
   -1.7515   -3.8540   -0.4974 H   0  0  0  0  0  0  0  0  0  0  0  0
   -1.9955   -2.7880   -0.4925 C   0  0  0  0  0  0  0  0  0  0  0  0
   -2.5035   -2.5515    0.4455 H   0  0  0  0  0  0  0  0  0  0  0  0
   -2.6664   -2.5775   -1.3284 H   0  0  0  0  0  0  0  0  0  0  0  0
   -0.7255   -1.9593   -0.6196 C   0  0  0  0  0  0  0  0  0  0  0  0
    0.3320   -2.5373   -0.8333 O   0  0  0  0  0  0  0  0  0  0  0  0
   -0.7504   -0.5687   -0.5728 N   0  0  0  0  0  0  0  0  0  0  0  0
   -1.9765    0.2019   -0.4423 C   0  0  0  0  0  0  0  0  0  0  0  0
   -2.3909    0.0962    0.5662 H   0  0  0  0  0  0  0  0  0  0  0  0
   -2.7355   -0.0882   -1.1763 H   0  0  0  0  0  0  0  0  0  0  0  0
   -1.5065    1.6285   -0.6856 C   0  0  0  0  0  0  0  0  0  0  0  0
   -2.1508    2.3630   -0.1926 H   0  0  0  0  0  0  0  0  0  0  0  0
   -1.4906    1.8393   -1.7600 H   0  0  0  0  0  0  0  0  0  0  0  0
   -0.0883    1.6416   -0.1289 C   0  0  0  0  0  0  0  0  0  0  0  0
   -0.1255    1.7966    0.9551 H   0  0  0  0  0  0  0  0  0  0  0  0
    0.5185    2.4385   -0.5697 H   0  0  0  0  0  0  0  0  0  0  0  0
    0.4666    0.2502   -0.4669 C   0  0  1  0  0  0  0  0  0  0  0  0
    0.9514    0.2821   -1.4471 H   0  0  0  0  0  0  0  0  0  0  0  0
    1.5060   -0.2304    0.5763 C   0  0  0  0  0  0  0  0  0  0  0  0
    1.2425   -0.2195    1.7745 O   0  0  0  0  0  0  0  0  0  0  0  0
    2.7829   -0.5719    0.1683 N   0  0  0  0  0  0  0  0  0  0  0  0
    2.8859   -0.7796   -0.8210 H   0  0  0  0  0  0  0  0  0  0  0  0
    3.7729   -1.1218    1.0857 C   0  0  0  0  0  0  0  0  0  0  0  0
    3.4194   -2.0694    1.5058 H   0  0  0  0  0  0  0  0  0  0  0  0
    4.7146   -1.3041    0.5594 H   0  0  0  0  0  0  0  0  0  0  0  0
    3.9676   -0.4227    1.9056 H   0  0  0  0  0  0  0  0  0  0  0  0
  1  2  1  0  0  0  0
  2  3  1  0  0  0  0
  2  4  1  0  0  0  0
  2  5  1  0  0  0  0
  5  6  2  0  0  0  0
  5  7  1  0  0  0  0
  7  8  1  0  0  0  0
  7 17  1  0  0  0  0
  8  9  1  0  0  0  0
  8 10  1  0  0  0  0
  8 11  1  0  0  0  0
 11 12  1  0  0  0  0
 11 13  1  0  0  0  0
 11 14  1  0  0  0  0
 14 15  1  0  0  0  0
 14 16  1  0  0  0  0
 14 17  1  0  0  0  0
 17 18  1  0  0  0  0
 17 19  1  0  0  0  0
 19 20  2  0  0  0  0
 19 21  1  0  0  0  0
 21 22  1  0  0  0  0
 21 23  1  0  0  0  0
 23 24  1  0  0  0  0
 23 25  1  0  0  0  0
 23 26  1  0  0  0  0
M  END
$$$$

  -OEChem-01062216093D

 26 26  0     1  0  0  0  0  0999 V2000
   -1.7524   -3.8573   -0.4852 H   0  0  0  0  0  0  0  0  0  0  0  0
   -1.9976   -2.7916   -0.4817 C   0  0  0  0  0  0  0  0  0  0  0  0
   -2.4882   -2.5502    0.4642 H   0  0  0  0  0  0  0  0  0  0  0  0
   -2.6836   -2.5864   -1.3066 H   0  0  0  0  0  0  0  0  0  0  0  0
   -0.7306   -1.9630   -0.6359 C   0  0  0  0  0  0  0  0  0  0  0  0
    0.3225   -2.5417   -0.8693 O   0  0  0  0  0  0  0  0  0  0  0  0
   -0.7548   -0.5719   -0.5978 N   0  0  0  0  0  0  0  0  0  0  0  0
   -1.9773    0.2010   -0.4502 C   0  0  0  0  0  0  0  0  0  0  0  0
   -2.3853    0.0846    0.5597 H   0  0  0  0  0  0  0  0  0  0  0  0
   -2.7418   -0.0784   -1.1824 H   0  0  0  0  0  0  0  0  0  0  0  0
   -1.5037    1.6291   -0.6787 C   0  0  0  0  0  0  0  0  0  0  0  0
   -2.1419    2.3598   -0.1723 H   0  0  0  0  0  0  0  0  0  0  0  0
   -1.4933    1.8536   -1.7503 H   0  0  0  0  0  0  0  0  0  0  0  0
   -0.0826    1.6288   -0.1298 C   0  0  0  0  0  0  0  0  0  0  0  0
   -0.1112    1.7669    0.9570 H   0  0  0  0  0  0  0  0  0  0  0  0
    0.5247    2.4294   -0.5632 H   0  0  0  0  0  0  0  0  0  0  0  0
    0.4657    0.2409   -0.4873 C   0  0  1  0  0  0  0  0  0  0  0  0
    0.9538    0.2745   -1.4659 H   0  0  0  0  0  0  0  0  0  0  0  0
    1.4949   -0.2377    0.5659 C   0  0  0  0  0  0  0  0  0  0  0  0
    1.1507   -0.4319    1.7274 O   0  0  0  0  0  0  0  0  0  0  0  0
    2.8396   -0.2916    0.2446 N   0  0  0  0  0  0  0  0  0  0  0  0
    3.0675   -0.2788   -0.7449 H   0  0  0  0  0  0  0  0  0  0  0  0
    3.8485   -0.7759    1.1784 C   0  0  0  0  0  0  0  0  0  0  0  0
    3.6532   -1.8203    1.4436 H   0  0  0  0  0  0  0  0  0  0  0  0
    4.8432   -0.7114    0.7273 H   0  0  0  0  0  0  0  0  0  0  0  0
    3.8466   -0.1734    2.0929 H   0  0  0  0  0  0  0  0  0  0  0  0
  1  2  1  0  0  0  0
  2  3  1  0  0  0  0
  2  4  1  0  0  0  0
  2  5  1  0  0  0  0
  5  6  2  0  0  0  0
  5  7  1  0  0  0  0
  7  8  1  0  0  0  0
  7 17  1  0  0  0  0
  8  9  1  0  0  0  0
  8 10  1  0  0  0  0
  8 11  1  0  0  0  0
 11 12  1  0  0  0  0
 11 13  1  0  0  0  0
 11 14  1  0  0  0  0
 14 15  1  0  0  0  0
 14 16  1  0  0  0  0
 14 17  1  0  0  0  0
 17 18  1  0  0  0  0
 17 19  1  0  0  0  0
 19 20  2  0  0  0  0
 19 21  1  0  0  0  0
 21 22  1  0  0  0  0
 21 23  1  0  0  0  0
 23 24  1  0  0  0  0
 23 25  1  0  0  0  0
 23 26  1  0  0  0  0
M  END
$$$$

  -OEChem-01062216093D

 26 26  0     1  0  0  0  0  0999 V2000
   -1.7753   -3.8592   -0.4847 H   0  0  0  0  0  0  0  0  0  0  0  0
   -2.0128   -2.7919   -0.4799 C   0  0  0  0  0  0  0  0  0  0  0  0
   -2.4905   -2.5459    0.4715 H   0  0  0  0  0  0  0  0  0  0  0  0
   -2.7068   -2.5821   -1.2969 H   0  0  0  0  0  0  0  0  0  0  0  0
   -0.7420   -1.9723   -0.6489 C   0  0  0  0  0  0  0  0  0  0  0  0
    0.3031   -2.5563   -0.9040 O   0  0  0  0  0  0  0  0  0  0  0  0
   -0.7581   -0.5811   -0.6119 N   0  0  0  0  0  0  0  0  0  0  0  0
   -1.9761    0.1971   -0.4595 C   0  0  0  0  0  0  0  0  0  0  0  0
   -2.3859    0.0742    0.5489 H   0  0  0  0  0  0  0  0  0  0  0  0
   -2.7412   -0.0722   -1.1951 H   0  0  0  0  0  0  0  0  0  0  0  0
   -1.4941    1.6242   -0.6750 C   0  0  0  0  0  0  0  0  0  0  0  0
   -2.1292    2.3544   -0.1640 H   0  0  0  0  0  0  0  0  0  0  0  0
   -1.4805    1.8570   -1.7448 H   0  0  0  0  0  0  0  0  0  0  0  0
   -0.0741    1.6094   -0.1239 C   0  0  0  0  0  0  0  0  0  0  0  0
   -0.1033    1.7335    0.9647 H   0  0  0  0  0  0  0  0  0  0  0  0
    0.5383    2.4113   -0.5473 H   0  0  0  0  0  0  0  0  0  0  0  0
    0.4677    0.2227   -0.4920 C   0  0  1  0  0  0  0  0  0  0  0  0
    0.9604    0.2558   -1.4682 H   0  0  0  0  0  0  0  0  0  0  0  0
    1.4927   -0.2524    0.5666 C   0  0  0  0  0  0  0  0  0  0  0  0
    1.1163   -0.6496    1.6647 O   0  0  0  0  0  0  0  0  0  0  0  0
    2.8426   -0.0202    0.3680 N   0  0  0  0  0  0  0  0  0  0  0  0
    3.1323    0.2316   -0.5718 H   0  0  0  0  0  0  0  0  0  0  0  0
    3.8635   -0.4285    1.3252 C   0  0  0  0  0  0  0  0  0  0  0  0
    3.8541   -1.5161    1.4530 H   0  0  0  0  0  0  0  0  0  0  0  0
    4.8546   -0.1286    0.9713 H   0  0  0  0  0  0  0  0  0  0  0  0
    3.6887    0.0428    2.2982 H   0  0  0  0  0  0  0  0  0  0  0  0
  1  2  1  0  0  0  0
  2  3  1  0  0  0  0
  2  4  1  0  0  0  0
  2  5  1  0  0  0  0
  5  6  2  0  0  0  0
  5  7  1  0  0  0  0
  7  8  1  0  0  0  0
  7 17  1  0  0  0  0
  8  9  1  0  0  0  0
  8 10  1  0  0  0  0
  8 11  1  0  0  0  0
 11 12  1  0  0  0  0
 11 13  1  0  0  0  0
 11 14  1  0  0  0  0
 14 15  1  0  0  0  0
 14 16  1  0  0  0  0
 14 17  1  0  0  0  0
 17 18  1  0  0  0  0
 17 19  1  0  0  0  0
 19 20  2  0  0  0  0
 19 21  1  0  0  0  0
 21 22  1  0  0  0  0
 21 23  1  0  0  0  0
 23 24  1  0  0  0  0
 23 25  1  0  0  0  0
 23 26  1  0  0  0  0
M  END
$$$$

  -OEChem-01062216093D

 26 26  0     1  0  0  0  0  0999 V2000
   -1.7959   -3.8627   -0.4973 H   0  0  0  0  0  0  0  0  0  0  0  0
   -2.0265   -2.7939   -0.4801 C   0  0  0  0  0  0  0  0  0  0  0  0
   -2.4856   -2.5522    0.4815 H   0  0  0  0  0  0  0  0  0  0  0  0
   -2.7335   -2.5736   -1.2830 H   0  0  0  0  0  0  0  0  0  0  0  0
   -0.7533   -1.9812   -0.6659 C   0  0  0  0  0  0  0  0  0  0  0  0
    0.2800   -2.5688   -0.9576 O   0  0  0  0  0  0  0  0  0  0  0  0
   -0.7593   -0.5897   -0.6239 N   0  0  0  0  0  0  0  0  0  0  0  0
   -1.9728    0.1941   -0.4661 C   0  0  0  0  0  0  0  0  0  0  0  0
   -2.3856    0.0647    0.5403 H   0  0  0  0  0  0  0  0  0  0  0  0
   -2.7379   -0.0640   -1.2056 H   0  0  0  0  0  0  0  0  0  0  0  0
   -1.4817    1.6198   -0.6675 C   0  0  0  0  0  0  0  0  0  0  0  0
   -2.1124    2.3489   -0.1498 H   0  0  0  0  0  0  0  0  0  0  0  0
   -1.4658    1.8629   -1.7349 H   0  0  0  0  0  0  0  0  0  0  0  0
   -0.0626    1.5896   -0.1151 C   0  0  0  0  0  0  0  0  0  0  0  0
   -0.0927    1.7022    0.9749 H   0  0  0  0  0  0  0  0  0  0  0  0
    0.5550    2.3926   -0.5293 H   0  0  0  0  0  0  0  0  0  0  0  0
    0.4736    0.2033   -0.4949 C   0  0  1  0  0  0  0  0  0  0  0  0
    0.9688    0.2385   -1.4697 H   0  0  0  0  0  0  0  0  0  0  0  0
    1.5003   -0.2711    0.5642 C   0  0  0  0  0  0  0  0  0  0  0  0
    1.1344   -0.8559    1.5786 O   0  0  0  0  0  0  0  0  0  0  0  0
    2.7934    0.2225    0.5236 N   0  0  0  0  0  0  0  0  0  0  0  0
    3.0887    0.6808   -0.3326 H   0  0  0  0  0  0  0  0  0  0  0  0
    3.8015   -0.1081    1.5238 C   0  0  0  0  0  0  0  0  0  0  0  0
    3.9856   -1.1874    1.5378 H   0  0  0  0  0  0  0  0  0  0  0  0
    4.7421    0.4020    1.2959 H   0  0  0  0  0  0  0  0  0  0  0  0
    3.4725    0.2066    2.5198 H   0  0  0  0  0  0  0  0  0  0  0  0
  1  2  1  0  0  0  0
  2  3  1  0  0  0  0
  2  4  1  0  0  0  0
  2  5  1  0  0  0  0
  5  6  2  0  0  0  0
  5  7  1  0  0  0  0
  7  8  1  0  0  0  0
  7 17  1  0  0  0  0
  8  9  1  0  0  0  0
  8 10  1  0  0  0  0
  8 11  1  0  0  0  0
 11 12  1  0  0  0  0
 11 13  1  0  0  0  0
 11 14  1  0  0  0  0
 14 15  1  0  0  0  0
 14 16  1  0  0  0  0
 14 17  1  0  0  0  0
 17 18  1  0  0  0  0
 17 19  1  0  0  0  0
 19 20  2  0  0  0  0
 19 21  1  0  0  0  0
 21 22  1  0  0  0  0
 21 23  1  0  0  0  0
 23 24  1  0  0  0  0
 23 25  1  0  0  0  0
 23 26  1  0  0  0  0
M  END
$$$$

  -OEChem-01062216093D

 26 26  0     1  0  0  0  0  0999 V2000
   -1.8463   -3.8555   -0.6901 H   0  0  0  0  0  0  0  0  0  0  0  0
   -2.0324   -2.7952   -0.4980 C   0  0  0  0  0  0  0  0  0  0  0  0
   -2.2753   -2.6716    0.5599 H   0  0  0  0  0  0  0  0  0  0  0  0
   -2.8817   -2.4727   -1.1044 H   0  0  0  0  0  0  0  0  0  0  0  0
   -0.7962   -1.9768   -0.8451 C   0  0  0  0  0  0  0  0  0  0  0  0
    0.1415   -2.5446   -1.3890 O   0  0  0  0  0  0  0  0  0  0  0  0
   -0.7694   -0.5870   -0.7404 N   0  0  0  0  0  0  0  0  0  0  0  0
   -1.9417    0.1533   -0.2967 C   0  0  0  0  0  0  0  0  0  0  0  0
   -2.2697   -0.1942    0.6891 H   0  0  0  0  0  0  0  0  0  0  0  0
   -2.7746    0.0697   -1.0027 H   0  0  0  0  0  0  0  0  0  0  0  0
   -1.4439    1.5854   -0.2088 C   0  0  0  0  0  0  0  0  0  0  0  0
   -2.0142    2.1765    0.5144 H   0  0  0  0  0  0  0  0  0  0  0  0
   -1.5132    2.0666   -1.1900 H   0  0  0  0  0  0  0  0  0  0  0  0
    0.0137    1.4286    0.1953 C   0  0  0  0  0  0  0  0  0  0  0  0
    0.0798    1.2849    1.2800 H   0  0  0  0  0  0  0  0  0  0  0  0
    0.6085    2.3062   -0.0757 H   0  0  0  0  0  0  0  0  0  0  0  0
    0.4863    0.1663   -0.5374 C   0  0  1  0  0  0  0  0  0  0  0  0
    0.8699    0.4337   -1.5264 H   0  0  0  0  0  0  0  0  0  0  0  0
    1.6565   -0.4917    0.2441 C   0  0  0  0  0  0  0  0  0  0  0  0
    1.4666   -1.4192    1.0231 O   0  0  0  0  0  0  0  0  0  0  0  0
    2.8244    0.2348    0.4141 N   0  0  0  0  0  0  0  0  0  0  0  0
    2.9706    1.0305   -0.1987 H   0  0  0  0  0  0  0  0  0  0  0  0
    3.9200   -0.1951    1.2755 C   0  0  0  0  0  0  0  0  0  0  0  0
    4.2953   -1.1738    0.9581 H   0  0  0  0  0  0  0  0  0  0  0  0
    4.7435    0.5237    1.2264 H   0  0  0  0  0  0  0  0  0  0  0  0
    3.5857   -0.2658    2.3160 H   0  0  0  0  0  0  0  0  0  0  0  0
  1  2  1  0  0  0  0
  2  3  1  0  0  0  0
  2  4  1  0  0  0  0
  2  5  1  0  0  0  0
  5  6  2  0  0  0  0
  5  7  1  0  0  0  0
  7  8  1  0  0  0  0
  7 17  1  0  0  0  0
  8  9  1  0  0  0  0
  8 10  1  0  0  0  0
  8 11  1  0  0  0  0
 11 12  1  0  0  0  0
 11 13  1  0  0  0  0
 11 14  1  0  0  0  0
 14 15  1  0  0  0  0
 14 16  1  0  0  0  0
 14 17  1  0  0  0  0
 17 18  1  0  0  0  0
 17 19  1  0  0  0  0
 19 20  2  0  0  0  0
 19 21  1  0  0  0  0
 21 22  1  0  0  0  0
 21 23  1  0  0  0  0
 23 24  1  0  0  0  0
 23 25  1  0  0  0  0
 23 26  1  0  0  0  0
M  END
$$$$

  -OEChem-01062216093D

 26 26  0     1  0  0  0  0  0999 V2000
   -1.8450   -3.8556   -0.6780 H   0  0  0  0  0  0  0  0  0  0  0  0
   -2.0238   -2.7960   -0.4749 C   0  0  0  0  0  0  0  0  0  0  0  0
   -2.2273   -2.6770    0.5918 H   0  0  0  0  0  0  0  0  0  0  0  0
   -2.8945   -2.4710   -1.0485 H   0  0  0  0  0  0  0  0  0  0  0  0
   -0.8004   -1.9771   -0.8644 C   0  0  0  0  0  0  0  0  0  0  0  0
    0.0980   -2.5369   -1.4773 O   0  0  0  0  0  0  0  0  0  0  0  0
   -0.7609   -0.5890   -0.7432 N   0  0  0  0  0  0  0  0  0  0  0  0
   -1.9355    0.1518   -0.3069 C   0  0  0  0  0  0  0  0  0  0  0  0
   -2.2698   -0.1951    0.6770 H   0  0  0  0  0  0  0  0  0  0  0  0
   -2.7640    0.0670   -1.0179 H   0  0  0  0  0  0  0  0  0  0  0  0
   -1.4414    1.5842   -0.2172 C   0  0  0  0  0  0  0  0  0  0  0  0
   -2.0174    2.1751    0.5018 H   0  0  0  0  0  0  0  0  0  0  0  0
   -1.5047    2.0645   -1.1992 H   0  0  0  0  0  0  0  0  0  0  0  0
    0.0126    1.4269    0.1963 C   0  0  0  0  0  0  0  0  0  0  0  0
    0.0688    1.2840    1.2815 H   0  0  0  0  0  0  0  0  0  0  0  0
    0.6066    2.3064   -0.0708 H   0  0  0  0  0  0  0  0  0  0  0  0
    0.4960    0.1636   -0.5321 C   0  0  1  0  0  0  0  0  0  0  0  0
    0.8777    0.4351   -1.5208 H   0  0  0  0  0  0  0  0  0  0  0  0
    1.6845   -0.4812    0.2420 C   0  0  0  0  0  0  0  0  0  0  0  0
    1.5959   -1.5650    0.8051 O   0  0  0  0  0  0  0  0  0  0  0  0
    2.7078    0.3449    0.6832 N   0  0  0  0  0  0  0  0  0  0  0  0
    2.7639    1.2742    0.2796 H   0  0  0  0  0  0  0  0  0  0  0  0
    3.7682   -0.0919    1.5854 C   0  0  0  0  0  0  0  0  0  0  0  0
    4.3135   -0.9382    1.1546 H   0  0  0  0  0  0  0  0  0  0  0  0
    4.4767    0.7235    1.7592 H   0  0  0  0  0  0  0  0  0  0  0  0
    3.3495   -0.3967    2.5504 H   0  0  0  0  0  0  0  0  0  0  0  0
  1  2  1  0  0  0  0
  2  3  1  0  0  0  0
  2  4  1  0  0  0  0
  2  5  1  0  0  0  0
  5  6  2  0  0  0  0
  5  7  1  0  0  0  0
  7  8  1  0  0  0  0
  7 17  1  0  0  0  0
  8  9  1  0  0  0  0
  8 10  1  0  0  0  0
  8 11  1  0  0  0  0
 11 12  1  0  0  0  0
 11 13  1  0  0  0  0
 11 14  1  0  0  0  0
 14 15  1  0  0  0  0
 14 16  1  0  0  0  0
 14 17  1  0  0  0  0
 17 18  1  0  0  0  0
 17 19  1  0  0  0  0
 19 20  2  0  0  0  0
 19 21  1  0  0  0  0
 21 22  1  0  0  0  0
 21 23  1  0  0  0  0
 23 24  1  0  0  0  0
 23 25  1  0  0  0  0
 23 26  1  0  0  0  0
M  END
$$$$

  -OEChem-01062216093D

 26 26  0     1  0  0  0  0  0999 V2000
   -1.8413   -3.8553   -0.6243 H   0  0  0  0  0  0  0  0  0  0  0  0
   -2.0228   -2.7915   -0.4470 C   0  0  0  0  0  0  0  0  0  0  0  0
   -2.2237   -2.6473    0.6170 H   0  0  0  0  0  0  0  0  0  0  0  0
   -2.8963   -2.4833   -1.0259 H   0  0  0  0  0  0  0  0  0  0  0  0
   -0.8030   -1.9792   -0.8618 C   0  0  0  0  0  0  0  0  0  0  0  0
    0.0555   -2.5382   -1.5275 O   0  0  0  0  0  0  0  0  0  0  0  0
   -0.7500   -0.5927   -0.7275 N   0  0  0  0  0  0  0  0  0  0  0  0
   -1.9367    0.1509   -0.3296 C   0  0  0  0  0  0  0  0  0  0  0  0
   -2.2929   -0.1816    0.6515 H   0  0  0  0  0  0  0  0  0  0  0  0
   -2.7481    0.0514   -1.0583 H   0  0  0  0  0  0  0  0  0  0  0  0
   -1.4526    1.5865   -0.2512 C   0  0  0  0  0  0  0  0  0  0  0  0
   -2.0483    2.1860    0.4443 H   0  0  0  0  0  0  0  0  0  0  0  0
   -1.4948    2.0507   -1.2421 H   0  0  0  0  0  0  0  0  0  0  0  0
   -0.0088    1.4421    0.1985 C   0  0  0  0  0  0  0  0  0  0  0  0
    0.0165    1.3186    1.2872 H   0  0  0  0  0  0  0  0  0  0  0  0
    0.5869    2.3205   -0.0694 H   0  0  0  0  0  0  0  0  0  0  0  0
    0.5005    0.1686   -0.4987 C   0  0  1  0  0  0  0  0  0  0  0  0
    0.8912    0.4345   -1.4857 H   0  0  0  0  0  0  0  0  0  0  0  0
    1.7019   -0.4541    0.2816 C   0  0  0  0  0  0  0  0  0  0  0  0
    1.8130   -1.6468    0.5240 O   0  0  0  0  0  0  0  0  0  0  0  0
    2.5413    0.3844    1.0019 N   0  0  0  0  0  0  0  0  0  0  0  0
    2.4394    1.3832    0.8566 H   0  0  0  0  0  0  0  0  0  0  0  0
    3.6112   -0.0903    1.8734 C   0  0  0  0  0  0  0  0  0  0  0  0
    4.3330   -0.6858    1.3043 H   0  0  0  0  0  0  0  0  0  0  0  0
    4.1389    0.7574    2.3205 H   0  0  0  0  0  0  0  0  0  0  0  0
    3.2039   -0.7078    2.6810 H   0  0  0  0  0  0  0  0  0  0  0  0
  1  2  1  0  0  0  0
  2  3  1  0  0  0  0
  2  4  1  0  0  0  0
  2  5  1  0  0  0  0
  5  6  2  0  0  0  0
  5  7  1  0  0  0  0
  7  8  1  0  0  0  0
  7 17  1  0  0  0  0
  8  9  1  0  0  0  0
  8 10  1  0  0  0  0
  8 11  1  0  0  0  0
 11 12  1  0  0  0  0
 11 13  1  0  0  0  0
 11 14  1  0  0  0  0
 14 15  1  0  0  0  0
 14 16  1  0  0  0  0
 14 17  1  0  0  0  0
 17 18  1  0  0  0  0
 17 19  1  0  0  0  0
 19 20  2  0  0  0  0
 19 21  1  0  0  0  0
 21 22  1  0  0  0  0
 21 23  1  0  0  0  0
 23 24  1  0  0  0  0
 23 25  1  0  0  0  0
 23 26  1  0  0  0  0
M  END
$$$$

  -OEChem-01062216093D

 26 26  0     1  0  0  0  0  0999 V2000
   -1.9562   -3.8451   -0.6356 H   0  0  0  0  0  0  0  0  0  0  0  0
   -2.1161   -2.7716   -0.5007 C   0  0  0  0  0  0  0  0  0  0  0  0
   -2.4307   -2.5958    0.5303 H   0  0  0  0  0  0  0  0  0  0  0  0
   -2.9073   -2.4491   -1.1812 H   0  0  0  0  0  0  0  0  0  0  0  0
   -0.8281   -2.0109   -0.7931 C   0  0  0  0  0  0  0  0  0  0  0  0
    0.0748   -2.6370   -1.3181 O   0  0  0  0  0  0  0  0  0  0  0  0
   -0.7448   -0.6243   -0.6574 N   0  0  0  0  0  0  0  0  0  0  0  0
   -1.9436    0.1422   -0.3417 C   0  0  0  0  0  0  0  0  0  0  0  0
   -2.3443   -0.1495    0.6352 H   0  0  0  0  0  0  0  0  0  0  0  0
   -2.7241    0.0199   -1.1003 H   0  0  0  0  0  0  0  0  0  0  0  0
   -1.4574    1.5774   -0.3007 C   0  0  0  0  0  0  0  0  0  0  0  0
   -2.0797    2.2059    0.3440 H   0  0  0  0  0  0  0  0  0  0  0  0
   -1.4569    2.0011   -1.3107 H   0  0  0  0  0  0  0  0  0  0  0  0
   -0.0338    1.4521    0.2134 C   0  0  0  0  0  0  0  0  0  0  0  0
   -0.0612    1.3750    1.3057 H   0  0  0  0  0  0  0  0  0  0  0  0
    0.5772    2.3167   -0.0648 H   0  0  0  0  0  0  0  0  0  0  0  0
    0.4979    0.1499   -0.4106 C   0  0  1  0  0  0  0  0  0  0  0  0
    0.9077    0.3871   -1.3973 H   0  0  0  0  0  0  0  0  0  0  0  0
    1.7017   -0.4449    0.3872 C   0  0  0  0  0  0  0  0  0  0  0  0
    2.1885   -1.5417    0.1692 O   0  0  0  0  0  0  0  0  0  0  0  0
    2.3349    0.3181    1.3589 N   0  0  0  0  0  0  0  0  0  0  0  0
    1.9816    1.2546    1.5229 H   0  0  0  0  0  0  0  0  0  0  0  0
    3.5036   -0.1310    2.1087 C   0  0  0  0  0  0  0  0  0  0  0  0
    4.3470   -0.3094    1.4333 H   0  0  0  0  0  0  0  0  0  0  0  0
    3.7997    0.6279    2.8391 H   0  0  0  0  0  0  0  0  0  0  0  0
    3.2809   -1.0585    2.6467 H   0  0  0  0  0  0  0  0  0  0  0  0
  1  2  1  0  0  0  0
  2  3  1  0  0  0  0
  2  4  1  0  0  0  0
  2  5  1  0  0  0  0
  5  6  2  0  0  0  0
  5  7  1  0  0  0  0
  7  8  1  0  0  0  0
  7 17  1  0  0  0  0
  8  9  1  0  0  0  0
  8 10  1  0  0  0  0
  8 11  1  0  0  0  0
 11 12  1  0  0  0  0
 11 13  1  0  0  0  0
 11 14  1  0  0  0  0
 14 15  1  0  0  0  0
 14 16  1  0  0  0  0
 14 17  1  0  0  0  0
 17 18  1  0  0  0  0
 17 19  1  0  0  0  0
 19 20  2  0  0  0  0
 19 21  1  0  0  0  0
 21 22  1  0  0  0  0
 21 23  1  0  0  0  0
 23 24  1  0  0  0  0
 23 25  1  0  0  0  0
 23 26  1  0  0  0  0
M  END
$$$$

  -OEChem-01062216093D

 26 26  0     1  0  0  0  0  0999 V2000
   -2.0724   -3.8322   -0.7738 H   0  0  0  0  0  0  0  0  0  0  0  0
   -2.2121   -2.7528   -0.6645 C   0  0  0  0  0  0  0  0  0  0  0  0
   -2.7474   -2.5656    0.2691 H   0  0  0  0  0  0  0  0  0  0  0  0
   -2.8125   -2.3948   -1.5040 H   0  0  0  0  0  0  0  0  0  0  0  0
   -0.8604   -2.0479   -0.6473 C   0  0  0  0  0  0  0  0  0  0  0  0
    0.1229   -2.7534   -0.7657 O   0  0  0  0  0  0  0  0  0  0  0  0
   -0.7640   -0.6586   -0.5392 N   0  0  0  0  0  0  0  0  0  0  0  0
   -1.9625    0.1352   -0.2928 C   0  0  0  0  0  0  0  0  0  0  0  0
   -2.3868   -0.1027    0.6888 H   0  0  0  0  0  0  0  0  0  0  0  0
   -2.7286   -0.0140   -1.0611 H   0  0  0  0  0  0  0  0  0  0  0  0
   -1.4563    1.5629   -0.3197 C   0  0  0  0  0  0  0  0  0  0  0  0
   -2.0812    2.2319    0.2799 H   0  0  0  0  0  0  0  0  0  0  0  0
   -1.4383    1.9317   -1.3508 H   0  0  0  0  0  0  0  0  0  0  0  0
   -0.0381    1.4615    0.2192 C   0  0  0  0  0  0  0  0  0  0  0  0
   -0.0789    1.4510    1.3128 H   0  0  0  0  0  0  0  0  0  0  0  0
    0.5860    2.3018   -0.1024 H   0  0  0  0  0  0  0  0  0  0  0  0
    0.4809    0.1221   -0.3273 C   0  0  1  0  0  0  0  0  0  0  0  0
    0.8827    0.3139   -1.3276 H   0  0  0  0  0  0  0  0  0  0  0  0
    1.6872   -0.4697    0.4591 C   0  0  0  0  0  0  0  0  0  0  0  0
    2.4711   -1.2342   -0.0846 O   0  0  0  0  0  0  0  0  0  0  0  0
    2.1477    0.1454    1.6146 N   0  0  0  0  0  0  0  0  0  0  0  0
    1.5467    0.8381    2.0468 H   0  0  0  0  0  0  0  0  0  0  0  0
    3.3877   -0.2246    2.2888 C   0  0  0  0  0  0  0  0  0  0  0  0
    4.2471   -0.0520    1.6324 H   0  0  0  0  0  0  0  0  0  0  0  0
    3.5195    0.3752    3.1943 H   0  0  0  0  0  0  0  0  0  0  0  0
    3.3683   -1.2819    2.5736 H   0  0  0  0  0  0  0  0  0  0  0  0
  1  2  1  0  0  0  0
  2  3  1  0  0  0  0
  2  4  1  0  0  0  0
  2  5  1  0  0  0  0
  5  6  2  0  0  0  0
  5  7  1  0  0  0  0
  7  8  1  0  0  0  0
  7 17  1  0  0  0  0
  8  9  1  0  0  0  0
  8 10  1  0  0  0  0
  8 11  1  0  0  0  0
 11 12  1  0  0  0  0
 11 13  1  0  0  0  0
 11 14  1  0  0  0  0
 14 15  1  0  0  0  0
 14 16  1  0  0  0  0
 14 17  1  0  0  0  0
 17 18  1  0  0  0  0
 17 19  1  0  0  0  0
 19 20  2  0  0  0  0
 19 21  1  0  0  0  0
 21 22  1  0  0  0  0
 21 23  1  0  0  0  0
 23 24  1  0  0  0  0
 23 25  1  0  0  0  0
 23 26  1  0  0  0  0
M  END
$$$$

  -OEChem-01062216093D

 26 26  0     1  0  0  0  0  0999 V2000
   -2.0217   -3.8331   -0.7772 H   0  0  0  0  0  0  0  0  0  0  0  0
   -2.1783   -2.7558   -0.6718 C   0  0  0  0  0  0  0  0  0  0  0  0
   -2.7347   -2.5745    0.2506 H   0  0  0  0  0  0  0  0  0  0  0  0
   -2.7664   -2.4062   -1.5236 H   0  0  0  0  0  0  0  0  0  0  0  0
   -0.8380   -2.0316   -0.6285 C   0  0  0  0  0  0  0  0  0  0  0  0
    0.1643   -2.7191   -0.6957 O   0  0  0  0  0  0  0  0  0  0  0  0
   -0.7651   -0.6408   -0.5320 N   0  0  0  0  0  0  0  0  0  0  0  0
   -1.9680    0.1443   -0.2830 C   0  0  0  0  0  0  0  0  0  0  0  0
   -2.3843   -0.0903    0.7026 H   0  0  0  0  0  0  0  0  0  0  0  0
   -2.7375   -0.0157   -1.0454 H   0  0  0  0  0  0  0  0  0  0  0  0
   -1.4682    1.5751   -0.3235 C   0  0  0  0  0  0  0  0  0  0  0  0
   -2.0927    2.2453    0.2752 H   0  0  0  0  0  0  0  0  0  0  0  0
   -1.4600    1.9357   -1.3576 H   0  0  0  0  0  0  0  0  0  0  0  0
   -0.0439    1.4894    0.2057 C   0  0  0  0  0  0  0  0  0  0  0  0
   -0.0709    1.4929    1.2989 H   0  0  0  0  0  0  0  0  0  0  0  0
    0.5722    2.3293   -0.1314 H   0  0  0  0  0  0  0  0  0  0  0  0
    0.4737    0.1490   -0.3367 C   0  0  1  0  0  0  0  0  0  0  0  0
    0.8679    0.3379   -1.3409 H   0  0  0  0  0  0  0  0  0  0  0  0
    1.6728   -0.4550    0.4454 C   0  0  0  0  0  0  0  0  0  0  0  0
    2.5741   -1.0148   -0.1648 O   0  0  0  0  0  0  0  0  0  0  0  0
    1.9549   -0.0525    1.7422 N   0  0  0  0  0  0  0  0  0  0  0  0
    1.2157    0.4188    2.2520 H   0  0  0  0  0  0  0  0  0  0  0  0
    3.1483   -0.4721    2.4684 C   0  0  0  0  0  0  0  0  0  0  0  0
    4.0515   -0.1304    1.9517 H   0  0  0  0  0  0  0  0  0  0  0  0
    3.1470   -0.0470    3.4766 H   0  0  0  0  0  0  0  0  0  0  0  0
    3.1815   -1.5636    2.5515 H   0  0  0  0  0  0  0  0  0  0  0  0
  1  2  1  0  0  0  0
  2  3  1  0  0  0  0
  2  4  1  0  0  0  0
  2  5  1  0  0  0  0
  5  6  2  0  0  0  0
  5  7  1  0  0  0  0
  7  8  1  0  0  0  0
  7 17  1  0  0  0  0
  8  9  1  0  0  0  0
  8 10  1  0  0  0  0
  8 11  1  0  0  0  0
 11 12  1  0  0  0  0
 11 13  1  0  0  0  0
 11 14  1  0  0  0  0
 14 15  1  0  0  0  0
 14 16  1  0  0  0  0
 14 17  1  0  0  0  0
 17 18  1  0  0  0  0
 17 19  1  0  0  0  0
 19 20  2  0  0  0  0
 19 21  1  0  0  0  0
 21 22  1  0  0  0  0
 21 23  1  0  0  0  0
 23 24  1  0  0  0  0
 23 25  1  0  0  0  0
 23 26  1  0  0  0  0
M  END
$$$$

  -OEChem-01062216093D

 26 26  0     1  0  0  0  0  0999 V2000
   -1.9737   -3.8341   -0.7722 H   0  0  0  0  0  0  0  0  0  0  0  0
   -2.1456   -2.7593   -0.6639 C   0  0  0  0  0  0  0  0  0  0  0  0
   -2.6982   -2.5870    0.2624 H   0  0  0  0  0  0  0  0  0  0  0  0
   -2.7446   -2.4169   -1.5109 H   0  0  0  0  0  0  0  0  0  0  0  0
   -0.8158   -2.0163   -0.6299 C   0  0  0  0  0  0  0  0  0  0  0  0
    0.1999   -2.6861   -0.6920 O   0  0  0  0  0  0  0  0  0  0  0  0
   -0.7608   -0.6248   -0.5429 N   0  0  0  0  0  0  0  0  0  0  0  0
   -1.9651    0.1522   -0.2773 C   0  0  0  0  0  0  0  0  0  0  0  0
   -2.3696   -0.0893    0.7117 H   0  0  0  0  0  0  0  0  0  0  0  0
   -2.7418   -0.0088   -1.0323 H   0  0  0  0  0  0  0  0  0  0  0  0
   -1.4710    1.5862   -0.3155 C   0  0  0  0  0  0  0  0  0  0  0  0
   -2.0928    2.2508    0.2924 H   0  0  0  0  0  0  0  0  0  0  0  0
   -1.4741    1.9524   -1.3478 H   0  0  0  0  0  0  0  0  0  0  0  0
   -0.0406    1.5055    0.1998 C   0  0  0  0  0  0  0  0  0  0  0  0
   -0.0496    1.5064    1.2937 H   0  0  0  0  0  0  0  0  0  0  0  0
    0.5690    2.3479   -0.1429 H   0  0  0  0  0  0  0  0  0  0  0  0
    0.4733    0.1705   -0.3550 C   0  0  1  0  0  0  0  0  0  0  0  0
    0.8646    0.3629   -1.3598 H   0  0  0  0  0  0  0  0  0  0  0  0
    1.6624   -0.4417    0.4297 C   0  0  0  0  0  0  0  0  0  0  0  0
    2.6664   -0.7954   -0.1752 O   0  0  0  0  0  0  0  0  0  0  0  0
    1.7623   -0.2824    1.8026 N   0  0  0  0  0  0  0  0  0  0  0  0
    0.9127   -0.0293    2.2954 H   0  0  0  0  0  0  0  0  0  0  0  0
    2.9001   -0.7654    2.5758 C   0  0  0  0  0  0  0  0  0  0  0  0
    3.8244   -0.2832    2.2409 H   0  0  0  0  0  0  0  0  0  0  0  0
    2.7593   -0.5393    3.6369 H   0  0  0  0  0  0  0  0  0  0  0  0
    3.0069   -1.8493    2.4622 H   0  0  0  0  0  0  0  0  0  0  0  0
  1  2  1  0  0  0  0
  2  3  1  0  0  0  0
  2  4  1  0  0  0  0
  2  5  1  0  0  0  0
  5  6  2  0  0  0  0
  5  7  1  0  0  0  0
  7  8  1  0  0  0  0
  7 17  1  0  0  0  0
  8  9  1  0  0  0  0
  8 10  1  0  0  0  0
  8 11  1  0  0  0  0
 11 12  1  0  0  0  0
 11 13  1  0  0  0  0
 11 14  1  0  0  0  0
 14 15  1  0  0  0  0
 14 16  1  0  0  0  0
 14 17  1  0  0  0  0
 17 18  1  0  0  0  0
 17 19  1  0  0  0  0
 19 20  2  0  0  0  0
 19 21  1  0  0  0  0
 21 22  1  0  0  0  0
 21 23  1  0  0  0  0
 23 24  1  0  0  0  0
 23 25  1  0  0  0  0
 23 26  1  0  0  0  0
M  END
$$$$

  -OEChem-01062216093D

 26 26  0     1  0  0  0  0  0999 V2000
   -1.9505   -3.8338   -0.7768 H   0  0  0  0  0  0  0  0  0  0  0  0
   -2.1289   -2.7608   -0.6615 C   0  0  0  0  0  0  0  0  0  0  0  0
   -2.6743   -2.5960    0.2706 H   0  0  0  0  0  0  0  0  0  0  0  0
   -2.7380   -2.4188   -1.5016 H   0  0  0  0  0  0  0  0  0  0  0  0
   -0.8045   -2.0085   -0.6355 C   0  0  0  0  0  0  0  0  0  0  0  0
    0.2185   -2.6683   -0.6992 O   0  0  0  0  0  0  0  0  0  0  0  0
   -0.7579   -0.6164   -0.5568 N   0  0  0  0  0  0  0  0  0  0  0  0
   -1.9613    0.1566   -0.2745 C   0  0  0  0  0  0  0  0  0  0  0  0
   -2.3582   -0.0938    0.7152 H   0  0  0  0  0  0  0  0  0  0  0  0
   -2.7432    0.0019   -1.0255 H   0  0  0  0  0  0  0  0  0  0  0  0
   -1.4676    1.5916   -0.3026 C   0  0  0  0  0  0  0  0  0  0  0  0
   -2.0850    2.2503    0.3161 H   0  0  0  0  0  0  0  0  0  0  0  0
   -1.4785    1.9677   -1.3311 H   0  0  0  0  0  0  0  0  0  0  0  0
   -0.0329    1.5074    0.2016 C   0  0  0  0  0  0  0  0  0  0  0  0
   -0.0269    1.4959    1.2960 H   0  0  0  0  0  0  0  0  0  0  0  0
    0.5735    2.3531   -0.1388 H   0  0  0  0  0  0  0  0  0  0  0  0
    0.4753    0.1794   -0.3695 C   0  0  1  0  0  0  0  0  0  0  0  0
    0.8676    0.3763   -1.3729 H   0  0  0  0  0  0  0  0  0  0  0  0
    1.6552   -0.4347    0.4225 C   0  0  0  0  0  0  0  0  0  0  0  0
    2.7438   -0.5694   -0.1219 O   0  0  0  0  0  0  0  0  0  0  0  0
    1.5917   -0.5396    1.8021 N   0  0  0  0  0  0  0  0  0  0  0  0
    0.6662   -0.4965    2.2148 H   0  0  0  0  0  0  0  0  0  0  0  0
    2.6861   -1.0760    2.6016 C   0  0  0  0  0  0  0  0  0  0  0  0
    3.5892   -0.4700    2.4731 H   0  0  0  0  0  0  0  0  0  0  0  0
    2.4172   -1.0709    3.6621 H   0  0  0  0  0  0  0  0  0  0  0  0
    2.9074   -2.1064    2.3036 H   0  0  0  0  0  0  0  0  0  0  0  0
  1  2  1  0  0  0  0
  2  3  1  0  0  0  0
  2  4  1  0  0  0  0
  2  5  1  0  0  0  0
  5  6  2  0  0  0  0
  5  7  1  0  0  0  0
  7  8  1  0  0  0  0
  7 17  1  0  0  0  0
  8  9  1  0  0  0  0
  8 10  1  0  0  0  0
  8 11  1  0  0  0  0
 11 12  1  0  0  0  0
 11 13  1  0  0  0  0
 11 14  1  0  0  0  0
 14 15  1  0  0  0  0
 14 16  1  0  0  0  0
 14 17  1  0  0  0  0
 17 18  1  0  0  0  0
 17 19  1  0  0  0  0
 19 20  2  0  0  0  0
 19 21  1  0  0  0  0
 21 22  1  0  0  0  0
 21 23  1  0  0  0  0
 23 24  1  0  0  0  0
 23 25  1  0  0  0  0
 23 26  1  0  0  0  0
M  END
$$$$

  -OEChem-01062216093D

 26 26  0     1  0  0  0  0  0999 V2000
   -1.9501   -3.8325   -0.7761 H   0  0  0  0  0  0  0  0  0  0  0  0
   -2.1289   -2.7592   -0.6640 C   0  0  0  0  0  0  0  0  0  0  0  0
   -2.6707   -2.5929    0.2698 H   0  0  0  0  0  0  0  0  0  0  0  0
   -2.7421   -2.4198   -1.5022 H   0  0  0  0  0  0  0  0  0  0  0  0
   -0.8054   -2.0053   -0.6467 C   0  0  0  0  0  0  0  0  0  0  0  0
    0.2202   -2.6618   -0.7147 O   0  0  0  0  0  0  0  0  0  0  0  0
   -0.7585   -0.6132   -0.5738 N   0  0  0  0  0  0  0  0  0  0  0  0
   -1.9594    0.1587   -0.2772 C   0  0  0  0  0  0  0  0  0  0  0  0
   -2.3546   -0.1032    0.7103 H   0  0  0  0  0  0  0  0  0  0  0  0
   -2.7437    0.0149   -1.0278 H   0  0  0  0  0  0  0  0  0  0  0  0
   -1.4625    1.5928   -0.2879 C   0  0  0  0  0  0  0  0  0  0  0  0
   -2.0748    2.2442    0.3434 H   0  0  0  0  0  0  0  0  0  0  0  0
   -1.4773    1.9835   -1.3110 H   0  0  0  0  0  0  0  0  0  0  0  0
   -0.0262    1.4985    0.2093 C   0  0  0  0  0  0  0  0  0  0  0  0
   -0.0119    1.4667    1.3037 H   0  0  0  0  0  0  0  0  0  0  0  0
    0.5807    2.3479   -0.1210 H   0  0  0  0  0  0  0  0  0  0  0  0
    0.4768    0.1787   -0.3803 C   0  0  1  0  0  0  0  0  0  0  0  0
    0.8749    0.3815   -1.3801 H   0  0  0  0  0  0  0  0  0  0  0  0
    1.6485   -0.4321    0.4221 C   0  0  0  0  0  0  0  0  0  0  0  0
    2.7903   -0.3377   -0.0106 O   0  0  0  0  0  0  0  0  0  0  0  0
    1.4621   -0.8129    1.7402 N   0  0  0  0  0  0  0  0  0  0  0  0
    0.5019   -0.9766    2.0237 H   0  0  0  0  0  0  0  0  0  0  0  0
    2.5307   -1.3887    2.5468 C   0  0  0  0  0  0  0  0  0  0  0  0
    3.3680   -0.6881    2.6320 H   0  0  0  0  0  0  0  0  0  0  0  0
    2.1659   -1.6121    3.5537 H   0  0  0  0  0  0  0  0  0  0  0  0
    2.8923   -2.3177    2.0935 H   0  0  0  0  0  0  0  0  0  0  0  0
  1  2  1  0  0  0  0
  2  3  1  0  0  0  0
  2  4  1  0  0  0  0
  2  5  1  0  0  0  0
  5  6  2  0  0  0  0
  5  7  1  0  0  0  0
  7  8  1  0  0  0  0
  7 17  1  0  0  0  0
  8  9  1  0  0  0  0
  8 10  1  0  0  0  0
  8 11  1  0  0  0  0
 11 12  1  0  0  0  0
 11 13  1  0  0  0  0
 11 14  1  0  0  0  0
 14 15  1  0  0  0  0
 14 16  1  0  0  0  0
 14 17  1  0  0  0  0
 17 18  1  0  0  0  0
 17 19  1  0  0  0  0
 19 20  2  0  0  0  0
 19 21  1  0  0  0  0
 21 22  1  0  0  0  0
 21 23  1  0  0  0  0
 23 24  1  0  0  0  0
 23 25  1  0  0  0  0
 23 26  1  0  0  0  0
M  END
$$$$

  -OEChem-01062216093D

 26 26  0     1  0  0  0  0  0999 V2000
   -1.9929   -3.8244   -0.8113 H   0  0  0  0  0  0  0  0  0  0  0  0
   -2.1626   -2.7507   -0.6889 C   0  0  0  0  0  0  0  0  0  0  0  0
   -2.7093   -2.5883    0.2428 H   0  0  0  0  0  0  0  0  0  0  0  0
   -2.7671   -2.3975   -1.5278 H   0  0  0  0  0  0  0  0  0  0  0  0
   -0.8324   -2.0093   -0.6550 C   0  0  0  0  0  0  0  0  0  0  0  0
    0.1886   -2.6747   -0.7080 O   0  0  0  0  0  0  0  0  0  0  0  0
   -0.7702   -0.6182   -0.5822 N   0  0  0  0  0  0  0  0  0  0  0  0
   -1.9659    0.1622   -0.2851 C   0  0  0  0  0  0  0  0  0  0  0  0
   -2.3666   -0.1036    0.6992 H   0  0  0  0  0  0  0  0  0  0  0  0
   -2.7487    0.0308   -1.0396 H   0  0  0  0  0  0  0  0  0  0  0  0
   -1.4584    1.5921   -0.2820 C   0  0  0  0  0  0  0  0  0  0  0  0
   -2.0685    2.2431    0.3518 H   0  0  0  0  0  0  0  0  0  0  0  0
   -1.4649    1.9914   -1.3017 H   0  0  0  0  0  0  0  0  0  0  0  0
   -0.0257    1.4810    0.2208 C   0  0  0  0  0  0  0  0  0  0  0  0
   -0.0155    1.4349    1.3151 H   0  0  0  0  0  0  0  0  0  0  0  0
    0.5905    2.3288   -0.0966 H   0  0  0  0  0  0  0  0  0  0  0  0
    0.4714    0.1635   -0.3758 C   0  0  1  0  0  0  0  0  0  0  0  0
    0.8774    0.3675   -1.3722 H   0  0  0  0  0  0  0  0  0  0  0  0
    1.6415   -0.4367    0.4370 C   0  0  0  0  0  0  0  0  0  0  0  0
    2.7895   -0.1164    0.1546 O   0  0  0  0  0  0  0  0  0  0  0  0
    1.4013   -1.0898    1.6336 N   0  0  0  0  0  0  0  0  0  0  0  0
    0.4670   -1.4718    1.7362 H   0  0  0  0  0  0  0  0  0  0  0  0
    2.4719   -1.6798    2.4269 C   0  0  0  0  0  0  0  0  0  0  0  0
    3.1983   -0.9156    2.7228 H   0  0  0  0  0  0  0  0  0  0  0  0
    2.0625   -2.1336    3.3344 H   0  0  0  0  0  0  0  0  0  0  0  0
    2.9896   -2.4551    1.8524 H   0  0  0  0  0  0  0  0  0  0  0  0
  1  2  1  0  0  0  0
  2  3  1  0  0  0  0
  2  4  1  0  0  0  0
  2  5  1  0  0  0  0
  5  6  2  0  0  0  0
  5  7  1  0  0  0  0
  7  8  1  0  0  0  0
  7 17  1  0  0  0  0
  8  9  1  0  0  0  0
  8 10  1  0  0  0  0
  8 11  1  0  0  0  0
 11 12  1  0  0  0  0
 11 13  1  0  0  0  0
 11 14  1  0  0  0  0
 14 15  1  0  0  0  0
 14 16  1  0  0  0  0
 14 17  1  0  0  0  0
 17 18  1  0  0  0  0
 17 19  1  0  0  0  0
 19 20  2  0  0  0  0
 19 21  1  0  0  0  0
 21 22  1  0  0  0  0
 21 23  1  0  0  0  0
 23 24  1  0  0  0  0
 23 25  1  0  0  0  0
 23 26  1  0  0  0  0
M  END
$$$$

  -OEChem-01062216093D

 26 26  0     1  0  0  0  0  0999 V2000
   -2.0945   -3.8034   -0.8635 H   0  0  0  0  0  0  0  0  0  0  0  0
   -2.2394   -2.7277   -0.7288 C   0  0  0  0  0  0  0  0  0  0  0  0
   -2.7901   -2.5640    0.2004 H   0  0  0  0  0  0  0  0  0  0  0  0
   -2.8282   -2.3496   -1.5679 H   0  0  0  0  0  0  0  0  0  0  0  0
   -0.8924   -2.0182   -0.6743 C   0  0  0  0  0  0  0  0  0  0  0  0
    0.1129   -2.7083   -0.7186 O   0  0  0  0  0  0  0  0  0  0  0  0
   -0.7951   -0.6306   -0.5870 N   0  0  0  0  0  0  0  0  0  0  0  0
   -1.9804    0.1691   -0.2972 C   0  0  0  0  0  0  0  0  0  0  0  0
   -2.3960   -0.0968    0.6808 H   0  0  0  0  0  0  0  0  0  0  0  0
   -2.7573    0.0566   -1.0607 H   0  0  0  0  0  0  0  0  0  0  0  0
   -1.4514    1.5899   -0.2782 C   0  0  0  0  0  0  0  0  0  0  0  0
   -2.0576    2.2460    0.3543 H   0  0  0  0  0  0  0  0  0  0  0  0
   -1.4404    1.9962   -1.2951 H   0  0  0  0  0  0  0  0  0  0  0  0
   -0.0270    1.4506    0.2388 C   0  0  0  0  0  0  0  0  0  0  0  0
   -0.0293    1.3936    1.3328 H   0  0  0  0  0  0  0  0  0  0  0  0
    0.6060    2.2915   -0.0630 H   0  0  0  0  0  0  0  0  0  0  0  0
    0.4587    0.1300   -0.3611 C   0  0  1  0  0  0  0  0  0  0  0  0
    0.8722    0.3347   -1.3540 H   0  0  0  0  0  0  0  0  0  0  0  0
    1.6340   -0.4630    0.4541 C   0  0  0  0  0  0  0  0  0  0  0  0
    2.7354    0.0645    0.3546 O   0  0  0  0  0  0  0  0  0  0  0  0
    1.4205   -1.3702    1.4769 N   0  0  0  0  0  0  0  0  0  0  0  0
    0.6020   -1.9577    1.3396 H   0  0  0  0  0  0  0  0  0  0  0  0
    2.5170   -1.9258    2.2597 C   0  0  0  0  0  0  0  0  0  0  0  0
    3.0728   -1.1289    2.7649 H   0  0  0  0  0  0  0  0  0  0  0  0
    2.1279   -2.6079    3.0214 H   0  0  0  0  0  0  0  0  0  0  0  0
    3.2047   -2.4808    1.6132 H   0  0  0  0  0  0  0  0  0  0  0  0
  1  2  1  0  0  0  0
  2  3  1  0  0  0  0
  2  4  1  0  0  0  0
  2  5  1  0  0  0  0
  5  6  2  0  0  0  0
  5  7  1  0  0  0  0
  7  8  1  0  0  0  0
  7 17  1  0  0  0  0
  8  9  1  0  0  0  0
  8 10  1  0  0  0  0
  8 11  1  0  0  0  0
 11 12  1  0  0  0  0
 11 13  1  0  0  0  0
 11 14  1  0  0  0  0
 14 15  1  0  0  0  0
 14 16  1  0  0  0  0
 14 17  1  0  0  0  0
 17 18  1  0  0  0  0
 17 19  1  0  0  0  0
 19 20  2  0  0  0  0
 19 21  1  0  0  0  0
 21 22  1  0  0  0  0
 21 23  1  0  0  0  0
 23 24  1  0  0  0  0
 23 25  1  0  0  0  0
 23 26  1  0  0  0  0
M  END
$$$$

  -OEChem-01062216093D

 26 26  0     1  0  0  0  0  0999 V2000
   -2.1856   -3.7851   -0.8722 H   0  0  0  0  0  0  0  0  0  0  0  0
   -2.3070   -2.7064   -0.7382 C   0  0  0  0  0  0  0  0  0  0  0  0
   -2.8336   -2.5305    0.2028 H   0  0  0  0  0  0  0  0  0  0  0  0
   -2.9075   -2.3202   -1.5653 H   0  0  0  0  0  0  0  0  0  0  0  0
   -0.9457   -2.0225   -0.7150 C   0  0  0  0  0  0  0  0  0  0  0  0
    0.0422   -2.7310   -0.8259 O   0  0  0  0  0  0  0  0  0  0  0  0
   -0.8165   -0.6389   -0.6041 N   0  0  0  0  0  0  0  0  0  0  0  0
   -1.9919    0.1759   -0.3137 C   0  0  0  0  0  0  0  0  0  0  0  0
   -2.4193   -0.0955    0.6578 H   0  0  0  0  0  0  0  0  0  0  0  0
   -2.7646    0.0837   -1.0843 H   0  0  0  0  0  0  0  0  0  0  0  0
   -1.4465    1.5892   -0.2725 C   0  0  0  0  0  0  0  0  0  0  0  0
   -2.0498    2.2448    0.3629 H   0  0  0  0  0  0  0  0  0  0  0  0
   -1.4204    2.0086   -1.2837 H   0  0  0  0  0  0  0  0  0  0  0  0
   -0.0307    1.4226    0.2558 C   0  0  0  0  0  0  0  0  0  0  0  0
   -0.0454    1.3507    1.3489 H   0  0  0  0  0  0  0  0  0  0  0  0
    0.6160    2.2597   -0.0275 H   0  0  0  0  0  0  0  0  0  0  0  0
    0.4472    0.1025   -0.3548 C   0  0  1  0  0  0  0  0  0  0  0  0
    0.8684    0.3142   -1.3428 H   0  0  0  0  0  0  0  0  0  0  0  0
    1.6271   -0.4904    0.4605 C   0  0  0  0  0  0  0  0  0  0  0  0
    2.6528    0.1744    0.5500 O   0  0  0  0  0  0  0  0  0  0  0  0
    1.4998   -1.6082    1.2649 N   0  0  0  0  0  0  0  0  0  0  0  0
    0.7974   -2.2696    0.9346 H   0  0  0  0  0  0  0  0  0  0  0  0
    2.6149   -2.1481    2.0328 C   0  0  0  0  0  0  0  0  0  0  0  0
    2.9943   -1.4009    2.7378 H   0  0  0  0  0  0  0  0  0  0  0  0
    2.2897   -3.0235    2.6028 H   0  0  0  0  0  0  0  0  0  0  0  0
    3.4292   -2.4495    1.3656 H   0  0  0  0  0  0  0  0  0  0  0  0
  1  2  1  0  0  0  0
  2  3  1  0  0  0  0
  2  4  1  0  0  0  0
  2  5  1  0  0  0  0
  5  6  2  0  0  0  0
  5  7  1  0  0  0  0
  7  8  1  0  0  0  0
  7 17  1  0  0  0  0
  8  9  1  0  0  0  0
  8 10  1  0  0  0  0
  8 11  1  0  0  0  0
 11 12  1  0  0  0  0
 11 13  1  0  0  0  0
 11 14  1  0  0  0  0
 14 15  1  0  0  0  0
 14 16  1  0  0  0  0
 14 17  1  0  0  0  0
 17 18  1  0  0  0  0
 17 19  1  0  0  0  0
 19 20  2  0  0  0  0
 19 21  1  0  0  0  0
 21 22  1  0  0  0  0
 21 23  1  0  0  0  0
 23 24  1  0  0  0  0
 23 25  1  0  0  0  0
 23 26  1  0  0  0  0
M  END
$$$$

  -OEChem-01062216093D

 26 26  0     1  0  0  0  0  0999 V2000
   -2.2512   -3.7712   -0.8793 H   0  0  0  0  0  0  0  0  0  0  0  0
   -2.3547   -2.6925   -0.7303 C   0  0  0  0  0  0  0  0  0  0  0  0
   -2.8438   -2.5207    0.2315 H   0  0  0  0  0  0  0  0  0  0  0  0
   -2.9811   -2.2911   -1.5305 H   0  0  0  0  0  0  0  0  0  0  0  0
   -0.9850   -2.0242   -0.7516 C   0  0  0  0  0  0  0  0  0  0  0  0
   -0.0168   -2.7391   -0.9577 O   0  0  0  0  0  0  0  0  0  0  0  0
   -0.8320   -0.6446   -0.6194 N   0  0  0  0  0  0  0  0  0  0  0  0
   -2.0002    0.1804   -0.3267 C   0  0  0  0  0  0  0  0  0  0  0  0
   -2.4345   -0.0950    0.6407 H   0  0  0  0  0  0  0  0  0  0  0  0
   -2.7700    0.1021   -1.1017 H   0  0  0  0  0  0  0  0  0  0  0  0
   -1.4456    1.5892   -0.2694 C   0  0  0  0  0  0  0  0  0  0  0  0
   -2.0475    2.2439    0.3684 H   0  0  0  0  0  0  0  0  0  0  0  0
   -1.4081    2.0179   -1.2763 H   0  0  0  0  0  0  0  0  0  0  0  0
   -0.0370    1.4025    0.2677 C   0  0  0  0  0  0  0  0  0  0  0  0
   -0.0618    1.3214    1.3601 H   0  0  0  0  0  0  0  0  0  0  0  0
    0.6190    2.2368   -0.0021 H   0  0  0  0  0  0  0  0  0  0  0  0
    0.4380    0.0829   -0.3510 C   0  0  1  0  0  0  0  0  0  0  0  0
    0.8654    0.3003   -1.3348 H   0  0  0  0  0  0  0  0  0  0  0  0
    1.6209   -0.5133    0.4649 C   0  0  0  0  0  0  0  0  0  0  0  0
    2.5620    0.2262    0.7299 O   0  0  0  0  0  0  0  0  0  0  0  0
    1.6207   -1.7766    1.0262 N   0  0  0  0  0  0  0  0  0  0  0  0
    0.9844   -2.4372    0.5780 H   0  0  0  0  0  0  0  0  0  0  0  0
    2.7622   -2.3225    1.7495 C   0  0  0  0  0  0  0  0  0  0  0  0
    2.9991   -1.7005    2.6190 H   0  0  0  0  0  0  0  0  0  0  0  0
    2.5354   -3.3332    2.1019 H   0  0  0  0  0  0  0  0  0  0  0  0
    3.6415   -2.3699    1.0988 H   0  0  0  0  0  0  0  0  0  0  0  0
  1  2  1  0  0  0  0
  2  3  1  0  0  0  0
  2  4  1  0  0  0  0
  2  5  1  0  0  0  0
  5  6  2  0  0  0  0
  5  7  1  0  0  0  0
  7  8  1  0  0  0  0
  7 17  1  0  0  0  0
  8  9  1  0  0  0  0
  8 10  1  0  0  0  0
  8 11  1  0  0  0  0
 11 12  1  0  0  0  0
 11 13  1  0  0  0  0
 11 14  1  0  0  0  0
 14 15  1  0  0  0  0
 14 16  1  0  0  0  0
 14 17  1  0  0  0  0
 17 18  1  0  0  0  0
 17 19  1  0  0  0  0
 19 20  2  0  0  0  0
 19 21  1  0  0  0  0
 21 22  1  0  0  0  0
 21 23  1  0  0  0  0
 23 24  1  0  0  0  0
 23 25  1  0  0  0  0
 23 26  1  0  0  0  0
M  END
$$$$

  -OEChem-01062216093D

 26 26  0     1  0  0  0  0  0999 V2000
   -2.2796   -3.8033   -0.7346 H   0  0  0  0  0  0  0  0  0  0  0  0
   -2.3763   -2.7193   -0.6255 C   0  0  0  0  0  0  0  0  0  0  0  0
   -2.8222   -2.5085    0.3494 H   0  0  0  0  0  0  0  0  0  0  0  0
   -3.0379   -2.3494   -1.4125 H   0  0  0  0  0  0  0  0  0  0  0  0
   -1.0087   -2.0547   -0.7337 C   0  0  0  0  0  0  0  0  0  0  0  0
   -0.0603   -2.7725   -1.0103 O   0  0  0  0  0  0  0  0  0  0  0  0
   -0.8451   -0.6737   -0.6309 N   0  0  0  0  0  0  0  0  0  0  0  0
   -2.0104    0.1614   -0.3548 C   0  0  0  0  0  0  0  0  0  0  0  0
   -2.4406   -0.0864    0.6217 H   0  0  0  0  0  0  0  0  0  0  0  0
   -2.7845    0.0624   -1.1232 H   0  0  0  0  0  0  0  0  0  0  0  0
   -1.4566    1.5709   -0.3391 C   0  0  0  0  0  0  0  0  0  0  0  0
   -2.0558    2.2432    0.2828 H   0  0  0  0  0  0  0  0  0  0  0  0
   -1.4226    1.9712   -1.3579 H   0  0  0  0  0  0  0  0  0  0  0  0
   -0.0471    1.3963    0.1974 C   0  0  0  0  0  0  0  0  0  0  0  0
   -0.0707    1.3449    1.2917 H   0  0  0  0  0  0  0  0  0  0  0  0
    0.6081    2.2234   -0.0952 H   0  0  0  0  0  0  0  0  0  0  0  0
    0.4281    0.0588   -0.3861 C   0  0  1  0  0  0  0  0  0  0  0  0
    0.8491    0.2505   -1.3779 H   0  0  0  0  0  0  0  0  0  0  0  0
    1.6222   -0.5150    0.4356 C   0  0  0  0  0  0  0  0  0  0  0  0
    2.4658    0.2722    0.8506 O   0  0  0  0  0  0  0  0  0  0  0  0
    1.7794   -1.8436    0.7816 N   0  0  0  0  0  0  0  0  0  0  0  0
    1.1937   -2.5029    0.2665 H   0  0  0  0  0  0  0  0  0  0  0  0
    2.9515   -2.3626    1.4752 C   0  0  0  0  0  0  0  0  0  0  0  0
    3.0617   -1.8840    2.4539 H   0  0  0  0  0  0  0  0  0  0  0  0
    2.8501   -3.4411    1.6292 H   0  0  0  0  0  0  0  0  0  0  0  0
    3.8571   -2.1795    0.8876 H   0  0  0  0  0  0  0  0  0  0  0  0
  1  2  1  0  0  0  0
  2  3  1  0  0  0  0
  2  4  1  0  0  0  0
  2  5  1  0  0  0  0
  5  6  2  0  0  0  0
  5  7  1  0  0  0  0
  7  8  1  0  0  0  0
  7 17  1  0  0  0  0
  8  9  1  0  0  0  0
  8 10  1  0  0  0  0
  8 11  1  0  0  0  0
 11 12  1  0  0  0  0
 11 13  1  0  0  0  0
 11 14  1  0  0  0  0
 14 15  1  0  0  0  0
 14 16  1  0  0  0  0
 14 17  1  0  0  0  0
 17 18  1  0  0  0  0
 17 19  1  0  0  0  0
 19 20  2  0  0  0  0
 19 21  1  0  0  0  0
 21 22  1  0  0  0  0
 21 23  1  0  0  0  0
 23 24  1  0  0  0  0
 23 25  1  0  0  0  0
 23 26  1  0  0  0  0
M  END
$$$$

  -OEChem-01062216093D

 26 26  0     1  0  0  0  0  0999 V2000
   -1.5424   -4.0106   -0.7680 H   0  0  0  0  0  0  0  0  0  0  0  0
   -1.8058   -2.9727   -0.5453 C   0  0  0  0  0  0  0  0  0  0  0  0
   -2.0690   -2.9009    0.5124 H   0  0  0  0  0  0  0  0  0  0  0  0
   -2.6708   -2.6957   -1.1524 H   0  0  0  0  0  0  0  0  0  0  0  0
   -0.6298   -2.0555   -0.8579 C   0  0  0  0  0  0  0  0  0  0  0  0
    0.3283   -2.5446   -1.4318 O   0  0  0  0  0  0  0  0  0  0  0  0
   -0.6870   -0.6787   -0.6620 N   0  0  0  0  0  0  0  0  0  0  0  0
   -1.9240   -0.0717   -0.1831 C   0  0  0  0  0  0  0  0  0  0  0  0
   -2.1845   -0.4546    0.8097 H   0  0  0  0  0  0  0  0  0  0  0  0
   -2.7621   -0.2464   -0.8660 H   0  0  0  0  0  0  0  0  0  0  0  0
   -1.5991    1.4062   -0.1043 C   0  0  0  0  0  0  0  0  0  0  0  0
   -2.2138    1.9263    0.6370 H   0  0  0  0  0  0  0  0  0  0  0  0
   -1.7523    1.8765   -1.0812 H   0  0  0  0  0  0  0  0  0  0  0  0
   -0.1245    1.4237    0.2557 C   0  0  0  0  0  0  0  0  0  0  0  0
   -0.0054    1.2938    1.3369 H   0  0  0  0  0  0  0  0  0  0  0  0
    0.3542    2.3653   -0.0334 H   0  0  0  0  0  0  0  0  0  0  0  0
    0.4789    0.2267   -0.4932 C   0  0  1  0  0  0  0  0  0  0  0  0
    0.7394    0.5486   -1.5063 H   0  0  0  0  0  0  0  0  0  0  0  0
    1.8489   -0.1635    0.1492 C   0  0  0  0  0  0  0  0  0  0  0  0
    2.6300    0.7400    0.4119 O   0  0  0  0  0  0  0  0  0  0  0  0
    2.5026   -1.3729    0.1901 N   0  0  0  0  0  0  0  0  0  0  0  0
    3.5025   -1.2204    0.2893 H   0  0  0  0  0  0  0  0  0  0  0  0
    1.9853   -2.4615    1.0099 C   0  0  0  0  0  0  0  0  0  0  0  0
    0.9719   -2.2517    1.3660 H   0  0  0  0  0  0  0  0  0  0  0  0
    1.9711   -3.3941    0.4370 H   0  0  0  0  0  0  0  0  0  0  0  0
    2.6263   -2.6034    1.8854 H   0  0  0  0  0  0  0  0  0  0  0  0
  1  2  1  0  0  0  0
  2  3  1  0  0  0  0
  2  4  1  0  0  0  0
  2  5  1  0  0  0  0
  5  6  2  0  0  0  0
  5  7  1  0  0  0  0
  7  8  1  0  0  0  0
  7 17  1  0  0  0  0
  8  9  1  0  0  0  0
  8 10  1  0  0  0  0
  8 11  1  0  0  0  0
 11 12  1  0  0  0  0
 11 13  1  0  0  0  0
 11 14  1  0  0  0  0
 14 15  1  0  0  0  0
 14 16  1  0  0  0  0
 14 17  1  0  0  0  0
 17 18  1  0  0  0  0
 17 19  1  0  0  0  0
 19 20  2  0  0  0  0
 19 21  1  0  0  0  0
 21 22  1  0  0  0  0
 21 23  1  0  0  0  0
 23 24  1  0  0  0  0
 23 25  1  0  0  0  0
 23 26  1  0  0  0  0
M  END
$$$$

  -OEChem-01062216093D

 26 26  0     1  0  0  0  0  0999 V2000
   -2.2181   -3.7829   -0.8247 H   0  0  0  0  0  0  0  0  0  0  0  0
   -2.3227   -2.7087   -0.6475 C   0  0  0  0  0  0  0  0  0  0  0  0
   -2.6989   -2.5607    0.3675 H   0  0  0  0  0  0  0  0  0  0  0  0
   -3.0453   -2.3080   -1.3623 H   0  0  0  0  0  0  0  0  0  0  0  0
   -0.9759   -2.0143   -0.8142 C   0  0  0  0  0  0  0  0  0  0  0  0
   -0.0452   -2.6961   -1.2135 O   0  0  0  0  0  0  0  0  0  0  0  0
   -0.8252   -0.6385   -0.6389 N   0  0  0  0  0  0  0  0  0  0  0  0
   -1.9922    0.1671   -0.2929 C   0  0  0  0  0  0  0  0  0  0  0  0
   -2.3897   -0.1293    0.6841 H   0  0  0  0  0  0  0  0  0  0  0  0
   -2.7873    0.0897   -1.0422 H   0  0  0  0  0  0  0  0  0  0  0  0
   -1.4586    1.5838   -0.2312 C   0  0  0  0  0  0  0  0  0  0  0  0
   -2.0505    2.2201    0.4343 H   0  0  0  0  0  0  0  0  0  0  0  0
   -1.4566    2.0277   -1.2322 H   0  0  0  0  0  0  0  0  0  0  0  0
   -0.0339    1.4049    0.2607 C   0  0  0  0  0  0  0  0  0  0  0  0
   -0.0374    1.3076    1.3522 H   0  0  0  0  0  0  0  0  0  0  0  0
    0.6050    2.2523   -0.0086 H   0  0  0  0  0  0  0  0  0  0  0  0
    0.4447    0.0989   -0.3940 C   0  0  1  0  0  0  0  0  0  0  0  0
    0.8384    0.3455   -1.3847 H   0  0  0  0  0  0  0  0  0  0  0  0
    1.6599   -0.5267    0.3599 C   0  0  0  0  0  0  0  0  0  0  0  0
    2.2747    0.1517    1.1759 O   0  0  0  0  0  0  0  0  0  0  0  0
    2.1415   -1.7991    0.1241 N   0  0  0  0  0  0  0  0  0  0  0  0
    1.5992   -2.3770   -0.5219 H   0  0  0  0  0  0  0  0  0  0  0  0
    3.2661   -2.3995    0.8298 C   0  0  0  0  0  0  0  0  0  0  0  0
    3.0544   -2.4673    1.9018 H   0  0  0  0  0  0  0  0  0  0  0  0
    3.4526   -3.4081    0.4488 H   0  0  0  0  0  0  0  0  0  0  0  0
    4.1726   -1.8028    0.6850 H   0  0  0  0  0  0  0  0  0  0  0  0
  1  2  1  0  0  0  0
  2  3  1  0  0  0  0
  2  4  1  0  0  0  0
  2  5  1  0  0  0  0
  5  6  2  0  0  0  0
  5  7  1  0  0  0  0
  7  8  1  0  0  0  0
  7 17  1  0  0  0  0
  8  9  1  0  0  0  0
  8 10  1  0  0  0  0
  8 11  1  0  0  0  0
 11 12  1  0  0  0  0
 11 13  1  0  0  0  0
 11 14  1  0  0  0  0
 14 15  1  0  0  0  0
 14 16  1  0  0  0  0
 14 17  1  0  0  0  0
 17 18  1  0  0  0  0
 17 19  1  0  0  0  0
 19 20  2  0  0  0  0
 19 21  1  0  0  0  0
 21 22  1  0  0  0  0
 21 23  1  0  0  0  0
 23 24  1  0  0  0  0
 23 25  1  0  0  0  0
 23 26  1  0  0  0  0
M  END
$$$$

  -OEChem-01062216093D

 26 26  0     1  0  0  0  0  0999 V2000
   -2.1253   -3.8043   -0.7857 H   0  0  0  0  0  0  0  0  0  0  0  0
   -2.2554   -2.7302   -0.6260 C   0  0  0  0  0  0  0  0  0  0  0  0
   -2.6455   -2.5755    0.3827 H   0  0  0  0  0  0  0  0  0  0  0  0
   -2.9785   -2.3553   -1.3540 H   0  0  0  0  0  0  0  0  0  0  0  0
   -0.9228   -2.0091   -0.7900 C   0  0  0  0  0  0  0  0  0  0  0  0
    0.0271   -2.6729   -1.1751 O   0  0  0  0  0  0  0  0  0  0  0  0
   -0.8039   -0.6290   -0.6263 N   0  0  0  0  0  0  0  0  0  0  0  0
   -1.9795    0.1574   -0.2678 C   0  0  0  0  0  0  0  0  0  0  0  0
   -2.3555   -0.1383    0.7179 H   0  0  0  0  0  0  0  0  0  0  0  0
   -2.7853    0.0600   -1.0031 H   0  0  0  0  0  0  0  0  0  0  0  0
   -1.4677    1.5836   -0.2258 C   0  0  0  0  0  0  0  0  0  0  0  0
   -2.0590    2.2150    0.4447 H   0  0  0  0  0  0  0  0  0  0  0  0
   -1.4902    2.0194   -1.2301 H   0  0  0  0  0  0  0  0  0  0  0  0
   -0.0314    1.4333    0.2440 C   0  0  0  0  0  0  0  0  0  0  0  0
   -0.0194    1.3476    1.3363 H   0  0  0  0  0  0  0  0  0  0  0  0
    0.5888    2.2887   -0.0423 H   0  0  0  0  0  0  0  0  0  0  0  0
    0.4562    0.1294   -0.4096 C   0  0  1  0  0  0  0  0  0  0  0  0
    0.8330    0.3782   -1.4062 H   0  0  0  0  0  0  0  0  0  0  0  0
    1.6779   -0.4998    0.3275 C   0  0  0  0  0  0  0  0  0  0  0  0
    2.1693    0.0661    1.2983 O   0  0  0  0  0  0  0  0  0  0  0  0
    2.3171   -1.6344   -0.1332 N   0  0  0  0  0  0  0  0  0  0  0  0
    1.7856   -2.1867   -0.8106 H   0  0  0  0  0  0  0  0  0  0  0  0
    3.4184   -2.2815    0.5682 C   0  0  0  0  0  0  0  0  0  0  0  0
    3.0965   -2.6180    1.5591 H   0  0  0  0  0  0  0  0  0  0  0  0
    3.7648   -3.1510    0.0016 H   0  0  0  0  0  0  0  0  0  0  0  0
    4.2593   -1.5899    0.6851 H   0  0  0  0  0  0  0  0  0  0  0  0
  1  2  1  0  0  0  0
  2  3  1  0  0  0  0
  2  4  1  0  0  0  0
  2  5  1  0  0  0  0
  5  6  2  0  0  0  0
  5  7  1  0  0  0  0
  7  8  1  0  0  0  0
  7 17  1  0  0  0  0
  8  9  1  0  0  0  0
  8 10  1  0  0  0  0
  8 11  1  0  0  0  0
 11 12  1  0  0  0  0
 11 13  1  0  0  0  0
 11 14  1  0  0  0  0
 14 15  1  0  0  0  0
 14 16  1  0  0  0  0
 14 17  1  0  0  0  0
 17 18  1  0  0  0  0
 17 19  1  0  0  0  0
 19 20  2  0  0  0  0
 19 21  1  0  0  0  0
 21 22  1  0  0  0  0
 21 23  1  0  0  0  0
 23 24  1  0  0  0  0
 23 25  1  0  0  0  0
 23 26  1  0  0  0  0
M  END
$$$$

  -OEChem-01062216093D

 26 26  0     1  0  0  0  0  0999 V2000
   -2.0046   -3.8235   -0.7520 H   0  0  0  0  0  0  0  0  0  0  0  0
   -2.1696   -2.7518   -0.6086 C   0  0  0  0  0  0  0  0  0  0  0  0
   -2.5748   -2.5948    0.3938 H   0  0  0  0  0  0  0  0  0  0  0  0
   -2.8959   -2.4088   -1.3490 H   0  0  0  0  0  0  0  0  0  0  0  0
   -0.8587   -1.9929   -0.7706 C   0  0  0  0  0  0  0  0  0  0  0  0
    0.1193   -2.6261   -1.1395 O   0  0  0  0  0  0  0  0  0  0  0  0
   -0.7834   -0.6082   -0.6257 N   0  0  0  0  0  0  0  0  0  0  0  0
   -1.9690    0.1584   -0.2611 C   0  0  0  0  0  0  0  0  0  0  0  0
   -2.3327   -0.1408    0.7280 H   0  0  0  0  0  0  0  0  0  0  0  0
   -2.7779    0.0456   -0.9905 H   0  0  0  0  0  0  0  0  0  0  0  0
   -1.4748    1.5923   -0.2267 C   0  0  0  0  0  0  0  0  0  0  0  0
   -2.0692    2.2172    0.4472 H   0  0  0  0  0  0  0  0  0  0  0  0
   -1.5116    2.0260   -1.2315 H   0  0  0  0  0  0  0  0  0  0  0  0
   -0.0319    1.4636    0.2327 C   0  0  0  0  0  0  0  0  0  0  0  0
   -0.0127    1.3849    1.3251 H   0  0  0  0  0  0  0  0  0  0  0  0
    0.5746    2.3257   -0.0620 H   0  0  0  0  0  0  0  0  0  0  0  0
    0.4657    0.1643   -0.4221 C   0  0  1  0  0  0  0  0  0  0  0  0
    0.8430    0.4158   -1.4179 H   0  0  0  0  0  0  0  0  0  0  0  0
    1.6688   -0.4840    0.3229 C   0  0  0  0  0  0  0  0  0  0  0  0
    2.0186   -0.0755    1.4251 O   0  0  0  0  0  0  0  0  0  0  0  0
    2.4597   -1.4310   -0.2998 N   0  0  0  0  0  0  0  0  0  0  0  0
    1.9801   -1.9437   -1.0433 H   0  0  0  0  0  0  0  0  0  0  0  0
    3.5640   -2.1021    0.3740 C   0  0  0  0  0  0  0  0  0  0  0  0
    3.1986   -2.6698    1.2358 H   0  0  0  0  0  0  0  0  0  0  0  0
    4.0589   -2.7941   -0.3141 H   0  0  0  0  0  0  0  0  0  0  0  0
    4.3043   -1.3729    0.7191 H   0  0  0  0  0  0  0  0  0  0  0  0
  1  2  1  0  0  0  0
  2  3  1  0  0  0  0
  2  4  1  0  0  0  0
  2  5  1  0  0  0  0
  5  6  2  0  0  0  0
  5  7  1  0  0  0  0
  7  8  1  0  0  0  0
  7 17  1  0  0  0  0
  8  9  1  0  0  0  0
  8 10  1  0  0  0  0
  8 11  1  0  0  0  0
 11 12  1  0  0  0  0
 11 13  1  0  0  0  0
 11 14  1  0  0  0  0
 14 15  1  0  0  0  0
 14 16  1  0  0  0  0
 14 17  1  0  0  0  0
 17 18  1  0  0  0  0
 17 19  1  0  0  0  0
 19 20  2  0  0  0  0
 19 21  1  0  0  0  0
 21 22  1  0  0  0  0
 21 23  1  0  0  0  0
 23 24  1  0  0  0  0
 23 25  1  0  0  0  0
 23 26  1  0  0  0  0
M  END
$$$$

  -OEChem-01062216093D

 26 26  0     1  0  0  0  0  0999 V2000
   -1.9021   -3.8343   -0.7479 H   0  0  0  0  0  0  0  0  0  0  0  0
   -2.0921   -2.7688   -0.5911 C   0  0  0  0  0  0  0  0  0  0  0  0
   -2.4896   -2.6314    0.4172 H   0  0  0  0  0  0  0  0  0  0  0  0
   -2.8352   -2.4363   -1.3195 H   0  0  0  0  0  0  0  0  0  0  0  0
   -0.8027   -1.9755   -0.7580 C   0  0  0  0  0  0  0  0  0  0  0  0
    0.1994   -2.5783   -1.1166 O   0  0  0  0  0  0  0  0  0  0  0  0
   -0.7690   -0.5878   -0.6321 N   0  0  0  0  0  0  0  0  0  0  0  0
   -1.9624    0.1587   -0.2558 C   0  0  0  0  0  0  0  0  0  0  0  0
   -2.3120   -0.1475    0.7364 H   0  0  0  0  0  0  0  0  0  0  0  0
   -2.7764    0.0345   -0.9779 H   0  0  0  0  0  0  0  0  0  0  0  0
   -1.4847    1.5994   -0.2245 C   0  0  0  0  0  0  0  0  0  0  0  0
   -2.0812    2.2166    0.4546 H   0  0  0  0  0  0  0  0  0  0  0  0
   -1.5360    2.0323   -1.2289 H   0  0  0  0  0  0  0  0  0  0  0  0
   -0.0349    1.4899    0.2223 C   0  0  0  0  0  0  0  0  0  0  0  0
   -0.0032    1.4141    1.3144 H   0  0  0  0  0  0  0  0  0  0  0  0
    0.5573    2.3593   -0.0801 H   0  0  0  0  0  0  0  0  0  0  0  0
    0.4694    0.1974   -0.4396 C   0  0  1  0  0  0  0  0  0  0  0  0
    0.8472    0.4534   -1.4341 H   0  0  0  0  0  0  0  0  0  0  0  0
    1.6535   -0.4673    0.3156 C   0  0  0  0  0  0  0  0  0  0  0  0
    1.8363   -0.2630    1.5111 O   0  0  0  0  0  0  0  0  0  0  0  0
    2.6042   -1.1819   -0.3899 N   0  0  0  0  0  0  0  0  0  0  0  0
    2.2499   -1.5915   -1.2538 H   0  0  0  0  0  0  0  0  0  0  0  0
    3.7053   -1.8716    0.2704 C   0  0  0  0  0  0  0  0  0  0  0  0
    3.3227   -2.6414    0.9486 H   0  0  0  0  0  0  0  0  0  0  0  0
    4.3486   -2.3512   -0.4735 H   0  0  0  0  0  0  0  0  0  0  0  0
    4.3130   -1.1650    0.8452 H   0  0  0  0  0  0  0  0  0  0  0  0
  1  2  1  0  0  0  0
  2  3  1  0  0  0  0
  2  4  1  0  0  0  0
  2  5  1  0  0  0  0
  5  6  2  0  0  0  0
  5  7  1  0  0  0  0
  7  8  1  0  0  0  0
  7 17  1  0  0  0  0
  8  9  1  0  0  0  0
  8 10  1  0  0  0  0
  8 11  1  0  0  0  0
 11 12  1  0  0  0  0
 11 13  1  0  0  0  0
 11 14  1  0  0  0  0
 14 15  1  0  0  0  0
 14 16  1  0  0  0  0
 14 17  1  0  0  0  0
 17 18  1  0  0  0  0
 17 19  1  0  0  0  0
 19 20  2  0  0  0  0
 19 21  1  0  0  0  0
 21 22  1  0  0  0  0
 21 23  1  0  0  0  0
 23 24  1  0  0  0  0
 23 25  1  0  0  0  0
 23 26  1  0  0  0  0
M  END
$$$$

  -OEChem-01062216093D

 26 26  0     1  0  0  0  0  0999 V2000
   -1.8239   -3.8434   -0.7246 H   0  0  0  0  0  0  0  0  0  0  0  0
   -2.0342   -2.7822   -0.5648 C   0  0  0  0  0  0  0  0  0  0  0  0
   -2.4159   -2.6524    0.4506 H   0  0  0  0  0  0  0  0  0  0  0  0
   -2.7972   -2.4658   -1.2799 H   0  0  0  0  0  0  0  0  0  0  0  0
   -0.7653   -1.9618   -0.7543 C   0  0  0  0  0  0  0  0  0  0  0  0
    0.2485   -2.5434   -1.1157 O   0  0  0  0  0  0  0  0  0  0  0  0
   -0.7625   -0.5722   -0.6481 N   0  0  0  0  0  0  0  0  0  0  0  0
   -1.9598    0.1580   -0.2548 C   0  0  0  0  0  0  0  0  0  0  0  0
   -2.2948   -0.1563    0.7400 H   0  0  0  0  0  0  0  0  0  0  0  0
   -2.7801    0.0273   -0.9684 H   0  0  0  0  0  0  0  0  0  0  0  0
   -1.4958    1.6042   -0.2227 C   0  0  0  0  0  0  0  0  0  0  0  0
   -2.0910    2.2119    0.4659 H   0  0  0  0  0  0  0  0  0  0  0  0
   -1.5625    2.0407   -1.2247 H   0  0  0  0  0  0  0  0  0  0  0  0
   -0.0394    1.5078    0.2080 C   0  0  0  0  0  0  0  0  0  0  0  0
    0.0096    1.4272    1.2992 H   0  0  0  0  0  0  0  0  0  0  0  0
    0.5403    2.3838   -0.0991 H   0  0  0  0  0  0  0  0  0  0  0  0
    0.4677    0.2237   -0.4652 C   0  0  1  0  0  0  0  0  0  0  0  0
    0.8422    0.4825   -1.4601 H   0  0  0  0  0  0  0  0  0  0  0  0
    1.6407   -0.4429    0.3008 C   0  0  0  0  0  0  0  0  0  0  0  0
    1.6506   -0.4782    1.5268 O   0  0  0  0  0  0  0  0  0  0  0  0
    2.7466   -0.8967   -0.3951 N   0  0  0  0  0  0  0  0  0  0  0  0
    2.5784   -1.0978   -1.3776 H   0  0  0  0  0  0  0  0  0  0  0  0
    3.8344   -1.6112    0.2609 C   0  0  0  0  0  0  0  0  0  0  0  0
    3.4653   -2.5382    0.7119 H   0  0  0  0  0  0  0  0  0  0  0  0
    4.6122   -1.8633   -0.4661 H   0  0  0  0  0  0  0  0  0  0  0  0
    4.2844   -0.9924    1.0443 H   0  0  0  0  0  0  0  0  0  0  0  0
  1  2  1  0  0  0  0
  2  3  1  0  0  0  0
  2  4  1  0  0  0  0
  2  5  1  0  0  0  0
  5  6  2  0  0  0  0
  5  7  1  0  0  0  0
  7  8  1  0  0  0  0
  7 17  1  0  0  0  0
  8  9  1  0  0  0  0
  8 10  1  0  0  0  0
  8 11  1  0  0  0  0
 11 12  1  0  0  0  0
 11 13  1  0  0  0  0
 11 14  1  0  0  0  0
 14 15  1  0  0  0  0
 14 16  1  0  0  0  0
 14 17  1  0  0  0  0
 17 18  1  0  0  0  0
 17 19  1  0  0  0  0
 19 20  2  0  0  0  0
 19 21  1  0  0  0  0
 21 22  1  0  0  0  0
 21 23  1  0  0  0  0
 23 24  1  0  0  0  0
 23 25  1  0  0  0  0
 23 26  1  0  0  0  0
M  END
$$$$

  -OEChem-01062216093D

 26 26  0     1  0  0  0  0  0999 V2000
   -1.7922   -3.8495   -0.7019 H   0  0  0  0  0  0  0  0  0  0  0  0
   -2.0109   -2.7899   -0.5423 C   0  0  0  0  0  0  0  0  0  0  0  0
   -2.3692   -2.6597    0.4815 H   0  0  0  0  0  0  0  0  0  0  0  0
   -2.7942   -2.4856   -1.2401 H   0  0  0  0  0  0  0  0  0  0  0  0
   -0.7559   -1.9569   -0.7654 C   0  0  0  0  0  0  0  0  0  0  0  0
    0.2571   -2.5290   -1.1450 O   0  0  0  0  0  0  0  0  0  0  0  0
   -0.7654   -0.5662   -0.6717 N   0  0  0  0  0  0  0  0  0  0  0  0
   -1.9608    0.1581   -0.2627 C   0  0  0  0  0  0  0  0  0  0  0  0
   -2.2874   -0.1654    0.7318 H   0  0  0  0  0  0  0  0  0  0  0  0
   -2.7861    0.0319   -0.9713 H   0  0  0  0  0  0  0  0  0  0  0  0
   -1.4981    1.6051   -0.2210 C   0  0  0  0  0  0  0  0  0  0  0  0
   -2.0891    2.2056    0.4774 H   0  0  0  0  0  0  0  0  0  0  0  0
   -1.5731    2.0507   -1.2182 H   0  0  0  0  0  0  0  0  0  0  0  0
   -0.0385    1.5063    0.1987 C   0  0  0  0  0  0  0  0  0  0  0  0
    0.0220    1.4127    1.2886 H   0  0  0  0  0  0  0  0  0  0  0  0
    0.5379    2.3858   -0.1044 H   0  0  0  0  0  0  0  0  0  0  0  0
    0.4634    0.2301   -0.4890 C   0  0  1  0  0  0  0  0  0  0  0  0
    0.8390    0.4900   -1.4829 H   0  0  0  0  0  0  0  0  0  0  0  0
    1.6272   -0.4352    0.2886 C   0  0  0  0  0  0  0  0  0  0  0  0
    1.5098   -0.6880    1.4833 O   0  0  0  0  0  0  0  0  0  0  0  0
    2.8544   -0.6177   -0.3236 N   0  0  0  0  0  0  0  0  0  0  0  0
    2.8496   -0.5918   -1.3390 H   0  0  0  0  0  0  0  0  0  0  0  0
    3.9568   -1.3068    0.3353 C   0  0  0  0  0  0  0  0  0  0  0  0
    3.6742   -2.3373    0.5749 H   0  0  0  0  0  0  0  0  0  0  0  0
    4.8330   -1.3296   -0.3195 H   0  0  0  0  0  0  0  0  0  0  0  0
    4.2333   -0.7921    1.2614 H   0  0  0  0  0  0  0  0  0  0  0  0
  1  2  1  0  0  0  0
  2  3  1  0  0  0  0
  2  4  1  0  0  0  0
  2  5  1  0  0  0  0
  5  6  2  0  0  0  0
  5  7  1  0  0  0  0
  7  8  1  0  0  0  0
  7 17  1  0  0  0  0
  8  9  1  0  0  0  0
  8 10  1  0  0  0  0
  8 11  1  0  0  0  0
 11 12  1  0  0  0  0
 11 13  1  0  0  0  0
 11 14  1  0  0  0  0
 14 15  1  0  0  0  0
 14 16  1  0  0  0  0
 14 17  1  0  0  0  0
 17 18  1  0  0  0  0
 17 19  1  0  0  0  0
 19 20  2  0  0  0  0
 19 21  1  0  0  0  0
 21 22  1  0  0  0  0
 21 23  1  0  0  0  0
 23 24  1  0  0  0  0
 23 25  1  0  0  0  0
 23 26  1  0  0  0  0
M  END
$$$$

  -OEChem-01062216093D

 26 26  0     1  0  0  0  0  0999 V2000
   -1.7953   -3.8517   -0.6840 H   0  0  0  0  0  0  0  0  0  0  0  0
   -2.0105   -2.7913   -0.5254 C   0  0  0  0  0  0  0  0  0  0  0  0
   -2.3411   -2.6547    0.5070 H   0  0  0  0  0  0  0  0  0  0  0  0
   -2.8124   -2.4914   -1.2038 H   0  0  0  0  0  0  0  0  0  0  0  0
   -0.7627   -1.9586   -0.7865 C   0  0  0  0  0  0  0  0  0  0  0  0
    0.2389   -2.5291   -1.1976 O   0  0  0  0  0  0  0  0  0  0  0  0
   -0.7708   -0.5677   -0.6977 N   0  0  0  0  0  0  0  0  0  0  0  0
   -1.9604    0.1568   -0.2735 C   0  0  0  0  0  0  0  0  0  0  0  0
   -2.2823   -0.1760    0.7194 H   0  0  0  0  0  0  0  0  0  0  0  0
   -2.7902    0.0406   -0.9786 H   0  0  0  0  0  0  0  0  0  0  0  0
   -1.4915    1.6014   -0.2178 C   0  0  0  0  0  0  0  0  0  0  0  0
   -2.0763    2.1963    0.4906 H   0  0  0  0  0  0  0  0  0  0  0  0
   -1.5691    2.0585   -1.2097 H   0  0  0  0  0  0  0  0  0  0  0  0
   -0.0306    1.4898    0.1936 C   0  0  0  0  0  0  0  0  0  0  0  0
    0.0366    1.3791    1.2818 H   0  0  0  0  0  0  0  0  0  0  0  0
    0.5482    2.3706   -0.1010 H   0  0  0  0  0  0  0  0  0  0  0  0
    0.4623    0.2204   -0.5105 C   0  0  1  0  0  0  0  0  0  0  0  0
    0.8413    0.4823   -1.5027 H   0  0  0  0  0  0  0  0  0  0  0  0
    1.6188   -0.4469    0.2748 C   0  0  0  0  0  0  0  0  0  0  0  0
    1.4232   -0.8896    1.4022 O   0  0  0  0  0  0  0  0  0  0  0  0
    2.9164   -0.3629   -0.1985 N   0  0  0  0  0  0  0  0  0  0  0  0
    3.0272   -0.1118   -1.1760 H   0  0  0  0  0  0  0  0  0  0  0  0
    4.0434   -0.9809    0.4890 C   0  0  0  0  0  0  0  0  0  0  0  0
    3.9046   -2.0655    0.5505 H   0  0  0  0  0  0  0  0  0  0  0  0
    4.9726   -0.7788   -0.0520 H   0  0  0  0  0  0  0  0  0  0  0  0
    4.1419   -0.5796    1.5032 H   0  0  0  0  0  0  0  0  0  0  0  0
  1  2  1  0  0  0  0
  2  3  1  0  0  0  0
  2  4  1  0  0  0  0
  2  5  1  0  0  0  0
  5  6  2  0  0  0  0
  5  7  1  0  0  0  0
  7  8  1  0  0  0  0
  7 17  1  0  0  0  0
  8  9  1  0  0  0  0
  8 10  1  0  0  0  0
  8 11  1  0  0  0  0
 11 12  1  0  0  0  0
 11 13  1  0  0  0  0
 11 14  1  0  0  0  0
 14 15  1  0  0  0  0
 14 16  1  0  0  0  0
 14 17  1  0  0  0  0
 17 18  1  0  0  0  0
 17 19  1  0  0  0  0
 19 20  2  0  0  0  0
 19 21  1  0  0  0  0
 21 22  1  0  0  0  0
 21 23  1  0  0  0  0
 23 24  1  0  0  0  0
 23 25  1  0  0  0  0
 23 26  1  0  0  0  0
M  END
$$$$

  -OEChem-01062216093D

 26 26  0     1  0  0  0  0  0999 V2000
   -1.8084   -3.8540   -0.6820 H   0  0  0  0  0  0  0  0  0  0  0  0
   -2.0179   -2.7934   -0.5171 C   0  0  0  0  0  0  0  0  0  0  0  0
   -2.3267   -2.6578    0.5221 H   0  0  0  0  0  0  0  0  0  0  0  0
   -2.8325   -2.4899   -1.1785 H   0  0  0  0  0  0  0  0  0  0  0  0
   -0.7734   -1.9642   -0.8023 C   0  0  0  0  0  0  0  0  0  0  0  0
    0.2139   -2.5352   -1.2465 O   0  0  0  0  0  0  0  0  0  0  0  0
   -0.7745   -0.5730   -0.7151 N   0  0  0  0  0  0  0  0  0  0  0  0
   -1.9575    0.1558   -0.2798 C   0  0  0  0  0  0  0  0  0  0  0  0
   -2.2781   -0.1830    0.7116 H   0  0  0  0  0  0  0  0  0  0  0  0
   -2.7907    0.0509   -0.9825 H   0  0  0  0  0  0  0  0  0  0  0  0
   -1.4789    1.5965   -0.2135 C   0  0  0  0  0  0  0  0  0  0  0  0
   -2.0564    2.1892    0.5027 H   0  0  0  0  0  0  0  0  0  0  0  0
   -1.5579    2.0630   -1.2010 H   0  0  0  0  0  0  0  0  0  0  0  0
   -0.0173    1.4700    0.1902 C   0  0  0  0  0  0  0  0  0  0  0  0
    0.0546    1.3460    1.2768 H   0  0  0  0  0  0  0  0  0  0  0  0
    0.5659    2.3501   -0.0976 H   0  0  0  0  0  0  0  0  0  0  0  0
    0.4660    0.2042   -0.5262 C   0  0  1  0  0  0  0  0  0  0  0  0
    0.8458    0.4663   -1.5180 H   0  0  0  0  0  0  0  0  0  0  0  0
    1.6217   -0.4630    0.2613 C   0  0  0  0  0  0  0  0  0  0  0  0
    1.3901   -1.0708    1.3017 O   0  0  0  0  0  0  0  0  0  0  0  0
    2.9332   -0.1309   -0.0319 N   0  0  0  0  0  0  0  0  0  0  0  0
    3.1058    0.3207   -0.9244 H   0  0  0  0  0  0  0  0  0  0  0  0
    4.0686   -0.6699    0.7071 C   0  0  0  0  0  0  0  0  0  0  0  0
    4.0985   -1.7612    0.6200 H   0  0  0  0  0  0  0  0  0  0  0  0
    5.0047   -0.2642    0.3117 H   0  0  0  0  0  0  0  0  0  0  0  0
    3.9989   -0.4027    1.7669 H   0  0  0  0  0  0  0  0  0  0  0  0
  1  2  1  0  0  0  0
  2  3  1  0  0  0  0
  2  4  1  0  0  0  0
  2  5  1  0  0  0  0
  5  6  2  0  0  0  0
  5  7  1  0  0  0  0
  7  8  1  0  0  0  0
  7 17  1  0  0  0  0
  8  9  1  0  0  0  0
  8 10  1  0  0  0  0
  8 11  1  0  0  0  0
 11 12  1  0  0  0  0
 11 13  1  0  0  0  0
 11 14  1  0  0  0  0
 14 15  1  0  0  0  0
 14 16  1  0  0  0  0
 14 17  1  0  0  0  0
 17 18  1  0  0  0  0
 17 19  1  0  0  0  0
 19 20  2  0  0  0  0
 19 21  1  0  0  0  0
 21 22  1  0  0  0  0
 21 23  1  0  0  0  0
 23 24  1  0  0  0  0
 23 25  1  0  0  0  0
 23 26  1  0  0  0  0
M  END
$$$$

  -OEChem-01062216093D

 26 26  0     1  0  0  0  0  0999 V2000
   -1.8340   -3.8543   -0.6991 H   0  0  0  0  0  0  0  0  0  0  0  0
   -2.0274   -2.7949   -0.5089 C   0  0  0  0  0  0  0  0  0  0  0  0
   -2.2962   -2.6743    0.5431 H   0  0  0  0  0  0  0  0  0  0  0  0
   -2.8628   -2.4737   -1.1351 H   0  0  0  0  0  0  0  0  0  0  0  0
   -0.7860   -1.9714   -0.8241 C   0  0  0  0  0  0  0  0  0  0  0  0
    0.1808   -2.5424   -1.3112 O   0  0  0  0  0  0  0  0  0  0  0  0
   -0.7739   -0.5805   -0.7310 N   0  0  0  0  0  0  0  0  0  0  0  0
   -1.9504    0.1547   -0.2895 C   0  0  0  0  0  0  0  0  0  0  0  0
   -2.2749   -0.1900    0.6984 H   0  0  0  0  0  0  0  0  0  0  0  0
   -2.7838    0.0632   -0.9939 H   0  0  0  0  0  0  0  0  0  0  0  0
   -1.4597    1.5902   -0.2104 C   0  0  0  0  0  0  0  0  0  0  0  0
   -2.0317    2.1813    0.5114 H   0  0  0  0  0  0  0  0  0  0  0  0
   -1.5348    2.0658   -1.1938 H   0  0  0  0  0  0  0  0  0  0  0  0
    0.0003    1.4463    0.1916 C   0  0  0  0  0  0  0  0  0  0  0  0
    0.0706    1.3103    1.2771 H   0  0  0  0  0  0  0  0  0  0  0  0
    0.5907    2.3248   -0.0866 H   0  0  0  0  0  0  0  0  0  0  0  0
    0.4750    0.1831   -0.5355 C   0  0  1  0  0  0  0  0  0  0  0  0
    0.8580    0.4473   -1.5255 H   0  0  0  0  0  0  0  0  0  0  0  0
    1.6339   -0.4822    0.2509 C   0  0  0  0  0  0  0  0  0  0  0  0
    1.4017   -1.2478    1.1809 O   0  0  0  0  0  0  0  0  0  0  0  0
    2.9012    0.0710    0.1739 N   0  0  0  0  0  0  0  0  0  0  0  0
    3.0849    0.7045   -0.5975 H   0  0  0  0  0  0  0  0  0  0  0  0
    4.0250   -0.3966    0.9771 C   0  0  0  0  0  0  0  0  0  0  0  0
    4.2258   -1.4540    0.7750 H   0  0  0  0  0  0  0  0  0  0  0  0
    4.9245    0.1791    0.7394 H   0  0  0  0  0  0  0  0  0  0  0  0
    3.8112   -0.2762    2.0443 H   0  0  0  0  0  0  0  0  0  0  0  0
  1  2  1  0  0  0  0
  2  3  1  0  0  0  0
  2  4  1  0  0  0  0
  2  5  1  0  0  0  0
  5  6  2  0  0  0  0
  5  7  1  0  0  0  0
  7  8  1  0  0  0  0
  7 17  1  0  0  0  0
  8  9  1  0  0  0  0
  8 10  1  0  0  0  0
  8 11  1  0  0  0  0
 11 12  1  0  0  0  0
 11 13  1  0  0  0  0
 11 14  1  0  0  0  0
 14 15  1  0  0  0  0
 14 16  1  0  0  0  0
 14 17  1  0  0  0  0
 17 18  1  0  0  0  0
 17 19  1  0  0  0  0
 19 20  2  0  0  0  0
 19 21  1  0  0  0  0
 21 22  1  0  0  0  0
 21 23  1  0  0  0  0
 23 24  1  0  0  0  0
 23 25  1  0  0  0  0
 23 26  1  0  0  0  0
M  END
$$$$

  -OEChem-01062216093D

 26 26  0     1  0  0  0  0  0999 V2000
   -1.8950   -3.8509   -0.8330 H   0  0  0  0  0  0  0  0  0  0  0  0
   -2.0204   -2.8183   -0.4955 C   0  0  0  0  0  0  0  0  0  0  0  0
   -2.0532   -2.8130    0.5964 H   0  0  0  0  0  0  0  0  0  0  0  0
   -2.9641   -2.4348   -0.8898 H   0  0  0  0  0  0  0  0  0  0  0  0
   -0.8556   -1.9654   -0.9842 C   0  0  0  0  0  0  0  0  0  0  0  0
   -0.0418   -2.4876   -1.7338 O   0  0  0  0  0  0  0  0  0  0  0  0
   -0.8029   -0.5792   -0.8291 N   0  0  0  0  0  0  0  0  0  0  0  0
   -1.9056    0.0862   -0.1406 C   0  0  0  0  0  0  0  0  0  0  0  0
   -2.1583   -0.4311    0.7913 H   0  0  0  0  0  0  0  0  0  0  0  0
   -2.8006    0.1481   -0.7687 H   0  0  0  0  0  0  0  0  0  0  0  0
   -1.3686    1.4668    0.1792 C   0  0  0  0  0  0  0  0  0  0  0  0
   -1.8623    1.9092    1.0502 H   0  0  0  0  0  0  0  0  0  0  0  0
   -1.5090    2.1310   -0.6801 H   0  0  0  0  0  0  0  0  0  0  0  0
    0.1119    1.2261    0.4169 C   0  0  0  0  0  0  0  0  0  0  0  0
    0.2702    0.8701    1.4414 H   0  0  0  0  0  0  0  0  0  0  0  0
    0.7029    2.1350    0.2679 H   0  0  0  0  0  0  0  0  0  0  0  0
    0.4792    0.1280   -0.5862 C   0  0  1  0  0  0  0  0  0  0  0  0
    0.7414    0.5996   -1.5378 H   0  0  0  0  0  0  0  0  0  0  0  0
    1.7590   -0.6327   -0.1386 C   0  0  0  0  0  0  0  0  0  0  0  0
    1.6976   -1.7015    0.4576 O   0  0  0  0  0  0  0  0  0  0  0  0
    2.9163    0.1049    0.0587 N   0  0  0  0  0  0  0  0  0  0  0  0
    2.9621    1.0231   -0.3715 H   0  0  0  0  0  0  0  0  0  0  0  0
    4.1171   -0.4312    0.6908 C   0  0  0  0  0  0  0  0  0  0  0  0
    4.4833   -1.3033    0.1388 H   0  0  0  0  0  0  0  0  0  0  0  0
    4.9069    0.3259    0.7056 H   0  0  0  0  0  0  0  0  0  0  0  0
    3.9067   -0.7297    1.7232 H   0  0  0  0  0  0  0  0  0  0  0  0
  1  2  1  0  0  0  0
  2  3  1  0  0  0  0
  2  4  1  0  0  0  0
  2  5  1  0  0  0  0
  5  6  2  0  0  0  0
  5  7  1  0  0  0  0
  7  8  1  0  0  0  0
  7 17  1  0  0  0  0
  8  9  1  0  0  0  0
  8 10  1  0  0  0  0
  8 11  1  0  0  0  0
 11 12  1  0  0  0  0
 11 13  1  0  0  0  0
 11 14  1  0  0  0  0
 14 15  1  0  0  0  0
 14 16  1  0  0  0  0
 14 17  1  0  0  0  0
 17 18  1  0  0  0  0
 17 19  1  0  0  0  0
 19 20  2  0  0  0  0
 19 21  1  0  0  0  0
 21 22  1  0  0  0  0
 21 23  1  0  0  0  0
 23 24  1  0  0  0  0
 23 25  1  0  0  0  0
 23 26  1  0  0  0  0
M  END
$$$$

  -OEChem-01062216093D

 26 26  0     1  0  0  0  0  0999 V2000
   -1.8687   -3.8578   -0.7782 H   0  0  0  0  0  0  0  0  0  0  0  0
   -1.9937   -2.8213   -0.4528 C   0  0  0  0  0  0  0  0  0  0  0  0
   -1.9846   -2.7991    0.6394 H   0  0  0  0  0  0  0  0  0  0  0  0
   -2.9565   -2.4555   -0.8165 H   0  0  0  0  0  0  0  0  0  0  0  0
   -0.8590   -1.9635   -1.0005 C   0  0  0  0  0  0  0  0  0  0  0  0
   -0.1097   -2.4715   -1.8221 O   0  0  0  0  0  0  0  0  0  0  0  0
   -0.7912   -0.5800   -0.8310 N   0  0  0  0  0  0  0  0  0  0  0  0
   -1.9025    0.0888   -0.1602 C   0  0  0  0  0  0  0  0  0  0  0  0
   -2.1673   -0.4220    0.7718 H   0  0  0  0  0  0  0  0  0  0  0  0
   -2.7893    0.1449   -0.8002 H   0  0  0  0  0  0  0  0  0  0  0  0
   -1.3737    1.4718    0.1582 C   0  0  0  0  0  0  0  0  0  0  0  0
   -1.8802    1.9192    1.0190 H   0  0  0  0  0  0  0  0  0  0  0  0
   -1.5038    2.1295   -0.7077 H   0  0  0  0  0  0  0  0  0  0  0  0
    0.1028    1.2331    0.4169 C   0  0  0  0  0  0  0  0  0  0  0  0
    0.2456    0.8842    1.4459 H   0  0  0  0  0  0  0  0  0  0  0  0
    0.6918    2.1439    0.2708 H   0  0  0  0  0  0  0  0  0  0  0  0
    0.4898    0.1283   -0.5750 C   0  0  1  0  0  0  0  0  0  0  0  0
    0.7554    0.6001   -1.5257 H   0  0  0  0  0  0  0  0  0  0  0  0
    1.7875   -0.6099   -0.1248 C   0  0  0  0  0  0  0  0  0  0  0  0
    1.8184   -1.7974    0.1667 O   0  0  0  0  0  0  0  0  0  0  0  0
    2.8294    0.1531    0.3824 N   0  0  0  0  0  0  0  0  0  0  0  0
    2.7975    1.1539    0.2179 H   0  0  0  0  0  0  0  0  0  0  0  0
    4.0138   -0.4129    1.0203 C   0  0  0  0  0  0  0  0  0  0  0  0
    4.5297   -1.0934    0.3347 H   0  0  0  0  0  0  0  0  0  0  0  0
    4.7078    0.3841    1.3035 H   0  0  0  0  0  0  0  0  0  0  0  0
    3.7363   -0.9662    1.9238 H   0  0  0  0  0  0  0  0  0  0  0  0
  1  2  1  0  0  0  0
  2  3  1  0  0  0  0
  2  4  1  0  0  0  0
  2  5  1  0  0  0  0
  5  6  2  0  0  0  0
  5  7  1  0  0  0  0
  7  8  1  0  0  0  0
  7 17  1  0  0  0  0
  8  9  1  0  0  0  0
  8 10  1  0  0  0  0
  8 11  1  0  0  0  0
 11 12  1  0  0  0  0
 11 13  1  0  0  0  0
 11 14  1  0  0  0  0
 14 15  1  0  0  0  0
 14 16  1  0  0  0  0
 14 17  1  0  0  0  0
 17 18  1  0  0  0  0
 17 19  1  0  0  0  0
 19 20  2  0  0  0  0
 19 21  1  0  0  0  0
 21 22  1  0  0  0  0
 21 23  1  0  0  0  0
 23 24  1  0  0  0  0
 23 25  1  0  0  0  0
 23 26  1  0  0  0  0
M  END
$$$$

  -OEChem-01062216093D

 26 26  0     1  0  0  0  0  0999 V2000
   -1.8378   -3.8613   -0.7080 H   0  0  0  0  0  0  0  0  0  0  0  0
   -1.9749   -2.8158   -0.4171 C   0  0  0  0  0  0  0  0  0  0  0  0
   -1.9619   -2.7575    0.6736 H   0  0  0  0  0  0  0  0  0  0  0  0
   -2.9439   -2.4744   -0.7881 H   0  0  0  0  0  0  0  0  0  0  0  0
   -0.8542   -1.9625   -0.9998 C   0  0  0  0  0  0  0  0  0  0  0  0
   -0.1491   -2.4745   -1.8546 O   0  0  0  0  0  0  0  0  0  0  0  0
   -0.7744   -0.5808   -0.8208 N   0  0  0  0  0  0  0  0  0  0  0  0
   -1.9061    0.0978   -0.1950 C   0  0  0  0  0  0  0  0  0  0  0  0
   -2.1986   -0.3972    0.7372 H   0  0  0  0  0  0  0  0  0  0  0  0
   -2.7733    0.1413   -0.8626 H   0  0  0  0  0  0  0  0  0  0  0  0
   -1.3911    1.4875    0.1161 C   0  0  0  0  0  0  0  0  0  0  0  0
   -1.9252    1.9487    0.9525 H   0  0  0  0  0  0  0  0  0  0  0  0
   -1.4942    2.1301   -0.7647 H   0  0  0  0  0  0  0  0  0  0  0  0
    0.0762    1.2554    0.4250 C   0  0  0  0  0  0  0  0  0  0  0  0
    0.1810    0.9257    1.4648 H   0  0  0  0  0  0  0  0  0  0  0  0
    0.6683    2.1649    0.2814 H   0  0  0  0  0  0  0  0  0  0  0  0
    0.4981    0.1339   -0.5361 C   0  0  1  0  0  0  0  0  0  0  0  0
    0.7830    0.5983   -1.4853 H   0  0  0  0  0  0  0  0  0  0  0  0
    1.7998   -0.5876   -0.0626 C   0  0  0  0  0  0  0  0  0  0  0  0
    2.0238   -1.7786   -0.2052 O   0  0  0  0  0  0  0  0  0  0  0  0
    2.6919    0.1011    0.7471 N   0  0  0  0  0  0  0  0  0  0  0  0
    2.5158    1.0880    0.9033 H   0  0  0  0  0  0  0  0  0  0  0  0
    3.8945   -0.4948    1.3205 C   0  0  0  0  0  0  0  0  0  0  0  0
    4.5588   -0.8556    0.5280 H   0  0  0  0  0  0  0  0  0  0  0  0
    4.4372    0.2459    1.9158 H   0  0  0  0  0  0  0  0  0  0  0  0
    3.6329   -1.3360    1.9712 H   0  0  0  0  0  0  0  0  0  0  0  0
  1  2  1  0  0  0  0
  2  3  1  0  0  0  0
  2  4  1  0  0  0  0
  2  5  1  0  0  0  0
  5  6  2  0  0  0  0
  5  7  1  0  0  0  0
  7  8  1  0  0  0  0
  7 17  1  0  0  0  0
  8  9  1  0  0  0  0
  8 10  1  0  0  0  0
  8 11  1  0  0  0  0
 11 12  1  0  0  0  0
 11 13  1  0  0  0  0
 11 14  1  0  0  0  0
 14 15  1  0  0  0  0
 14 16  1  0  0  0  0
 14 17  1  0  0  0  0
 17 18  1  0  0  0  0
 17 19  1  0  0  0  0
 19 20  2  0  0  0  0
 19 21  1  0  0  0  0
 21 22  1  0  0  0  0
 21 23  1  0  0  0  0
 23 24  1  0  0  0  0
 23 25  1  0  0  0  0
 23 26  1  0  0  0  0
M  END
$$$$

  -OEChem-01062216093D

 26 26  0     1  0  0  0  0  0999 V2000
   -2.2050   -3.8105   -0.9911 H   0  0  0  0  0  0  0  0  0  0  0  0
   -2.2975   -2.7450   -0.7609 C   0  0  0  0  0  0  0  0  0  0  0  0
   -2.8223   -2.6404    0.1913 H   0  0  0  0  0  0  0  0  0  0  0  0
   -2.8838   -2.2716   -1.5519 H   0  0  0  0  0  0  0  0  0  0  0  0
   -0.9161   -2.1031   -0.6774 C   0  0  0  0  0  0  0  0  0  0  0  0
    0.0289   -2.8655   -0.7315 O   0  0  0  0  0  0  0  0  0  0  0  0
   -0.7650   -0.7166   -0.5660 N   0  0  0  0  0  0  0  0  0  0  0  0
   -1.9118    0.0417   -0.0703 C   0  0  0  0  0  0  0  0  0  0  0  0
   -2.2493   -0.3528    0.8947 H   0  0  0  0  0  0  0  0  0  0  0  0
   -2.7510    0.0348   -0.7740 H   0  0  0  0  0  0  0  0  0  0  0  0
   -1.3746    1.4438    0.1013 C   0  0  0  0  0  0  0  0  0  0  0  0
   -1.9211    2.0011    0.8684 H   0  0  0  0  0  0  0  0  0  0  0  0
   -1.4507    1.9879   -0.8462 H   0  0  0  0  0  0  0  0  0  0  0  0
    0.0874    1.2464    0.4674 C   0  0  0  0  0  0  0  0  0  0  0  0
    0.1664    1.0379    1.5395 H   0  0  0  0  0  0  0  0  0  0  0  0
    0.6923    2.1280    0.2314 H   0  0  0  0  0  0  0  0  0  0  0  0
    0.5116    0.0213   -0.3521 C   0  0  1  0  0  0  0  0  0  0  0  0
    0.7751    0.3949   -1.3470 H   0  0  0  0  0  0  0  0  0  0  0  0
    1.8367   -0.6480    0.1154 C   0  0  0  0  0  0  0  0  0  0  0  0
    2.4487   -1.4089   -0.6207 O   0  0  0  0  0  0  0  0  0  0  0  0
    2.5931   -0.0499    1.1135 N   0  0  0  0  0  0  0  0  0  0  0  0
    2.1444    0.6658    1.6744 H   0  0  0  0  0  0  0  0  0  0  0  0
    3.9543   -0.4536    1.4508 C   0  0  0  0  0  0  0  0  0  0  0  0
    4.6270   -0.2794    0.6045 H   0  0  0  0  0  0  0  0  0  0  0  0
    4.3188    0.1232    2.3059 H   0  0  0  0  0  0  0  0  0  0  0  0
    3.9850   -1.5167    1.7123 H   0  0  0  0  0  0  0  0  0  0  0  0
  1  2  1  0  0  0  0
  2  3  1  0  0  0  0
  2  4  1  0  0  0  0
  2  5  1  0  0  0  0
  5  6  2  0  0  0  0
  5  7  1  0  0  0  0
  7  8  1  0  0  0  0
  7 17  1  0  0  0  0
  8  9  1  0  0  0  0
  8 10  1  0  0  0  0
  8 11  1  0  0  0  0
 11 12  1  0  0  0  0
 11 13  1  0  0  0  0
 11 14  1  0  0  0  0
 14 15  1  0  0  0  0
 14 16  1  0  0  0  0
 14 17  1  0  0  0  0
 17 18  1  0  0  0  0
 17 19  1  0  0  0  0
 19 20  2  0  0  0  0
 19 21  1  0  0  0  0
 21 22  1  0  0  0  0
 21 23  1  0  0  0  0
 23 24  1  0  0  0  0
 23 25  1  0  0  0  0
 23 26  1  0  0  0  0
M  END
$$$$

  -OEChem-01062216093D

 26 26  0     1  0  0  0  0  0999 V2000
   -2.1193   -3.8201   -0.9854 H   0  0  0  0  0  0  0  0  0  0  0  0
   -2.2409   -2.7587   -0.7500 C   0  0  0  0  0  0  0  0  0  0  0  0
   -2.7592   -2.6723    0.2077 H   0  0  0  0  0  0  0  0  0  0  0  0
   -2.8482   -2.2996   -1.5335 H   0  0  0  0  0  0  0  0  0  0  0  0
   -0.8783   -2.0777   -0.6759 C   0  0  0  0  0  0  0  0  0  0  0  0
    0.0932   -2.8092   -0.7199 O   0  0  0  0  0  0  0  0  0  0  0  0
   -0.7646   -0.6878   -0.5713 N   0  0  0  0  0  0  0  0  0  0  0  0
   -1.9210    0.0529   -0.0737 C   0  0  0  0  0  0  0  0  0  0  0  0
   -2.2504   -0.3448    0.8927 H   0  0  0  0  0  0  0  0  0  0  0  0
   -2.7614    0.0326   -0.7757 H   0  0  0  0  0  0  0  0  0  0  0  0
   -1.4001    1.4630    0.0935 C   0  0  0  0  0  0  0  0  0  0  0  0
   -1.9514    2.0150    0.8613 H   0  0  0  0  0  0  0  0  0  0  0  0
   -1.4870    2.0044   -0.8546 H   0  0  0  0  0  0  0  0  0  0  0  0
    0.0669    1.2873    0.4550 C   0  0  0  0  0  0  0  0  0  0  0  0
    0.1506    1.0867    1.5275 H   0  0  0  0  0  0  0  0  0  0  0  0
    0.6609    2.1750    0.2139 H   0  0  0  0  0  0  0  0  0  0  0  0
    0.5007    0.0662   -0.3648 C   0  0  1  0  0  0  0  0  0  0  0  0
    0.7598    0.4434   -1.3597 H   0  0  0  0  0  0  0  0  0  0  0  0
    1.8174   -0.6169    0.0999 C   0  0  0  0  0  0  0  0  0  0  0  0
    2.5254   -1.1896   -0.7182 O   0  0  0  0  0  0  0  0  0  0  0  0
    2.4303   -0.2351    1.2841 N   0  0  0  0  0  0  0  0  0  0  0  0
    1.8651    0.2695    1.9578 H   0  0  0  0  0  0  0  0  0  0  0  0
    3.7500   -0.7051    1.6911 C   0  0  0  0  0  0  0  0  0  0  0  0
    4.5102   -0.3875    0.9697 H   0  0  0  0  0  0  0  0  0  0  0  0
    4.0126   -0.2946    2.6706 H   0  0  0  0  0  0  0  0  0  0  0  0
    3.7626   -1.7981    1.7581 H   0  0  0  0  0  0  0  0  0  0  0  0
  1  2  1  0  0  0  0
  2  3  1  0  0  0  0
  2  4  1  0  0  0  0
  2  5  1  0  0  0  0
  5  6  2  0  0  0  0
  5  7  1  0  0  0  0
  7  8  1  0  0  0  0
  7 17  1  0  0  0  0
  8  9  1  0  0  0  0
  8 10  1  0  0  0  0
  8 11  1  0  0  0  0
 11 12  1  0  0  0  0
 11 13  1  0  0  0  0
 11 14  1  0  0  0  0
 14 15  1  0  0  0  0
 14 16  1  0  0  0  0
 14 17  1  0  0  0  0
 17 18  1  0  0  0  0
 17 19  1  0  0  0  0
 19 20  2  0  0  0  0
 19 21  1  0  0  0  0
 21 22  1  0  0  0  0
 21 23  1  0  0  0  0
 23 24  1  0  0  0  0
 23 25  1  0  0  0  0
 23 26  1  0  0  0  0
M  END
$$$$

  -OEChem-01062216093D

 26 26  0     1  0  0  0  0  0999 V2000
   -2.0543   -3.8244   -0.9660 H   0  0  0  0  0  0  0  0  0  0  0  0
   -2.1945   -2.7646   -0.7344 C   0  0  0  0  0  0  0  0  0  0  0  0
   -2.6957   -2.6836    0.2327 H   0  0  0  0  0  0  0  0  0  0  0  0
   -2.8278   -2.3234   -1.5076 H   0  0  0  0  0  0  0  0  0  0  0  0
   -0.8463   -2.0539   -0.6925 C   0  0  0  0  0  0  0  0  0  0  0  0
    0.1441   -2.7583   -0.7710 O   0  0  0  0  0  0  0  0  0  0  0  0
   -0.7600   -0.6627   -0.5873 N   0  0  0  0  0  0  0  0  0  0  0  0
   -1.9215    0.0615   -0.0777 C   0  0  0  0  0  0  0  0  0  0  0  0
   -2.2408   -0.3468    0.8876 H   0  0  0  0  0  0  0  0  0  0  0  0
   -2.7654    0.0361   -0.7752 H   0  0  0  0  0  0  0  0  0  0  0  0
   -1.4139    1.4768    0.0973 C   0  0  0  0  0  0  0  0  0  0  0  0
   -1.9681    2.0176    0.8707 H   0  0  0  0  0  0  0  0  0  0  0  0
   -1.5094    2.0240   -0.8467 H   0  0  0  0  0  0  0  0  0  0  0  0
    0.0567    1.3138    0.4530 C   0  0  0  0  0  0  0  0  0  0  0  0
    0.1492    1.1119    1.5243 H   0  0  0  0  0  0  0  0  0  0  0  0
    0.6418    2.2076    0.2125 H   0  0  0  0  0  0  0  0  0  0  0  0
    0.4958    0.1028   -0.3778 C   0  0  1  0  0  0  0  0  0  0  0  0
    0.7537    0.4892   -1.3697 H   0  0  0  0  0  0  0  0  0  0  0  0
    1.8044   -0.5898    0.0887 C   0  0  0  0  0  0  0  0  0  0  0  0
    2.6147   -0.9717   -0.7463 O   0  0  0  0  0  0  0  0  0  0  0  0
    2.2508   -0.4559    1.3942 N   0  0  0  0  0  0  0  0  0  0  0  0
    1.5677   -0.1634    2.0840 H   0  0  0  0  0  0  0  0  0  0  0  0
    3.5209   -1.0005    1.8595 C   0  0  0  0  0  0  0  0  0  0  0  0
    4.3554   -0.5541    1.3086 H   0  0  0  0  0  0  0  0  0  0  0  0
    3.6569   -0.7854    2.9236 H   0  0  0  0  0  0  0  0  0  0  0  0
    3.5457   -2.0863    1.7182 H   0  0  0  0  0  0  0  0  0  0  0  0
  1  2  1  0  0  0  0
  2  3  1  0  0  0  0
  2  4  1  0  0  0  0
  2  5  1  0  0  0  0
  5  6  2  0  0  0  0
  5  7  1  0  0  0  0
  7  8  1  0  0  0  0
  7 17  1  0  0  0  0
  8  9  1  0  0  0  0
  8 10  1  0  0  0  0
  8 11  1  0  0  0  0
 11 12  1  0  0  0  0
 11 13  1  0  0  0  0
 11 14  1  0  0  0  0
 14 15  1  0  0  0  0
 14 16  1  0  0  0  0
 14 17  1  0  0  0  0
 17 18  1  0  0  0  0
 17 19  1  0  0  0  0
 19 20  2  0  0  0  0
 19 21  1  0  0  0  0
 21 22  1  0  0  0  0
 21 23  1  0  0  0  0
 23 24  1  0  0  0  0
 23 25  1  0  0  0  0
 23 26  1  0  0  0  0
M  END
$$$$

  -OEChem-01062216093D

 26 26  0     1  0  0  0  0  0999 V2000
   -2.0130   -3.8235   -0.9700 H   0  0  0  0  0  0  0  0  0  0  0  0
   -2.1646   -2.7679   -0.7268 C   0  0  0  0  0  0  0  0  0  0  0  0
   -2.6497   -2.7020    0.2496 H   0  0  0  0  0  0  0  0  0  0  0  0
   -2.8176   -2.3294   -1.4850 H   0  0  0  0  0  0  0  0  0  0  0  0
   -0.8264   -2.0380   -0.7023 C   0  0  0  0  0  0  0  0  0  0  0  0
    0.1757   -2.7244   -0.8020 O   0  0  0  0  0  0  0  0  0  0  0  0
   -0.7564   -0.6460   -0.5992 N   0  0  0  0  0  0  0  0  0  0  0  0
   -1.9206    0.0686   -0.0826 C   0  0  0  0  0  0  0  0  0  0  0  0
   -2.2367   -0.3474    0.8804 H   0  0  0  0  0  0  0  0  0  0  0  0
   -2.7653    0.0437   -0.7792 H   0  0  0  0  0  0  0  0  0  0  0  0
   -1.4184    1.4856    0.1015 C   0  0  0  0  0  0  0  0  0  0  0  0
   -1.9750    2.0202    0.8775 H   0  0  0  0  0  0  0  0  0  0  0  0
   -1.5158    2.0375   -0.8394 H   0  0  0  0  0  0  0  0  0  0  0  0
    0.0534    1.3280    0.4561 C   0  0  0  0  0  0  0  0  0  0  0  0
    0.1535    1.1208    1.5258 H   0  0  0  0  0  0  0  0  0  0  0  0
    0.6344    2.2252    0.2186 H   0  0  0  0  0  0  0  0  0  0  0  0
    0.4935    0.1252   -0.3832 C   0  0  1  0  0  0  0  0  0  0  0  0
    0.7540    0.5170   -1.3723 H   0  0  0  0  0  0  0  0  0  0  0  0
    1.7939   -0.5720    0.0921 C   0  0  0  0  0  0  0  0  0  0  0  0
    2.7085   -0.7478   -0.7036 O   0  0  0  0  0  0  0  0  0  0  0  0
    2.0695   -0.7037    1.4434 N   0  0  0  0  0  0  0  0  0  0  0  0
    1.2791   -0.6289    2.0746 H   0  0  0  0  0  0  0  0  0  0  0  0
    3.2977   -1.3130    1.9391 C   0  0  0  0  0  0  0  0  0  0  0  0
    4.1721   -0.7518    1.5931 H   0  0  0  0  0  0  0  0  0  0  0  0
    3.3027   -1.3169    3.0331 H   0  0  0  0  0  0  0  0  0  0  0  0
    3.3804   -2.3467    1.5867 H   0  0  0  0  0  0  0  0  0  0  0  0
  1  2  1  0  0  0  0
  2  3  1  0  0  0  0
  2  4  1  0  0  0  0
  2  5  1  0  0  0  0
  5  6  2  0  0  0  0
  5  7  1  0  0  0  0
  7  8  1  0  0  0  0
  7 17  1  0  0  0  0
  8  9  1  0  0  0  0
  8 10  1  0  0  0  0
  8 11  1  0  0  0  0
 11 12  1  0  0  0  0
 11 13  1  0  0  0  0
 11 14  1  0  0  0  0
 14 15  1  0  0  0  0
 14 16  1  0  0  0  0
 14 17  1  0  0  0  0
 17 18  1  0  0  0  0
 17 19  1  0  0  0  0
 19 20  2  0  0  0  0
 19 21  1  0  0  0  0
 21 22  1  0  0  0  0
 21 23  1  0  0  0  0
 23 24  1  0  0  0  0
 23 25  1  0  0  0  0
 23 26  1  0  0  0  0
M  END
$$$$

  -OEChem-01062216093D

 26 26  0     1  0  0  0  0  0999 V2000
   -1.9974   -3.8215   -0.9660 H   0  0  0  0  0  0  0  0  0  0  0  0
   -2.1525   -2.7664   -0.7226 C   0  0  0  0  0  0  0  0  0  0  0  0
   -2.6260   -2.7019    0.2596 H   0  0  0  0  0  0  0  0  0  0  0  0
   -2.8175   -2.3329   -1.4733 H   0  0  0  0  0  0  0  0  0  0  0  0
   -0.8190   -2.0279   -0.7159 C   0  0  0  0  0  0  0  0  0  0  0  0
    0.1883   -2.7042   -0.8376 O   0  0  0  0  0  0  0  0  0  0  0  0
   -0.7548   -0.6357   -0.6154 N   0  0  0  0  0  0  0  0  0  0  0  0
   -1.9187    0.0734   -0.0895 C   0  0  0  0  0  0  0  0  0  0  0  0
   -2.2350   -0.3523    0.8692 H   0  0  0  0  0  0  0  0  0  0  0  0
   -2.7634    0.0560   -0.7863 H   0  0  0  0  0  0  0  0  0  0  0  0
   -1.4166    1.4886    0.1103 C   0  0  0  0  0  0  0  0  0  0  0  0
   -1.9723    2.0141    0.8932 H   0  0  0  0  0  0  0  0  0  0  0  0
   -1.5149    2.0516   -0.8241 H   0  0  0  0  0  0  0  0  0  0  0  0
    0.0553    1.3270    0.4631 C   0  0  0  0  0  0  0  0  0  0  0  0
    0.1615    1.1046    1.5296 H   0  0  0  0  0  0  0  0  0  0  0  0
    0.6361    2.2266    0.2352 H   0  0  0  0  0  0  0  0  0  0  0  0
    0.4935    0.1349   -0.3890 C   0  0  1  0  0  0  0  0  0  0  0  0
    0.7611    0.5323   -1.3740 H   0  0  0  0  0  0  0  0  0  0  0  0
    1.7855   -0.5635    0.1001 C   0  0  0  0  0  0  0  0  0  0  0  0
    2.7940   -0.5224   -0.5941 O   0  0  0  0  0  0  0  0  0  0  0  0
    1.9022   -0.9670    1.4198 N   0  0  0  0  0  0  0  0  0  0  0  0
    1.0309   -1.0985    1.9222 H   0  0  0  0  0  0  0  0  0  0  0  0
    3.0980   -1.6256    1.9304 C   0  0  0  0  0  0  0  0  0  0  0  0
    3.9734   -0.9781    1.8134 H   0  0  0  0  0  0  0  0  0  0  0  0
    2.9796   -1.8537    2.9939 H   0  0  0  0  0  0  0  0  0  0  0  0
    3.2768   -2.5617    1.3907 H   0  0  0  0  0  0  0  0  0  0  0  0
  1  2  1  0  0  0  0
  2  3  1  0  0  0  0
  2  4  1  0  0  0  0
  2  5  1  0  0  0  0
  5  6  2  0  0  0  0
  5  7  1  0  0  0  0
  7  8  1  0  0  0  0
  7 17  1  0  0  0  0
  8  9  1  0  0  0  0
  8 10  1  0  0  0  0
  8 11  1  0  0  0  0
 11 12  1  0  0  0  0
 11 13  1  0  0  0  0
 11 14  1  0  0  0  0
 14 15  1  0  0  0  0
 14 16  1  0  0  0  0
 14 17  1  0  0  0  0
 17 18  1  0  0  0  0
 17 19  1  0  0  0  0
 19 20  2  0  0  0  0
 19 21  1  0  0  0  0
 21 22  1  0  0  0  0
 21 23  1  0  0  0  0
 23 24  1  0  0  0  0
 23 25  1  0  0  0  0
 23 26  1  0  0  0  0
M  END
$$$$

  -OEChem-01062216093D

 26 26  0     1  0  0  0  0  0999 V2000
   -2.0266   -3.8129   -0.9788 H   0  0  0  0  0  0  0  0  0  0  0  0
   -2.1753   -2.7579   -0.7308 C   0  0  0  0  0  0  0  0  0  0  0  0
   -2.6426   -2.6950    0.2545 H   0  0  0  0  0  0  0  0  0  0  0  0
   -2.8431   -2.3186   -1.4756 H   0  0  0  0  0  0  0  0  0  0  0  0
   -0.8382   -2.0258   -0.7293 C   0  0  0  0  0  0  0  0  0  0  0  0
    0.1660   -2.7050   -0.8621 O   0  0  0  0  0  0  0  0  0  0  0  0
   -0.7629   -0.6346   -0.6280 N   0  0  0  0  0  0  0  0  0  0  0  0
   -1.9227    0.0800   -0.0988 C   0  0  0  0  0  0  0  0  0  0  0  0
   -2.2453   -0.3513    0.8552 H   0  0  0  0  0  0  0  0  0  0  0  0
   -2.7659    0.0756   -0.7979 H   0  0  0  0  0  0  0  0  0  0  0  0
   -1.4104    1.4892    0.1165 C   0  0  0  0  0  0  0  0  0  0  0  0
   -1.9643    2.0113    0.9028 H   0  0  0  0  0  0  0  0  0  0  0  0
   -1.5008    2.0622   -0.8125 H   0  0  0  0  0  0  0  0  0  0  0  0
    0.0585    1.3118    0.4729 C   0  0  0  0  0  0  0  0  0  0  0  0
    0.1622    1.0739    1.5368 H   0  0  0  0  0  0  0  0  0  0  0  0
    0.6477    2.2091    0.2571 H   0  0  0  0  0  0  0  0  0  0  0  0
    0.4902    0.1257   -0.3878 C   0  0  1  0  0  0  0  0  0  0  0  0
    0.7682    0.5258   -1.3688 H   0  0  0  0  0  0  0  0  0  0  0  0
    1.7768   -0.5703    0.1160 C   0  0  0  0  0  0  0  0  0  0  0  0
    2.8480   -0.3078   -0.4172 O   0  0  0  0  0  0  0  0  0  0  0  0
    1.7772   -1.2412    1.3273 N   0  0  0  0  0  0  0  0  0  0  0  0
    0.8711   -1.5774    1.6360 H   0  0  0  0  0  0  0  0  0  0  0  0
    2.9639   -1.9137    1.8404 C   0  0  0  0  0  0  0  0  0  0  0  0
    3.7871   -1.2018    1.9623 H   0  0  0  0  0  0  0  0  0  0  0  0
    2.7518   -2.3628    2.8153 H   0  0  0  0  0  0  0  0  0  0  0  0
    3.2805   -2.7056    1.1533 H   0  0  0  0  0  0  0  0  0  0  0  0
  1  2  1  0  0  0  0
  2  3  1  0  0  0  0
  2  4  1  0  0  0  0
  2  5  1  0  0  0  0
  5  6  2  0  0  0  0
  5  7  1  0  0  0  0
  7  8  1  0  0  0  0
  7 17  1  0  0  0  0
  8  9  1  0  0  0  0
  8 10  1  0  0  0  0
  8 11  1  0  0  0  0
 11 12  1  0  0  0  0
 11 13  1  0  0  0  0
 11 14  1  0  0  0  0
 14 15  1  0  0  0  0
 14 16  1  0  0  0  0
 14 17  1  0  0  0  0
 17 18  1  0  0  0  0
 17 19  1  0  0  0  0
 19 20  2  0  0  0  0
 19 21  1  0  0  0  0
 21 22  1  0  0  0  0
 21 23  1  0  0  0  0
 23 24  1  0  0  0  0
 23 25  1  0  0  0  0
 23 26  1  0  0  0  0
M  END
$$$$

  -OEChem-01062216093D

 26 26  0     1  0  0  0  0  0999 V2000
   -2.1300   -3.7918   -1.0120 H   0  0  0  0  0  0  0  0  0  0  0  0
   -2.2549   -2.7352   -0.7578 C   0  0  0  0  0  0  0  0  0  0  0  0
   -2.7283   -2.6676    0.2244 H   0  0  0  0  0  0  0  0  0  0  0  0
   -2.9063   -2.2754   -1.5049 H   0  0  0  0  0  0  0  0  0  0  0  0
   -0.9007   -2.0354   -0.7415 C   0  0  0  0  0  0  0  0  0  0  0  0
    0.0882   -2.7378   -0.8709 O   0  0  0  0  0  0  0  0  0  0  0  0
   -0.7887   -0.6479   -0.6345 N   0  0  0  0  0  0  0  0  0  0  0  0
   -1.9359    0.0883   -0.1059 C   0  0  0  0  0  0  0  0  0  0  0  0
   -2.2706   -0.3417    0.8446 H   0  0  0  0  0  0  0  0  0  0  0  0
   -2.7766    0.1050   -0.8077 H   0  0  0  0  0  0  0  0  0  0  0  0
   -1.3984    1.4858    0.1204 C   0  0  0  0  0  0  0  0  0  0  0  0
   -1.9455    2.0134    0.9079 H   0  0  0  0  0  0  0  0  0  0  0  0
   -1.4727    2.0667   -0.8050 H   0  0  0  0  0  0  0  0  0  0  0  0
    0.0639    1.2764    0.4821 C   0  0  0  0  0  0  0  0  0  0  0  0
    0.1588    1.0259    1.5441 H   0  0  0  0  0  0  0  0  0  0  0  0
    0.6725    2.1632    0.2770 H   0  0  0  0  0  0  0  0  0  0  0  0
    0.4788    0.0881   -0.3824 C   0  0  1  0  0  0  0  0  0  0  0  0
    0.7659    0.4859   -1.3616 H   0  0  0  0  0  0  0  0  0  0  0  0
    1.7672   -0.6002    0.1303 C   0  0  0  0  0  0  0  0  0  0  0  0
    2.8503   -0.1270   -0.1928 O   0  0  0  0  0  0  0  0  0  0  0  0
    1.7234   -1.5156    1.1673 N   0  0  0  0  0  0  0  0  0  0  0  0
    0.8622   -2.0544    1.2051 H   0  0  0  0  0  0  0  0  0  0  0  0
    2.9288   -2.1450    1.6920 C   0  0  0  0  0  0  0  0  0  0  0  0
    3.6258   -1.3888    2.0683 H   0  0  0  0  0  0  0  0  0  0  0  0
    2.6741   -2.8166    2.5171 H   0  0  0  0  0  0  0  0  0  0  0  0
    3.4275   -2.7267    0.9095 H   0  0  0  0  0  0  0  0  0  0  0  0
  1  2  1  0  0  0  0
  2  3  1  0  0  0  0
  2  4  1  0  0  0  0
  2  5  1  0  0  0  0
  5  6  2  0  0  0  0
  5  7  1  0  0  0  0
  7  8  1  0  0  0  0
  7 17  1  0  0  0  0
  8  9  1  0  0  0  0
  8 10  1  0  0  0  0
  8 11  1  0  0  0  0
 11 12  1  0  0  0  0
 11 13  1  0  0  0  0
 11 14  1  0  0  0  0
 14 15  1  0  0  0  0
 14 16  1  0  0  0  0
 14 17  1  0  0  0  0
 17 18  1  0  0  0  0
 17 19  1  0  0  0  0
 19 20  2  0  0  0  0
 19 21  1  0  0  0  0
 21 22  1  0  0  0  0
 21 23  1  0  0  0  0
 23 24  1  0  0  0  0
 23 25  1  0  0  0  0
 23 26  1  0  0  0  0
M  END
$$$$

  -OEChem-01062216093D

 26 26  0     1  0  0  0  0  0999 V2000
   -2.2393   -3.7668   -1.0209 H   0  0  0  0  0  0  0  0  0  0  0  0
   -2.3355   -2.7077   -0.7649 C   0  0  0  0  0  0  0  0  0  0  0  0
   -2.7904   -2.6297    0.2253 H   0  0  0  0  0  0  0  0  0  0  0  0
   -2.9893   -2.2335   -1.5009 H   0  0  0  0  0  0  0  0  0  0  0  0
   -0.9656   -2.0383   -0.7723 C   0  0  0  0  0  0  0  0  0  0  0  0
    0.0001   -2.7591   -0.9641 O   0  0  0  0  0  0  0  0  0  0  0  0
   -0.8150   -0.6563   -0.6444 N   0  0  0  0  0  0  0  0  0  0  0  0
   -1.9518    0.0984   -0.1183 C   0  0  0  0  0  0  0  0  0  0  0  0
   -2.3011   -0.3317    0.8269 H   0  0  0  0  0  0  0  0  0  0  0  0
   -2.7871    0.1357   -0.8257 H   0  0  0  0  0  0  0  0  0  0  0  0
   -1.3945    1.4845    0.1241 C   0  0  0  0  0  0  0  0  0  0  0  0
   -1.9398    2.0150    0.9108 H   0  0  0  0  0  0  0  0  0  0  0  0
   -1.4495    2.0739   -0.7973 H   0  0  0  0  0  0  0  0  0  0  0  0
    0.0590    1.2442    0.4979 C   0  0  0  0  0  0  0  0  0  0  0  0
    0.1388    0.9824    1.5585 H   0  0  0  0  0  0  0  0  0  0  0  0
    0.6851    2.1222    0.3078 H   0  0  0  0  0  0  0  0  0  0  0  0
    0.4650    0.0553   -0.3718 C   0  0  1  0  0  0  0  0  0  0  0  0
    0.7635    0.4558   -1.3462 H   0  0  0  0  0  0  0  0  0  0  0  0
    1.7579   -0.6283    0.1450 C   0  0  0  0  0  0  0  0  0  0  0  0
    2.8111   -0.0105    0.0411 O   0  0  0  0  0  0  0  0  0  0  0  0
    1.7351   -1.7538    0.9489 N   0  0  0  0  0  0  0  0  0  0  0  0
    0.9543   -2.3774    0.7471 H   0  0  0  0  0  0  0  0  0  0  0  0
    2.9537   -2.3647    1.4648 C   0  0  0  0  0  0  0  0  0  0  0  0
    3.5094   -1.6527    2.0837 H   0  0  0  0  0  0  0  0  0  0  0  0
    2.7063   -3.2342    2.0811 H   0  0  0  0  0  0  0  0  0  0  0  0
    3.5959   -2.6927    0.6408 H   0  0  0  0  0  0  0  0  0  0  0  0
  1  2  1  0  0  0  0
  2  3  1  0  0  0  0
  2  4  1  0  0  0  0
  2  5  1  0  0  0  0
  5  6  2  0  0  0  0
  5  7  1  0  0  0  0
  7  8  1  0  0  0  0
  7 17  1  0  0  0  0
  8  9  1  0  0  0  0
  8 10  1  0  0  0  0
  8 11  1  0  0  0  0
 11 12  1  0  0  0  0
 11 13  1  0  0  0  0
 11 14  1  0  0  0  0
 14 15  1  0  0  0  0
 14 16  1  0  0  0  0
 14 17  1  0  0  0  0
 17 18  1  0  0  0  0
 17 19  1  0  0  0  0
 19 20  2  0  0  0  0
 19 21  1  0  0  0  0
 21 22  1  0  0  0  0
 21 23  1  0  0  0  0
 23 24  1  0  0  0  0
 23 25  1  0  0  0  0
 23 26  1  0  0  0  0
M  END
$$$$

  -OEChem-01062216093D

 26 26  0     1  0  0  0  0  0999 V2000
   -2.3305   -3.7451   -1.0153 H   0  0  0  0  0  0  0  0  0  0  0  0
   -2.3975   -2.6902   -0.7342 C   0  0  0  0  0  0  0  0  0  0  0  0
   -2.7878   -2.6275    0.2843 H   0  0  0  0  0  0  0  0  0  0  0  0
   -3.0912   -2.1954   -1.4183 H   0  0  0  0  0  0  0  0  0  0  0  0
   -1.0218   -2.0361   -0.8140 C   0  0  0  0  0  0  0  0  0  0  0  0
   -0.0864   -2.7598   -1.1149 O   0  0  0  0  0  0  0  0  0  0  0  0
   -0.8389   -0.6600   -0.6651 N   0  0  0  0  0  0  0  0  0  0  0  0
   -1.9659    0.1112   -0.1405 C   0  0  0  0  0  0  0  0  0  0  0  0
   -2.3301   -0.3199    0.7986 H   0  0  0  0  0  0  0  0  0  0  0  0
   -2.7949    0.1679   -0.8540 H   0  0  0  0  0  0  0  0  0  0  0  0
   -1.3914    1.4863    0.1187 C   0  0  0  0  0  0  0  0  0  0  0  0
   -1.9363    2.0188    0.9044 H   0  0  0  0  0  0  0  0  0  0  0  0
   -1.4264    2.0844   -0.7980 H   0  0  0  0  0  0  0  0  0  0  0  0
    0.0523    1.2168    0.5045 C   0  0  0  0  0  0  0  0  0  0  0  0
    0.1159    0.9445    1.5636 H   0  0  0  0  0  0  0  0  0  0  0  0
    0.6943    2.0866    0.3299 H   0  0  0  0  0  0  0  0  0  0  0  0
    0.4515    0.0279   -0.3710 C   0  0  1  0  0  0  0  0  0  0  0  0
    0.7623    0.4315   -1.3401 H   0  0  0  0  0  0  0  0  0  0  0  0
    1.7454   -0.6574    0.1516 C   0  0  0  0  0  0  0  0  0  0  0  0
    2.7498    0.0379    0.2523 O   0  0  0  0  0  0  0  0  0  0  0  0
    1.7892   -1.9299    0.6904 N   0  0  0  0  0  0  0  0  0  0  0  0
    1.0604   -2.5548    0.3437 H   0  0  0  0  0  0  0  0  0  0  0  0
    3.0221   -2.5403    1.1722 C   0  0  0  0  0  0  0  0  0  0  0  0
    3.4610   -1.9384    1.9748 H   0  0  0  0  0  0  0  0  0  0  0  0
    2.8169   -3.5402    1.5663 H   0  0  0  0  0  0  0  0  0  0  0  0
    3.7495   -2.6289    0.3586 H   0  0  0  0  0  0  0  0  0  0  0  0
  1  2  1  0  0  0  0
  2  3  1  0  0  0  0
  2  4  1  0  0  0  0
  2  5  1  0  0  0  0
  5  6  2  0  0  0  0
  5  7  1  0  0  0  0
  7  8  1  0  0  0  0
  7 17  1  0  0  0  0
  8  9  1  0  0  0  0
  8 10  1  0  0  0  0
  8 11  1  0  0  0  0
 11 12  1  0  0  0  0
 11 13  1  0  0  0  0
 11 14  1  0  0  0  0
 14 15  1  0  0  0  0
 14 16  1  0  0  0  0
 14 17  1  0  0  0  0
 17 18  1  0  0  0  0
 17 19  1  0  0  0  0
 19 20  2  0  0  0  0
 19 21  1  0  0  0  0
 21 22  1  0  0  0  0
 21 23  1  0  0  0  0
 23 24  1  0  0  0  0
 23 25  1  0  0  0  0
 23 26  1  0  0  0  0
M  END
$$$$

  -OEChem-01062216093D

 26 26  0     1  0  0  0  0  0999 V2000
   -2.3428   -3.8005   -0.9139 H   0  0  0  0  0  0  0  0  0  0  0  0
   -2.4067   -2.7384   -0.6601 C   0  0  0  0  0  0  0  0  0  0  0  0
   -2.7529   -2.6501    0.3723 H   0  0  0  0  0  0  0  0  0  0  0  0
   -3.1338   -2.2683   -1.3266 H   0  0  0  0  0  0  0  0  0  0  0  0
   -1.0412   -2.0764   -0.8171 C   0  0  0  0  0  0  0  0  0  0  0  0
   -0.1258   -2.7935   -1.1877 O   0  0  0  0  0  0  0  0  0  0  0  0
   -0.8569   -0.6977   -0.6944 N   0  0  0  0  0  0  0  0  0  0  0  0
   -1.9899    0.0829   -0.1955 C   0  0  0  0  0  0  0  0  0  0  0  0
   -2.3576   -0.3251    0.7524 H   0  0  0  0  0  0  0  0  0  0  0  0
   -2.8151    0.1172   -0.9147 H   0  0  0  0  0  0  0  0  0  0  0  0
   -1.4267    1.4675    0.0332 C   0  0  0  0  0  0  0  0  0  0  0  0
   -1.9803    2.0164    0.8013 H   0  0  0  0  0  0  0  0  0  0  0  0
   -1.4574    2.0420   -0.8987 H   0  0  0  0  0  0  0  0  0  0  0  0
    0.0133    1.2126    0.4375 C   0  0  0  0  0  0  0  0  0  0  0  0
    0.0683    0.9676    1.5038 H   0  0  0  0  0  0  0  0  0  0  0  0
    0.6522    2.0816    0.2480 H   0  0  0  0  0  0  0  0  0  0  0  0
    0.4294    0.0030   -0.4045 C   0  0  1  0  0  0  0  0  0  0  0  0
    0.7452    0.3842   -1.3807 H   0  0  0  0  0  0  0  0  0  0  0  0
    1.7321   -0.6521    0.1445 C   0  0  0  0  0  0  0  0  0  0  0  0
    2.6625    0.0957    0.4241 O   0  0  0  0  0  0  0  0  0  0  0  0
    1.8904   -1.9911    0.4475 N   0  0  0  0  0  0  0  0  0  0  0  0
    1.2123   -2.6183    0.0124 H   0  0  0  0  0  0  0  0  0  0  0  0
    3.1437   -2.5643    0.9220 C   0  0  0  0  0  0  0  0  0  0  0  0
    3.4523   -2.0897    1.8593 H   0  0  0  0  0  0  0  0  0  0  0  0
    3.0219   -3.6363    1.1037 H   0  0  0  0  0  0  0  0  0  0  0  0
    3.9350   -2.4251    0.1783 H   0  0  0  0  0  0  0  0  0  0  0  0
  1  2  1  0  0  0  0
  2  3  1  0  0  0  0
  2  4  1  0  0  0  0
  2  5  1  0  0  0  0
  5  6  2  0  0  0  0
  5  7  1  0  0  0  0
  7  8  1  0  0  0  0
  7 17  1  0  0  0  0
  8  9  1  0  0  0  0
  8 10  1  0  0  0  0
  8 11  1  0  0  0  0
 11 12  1  0  0  0  0
 11 13  1  0  0  0  0
 11 14  1  0  0  0  0
 14 15  1  0  0  0  0
 14 16  1  0  0  0  0
 14 17  1  0  0  0  0
 17 18  1  0  0  0  0
 17 19  1  0  0  0  0
 19 20  2  0  0  0  0
 19 21  1  0  0  0  0
 21 22  1  0  0  0  0
 21 23  1  0  0  0  0
 23 24  1  0  0  0  0
 23 25  1  0  0  0  0
 23 26  1  0  0  0  0
M  END
$$$$

  -OEChem-01062216093D

 26 26  0     1  0  0  0  0  0999 V2000
   -1.5054   -4.0635   -1.0057 H   0  0  0  0  0  0  0  0  0  0  0  0
   -1.7603   -3.0456   -0.6969 C   0  0  0  0  0  0  0  0  0  0  0  0
   -1.9644   -3.0513    0.3762 H   0  0  0  0  0  0  0  0  0  0  0  0
   -2.6593   -2.7358   -1.2351 H   0  0  0  0  0  0  0  0  0  0  0  0
   -0.6063   -2.0987   -1.0098 C   0  0  0  0  0  0  0  0  0  0  0  0
    0.3360   -2.5618   -1.6292 O   0  0  0  0  0  0  0  0  0  0  0  0
   -0.6782   -0.7220   -0.8075 N   0  0  0  0  0  0  0  0  0  0  0  0
   -1.9022   -0.1898   -0.2100 C   0  0  0  0  0  0  0  0  0  0  0  0
   -2.1443   -0.7133    0.7212 H   0  0  0  0  0  0  0  0  0  0  0  0
   -2.7557   -0.2610   -0.8927 H   0  0  0  0  0  0  0  0  0  0  0  0
   -1.5788    1.2567    0.0943 C   0  0  0  0  0  0  0  0  0  0  0  0
   -2.1812    1.6507    0.9188 H   0  0  0  0  0  0  0  0  0  0  0  0
   -1.7525    1.8738   -0.7936 H   0  0  0  0  0  0  0  0  0  0  0  0
   -0.0987    1.2296    0.4261 C   0  0  0  0  0  0  0  0  0  0  0  0
    0.0473    0.9310    1.4697 H   0  0  0  0  0  0  0  0  0  0  0  0
    0.3715    2.2073    0.2758 H   0  0  0  0  0  0  0  0  0  0  0  0
    0.4804    0.1678   -0.5141 C   0  0  1  0  0  0  0  0  0  0  0  0
    0.6791    0.6544   -1.4743 H   0  0  0  0  0  0  0  0  0  0  0  0
    1.9081   -0.2563   -0.0448 C   0  0  0  0  0  0  0  0  0  0  0  0
    2.7263    0.6330    0.1406 O   0  0  0  0  0  0  0  0  0  0  0  0
    2.5294   -1.4832   -0.0427 N   0  0  0  0  0  0  0  0  0  0  0  0
    3.5384   -1.3650   -0.0167 H   0  0  0  0  0  0  0  0  0  0  0  0
    2.0271   -2.5657    0.7944 C   0  0  0  0  0  0  0  0  0  0  0  0
    2.6974   -2.7175    1.6459 H   0  0  0  0  0  0  0  0  0  0  0  0
    1.0303   -2.3423    1.1869 H   0  0  0  0  0  0  0  0  0  0  0  0
    1.9786   -3.4971    0.2214 H   0  0  0  0  0  0  0  0  0  0  0  0
  1  2  1  0  0  0  0
  2  3  1  0  0  0  0
  2  4  1  0  0  0  0
  2  5  1  0  0  0  0
  5  6  2  0  0  0  0
  5  7  1  0  0  0  0
  7  8  1  0  0  0  0
  7 17  1  0  0  0  0
  8  9  1  0  0  0  0
  8 10  1  0  0  0  0
  8 11  1  0  0  0  0
 11 12  1  0  0  0  0
 11 13  1  0  0  0  0
 11 14  1  0  0  0  0
 14 15  1  0  0  0  0
 14 16  1  0  0  0  0
 14 17  1  0  0  0  0
 17 18  1  0  0  0  0
 17 19  1  0  0  0  0
 19 20  2  0  0  0  0
 19 21  1  0  0  0  0
 21 22  1  0  0  0  0
 21 23  1  0  0  0  0
 23 24  1  0  0  0  0
 23 25  1  0  0  0  0
 23 26  1  0  0  0  0
M  END
$$$$

  -OEChem-01062216093D

 26 26  0     1  0  0  0  0  0999 V2000
   -1.7527   -3.9831   -0.8714 H   0  0  0  0  0  0  0  0  0  0  0  0
   -1.9232   -2.9652   -0.5093 C   0  0  0  0  0  0  0  0  0  0  0  0
   -1.9824   -2.9924    0.5810 H   0  0  0  0  0  0  0  0  0  0  0  0
   -2.8730   -2.6088   -0.9151 H   0  0  0  0  0  0  0  0  0  0  0  0
   -0.7842   -2.0526   -0.9530 C   0  0  0  0  0  0  0  0  0  0  0  0
    0.0435   -2.5341   -1.7061 O   0  0  0  0  0  0  0  0  0  0  0  0
   -0.7752   -0.6806   -0.7091 N   0  0  0  0  0  0  0  0  0  0  0  0
   -1.8957   -0.1257    0.0497 C   0  0  0  0  0  0  0  0  0  0  0  0
   -2.0324   -0.6613    0.9954 H   0  0  0  0  0  0  0  0  0  0  0  0
   -2.8314   -0.1582   -0.5187 H   0  0  0  0  0  0  0  0  0  0  0  0
   -1.4936    1.3041    0.3352 C   0  0  0  0  0  0  0  0  0  0  0  0
   -1.9739    1.6974    1.2364 H   0  0  0  0  0  0  0  0  0  0  0  0
   -1.7597    1.9440   -0.5127 H   0  0  0  0  0  0  0  0  0  0  0  0
    0.0146    1.2278    0.4743 C   0  0  0  0  0  0  0  0  0  0  0  0
    0.2823    0.9029    1.4855 H   0  0  0  0  0  0  0  0  0  0  0  0
    0.4911    2.1953    0.2841 H   0  0  0  0  0  0  0  0  0  0  0  0
    0.4391    0.1696   -0.5511 C   0  0  1  0  0  0  0  0  0  0  0  0
    0.5255    0.6727   -1.5193 H   0  0  0  0  0  0  0  0  0  0  0  0
    1.9044   -0.3065   -0.2883 C   0  0  0  0  0  0  0  0  0  0  0  0
    2.7304    0.5440    0.0117 O   0  0  0  0  0  0  0  0  0  0  0  0
    2.5432   -1.4661   -0.6556 N   0  0  0  0  0  0  0  0  0  0  0  0
    3.5295   -1.2726   -0.8057 H   0  0  0  0  0  0  0  0  0  0  0  0
    2.3120   -2.6778    0.1215 C   0  0  0  0  0  0  0  0  0  0  0  0
    1.3874   -2.6142    0.7038 H   0  0  0  0  0  0  0  0  0  0  0  0
    2.2457   -3.5445   -0.5439 H   0  0  0  0  0  0  0  0  0  0  0  0
    3.1403   -2.8372    0.8188 H   0  0  0  0  0  0  0  0  0  0  0  0
  1  2  1  0  0  0  0
  2  3  1  0  0  0  0
  2  4  1  0  0  0  0
  2  5  1  0  0  0  0
  5  6  2  0  0  0  0
  5  7  1  0  0  0  0
  7  8  1  0  0  0  0
  7 17  1  0  0  0  0
  8  9  1  0  0  0  0
  8 10  1  0  0  0  0
  8 11  1  0  0  0  0
 11 12  1  0  0  0  0
 11 13  1  0  0  0  0
 11 14  1  0  0  0  0
 14 15  1  0  0  0  0
 14 16  1  0  0  0  0
 14 17  1  0  0  0  0
 17 18  1  0  0  0  0
 17 19  1  0  0  0  0
 19 20  2  0  0  0  0
 19 21  1  0  0  0  0
 21 22  1  0  0  0  0
 21 23  1  0  0  0  0
 23 24  1  0  0  0  0
 23 25  1  0  0  0  0
 23 26  1  0  0  0  0
M  END
$$$$

  -OEChem-01062216093D

 26 26  0     1  0  0  0  0  0999 V2000
   -2.3426   -3.7544   -0.9637 H   0  0  0  0  0  0  0  0  0  0  0  0
   -2.3962   -2.7035   -0.6649 C   0  0  0  0  0  0  0  0  0  0  0  0
   -2.6750   -2.6601    0.3906 H   0  0  0  0  0  0  0  0  0  0  0  0
   -3.1680   -2.2136   -1.2633 H   0  0  0  0  0  0  0  0  0  0  0  0
   -1.0476   -2.0238   -0.8837 C   0  0  0  0  0  0  0  0  0  0  0  0
   -0.1708   -2.7085   -1.3841 O   0  0  0  0  0  0  0  0  0  0  0  0
   -0.8571   -0.6546   -0.6801 N   0  0  0  0  0  0  0  0  0  0  0  0
   -1.9643    0.0923   -0.0821 C   0  0  0  0  0  0  0  0  0  0  0  0
   -2.2782   -0.3656    0.8626 H   0  0  0  0  0  0  0  0  0  0  0  0
   -2.8276    0.1570   -0.7529 H   0  0  0  0  0  0  0  0  0  0  0  0
   -1.3966    1.4680    0.1867 C   0  0  0  0  0  0  0  0  0  0  0  0
   -1.9111    1.9727    1.0102 H   0  0  0  0  0  0  0  0  0  0  0  0
   -1.4784    2.0891   -0.7114 H   0  0  0  0  0  0  0  0  0  0  0  0
    0.0628    1.2005    0.5016 C   0  0  0  0  0  0  0  0  0  0  0  0
    0.1649    0.9023    1.5510 H   0  0  0  0  0  0  0  0  0  0  0  0
    0.6904    2.0809    0.3285 H   0  0  0  0  0  0  0  0  0  0  0  0
    0.4416    0.0357   -0.4227 C   0  0  1  0  0  0  0  0  0  0  0  0
    0.7048    0.4756   -1.3894 H   0  0  0  0  0  0  0  0  0  0  0  0
    1.7669   -0.6721   -0.0006 C   0  0  0  0  0  0  0  0  0  0  0  0
    2.4750   -0.1463    0.8516 O   0  0  0  0  0  0  0  0  0  0  0  0
    2.2516   -1.8253   -0.5854 N   0  0  0  0  0  0  0  0  0  0  0  0
    1.5952   -2.3287   -1.1867 H   0  0  0  0  0  0  0  0  0  0  0  0
    3.4684   -2.5060   -0.1607 C   0  0  0  0  0  0  0  0  0  0  0  0
    3.3853   -2.8247    0.8834 H   0  0  0  0  0  0  0  0  0  0  0  0
    3.6398   -3.3905   -0.7814 H   0  0  0  0  0  0  0  0  0  0  0  0
    4.3338   -1.8425   -0.2602 H   0  0  0  0  0  0  0  0  0  0  0  0
  1  2  1  0  0  0  0
  2  3  1  0  0  0  0
  2  4  1  0  0  0  0
  2  5  1  0  0  0  0
  5  6  2  0  0  0  0
  5  7  1  0  0  0  0
  7  8  1  0  0  0  0
  7 17  1  0  0  0  0
  8  9  1  0  0  0  0
  8 10  1  0  0  0  0
  8 11  1  0  0  0  0
 11 12  1  0  0  0  0
 11 13  1  0  0  0  0
 11 14  1  0  0  0  0
 14 15  1  0  0  0  0
 14 16  1  0  0  0  0
 14 17  1  0  0  0  0
 17 18  1  0  0  0  0
 17 19  1  0  0  0  0
 19 20  2  0  0  0  0
 19 21  1  0  0  0  0
 21 22  1  0  0  0  0
 21 23  1  0  0  0  0
 23 24  1  0  0  0  0
 23 25  1  0  0  0  0
 23 26  1  0  0  0  0
M  END
$$$$

  -OEChem-01062216093D

 26 26  0     1  0  0  0  0  0999 V2000
   -2.2247   -3.7839   -0.9341 H   0  0  0  0  0  0  0  0  0  0  0  0
   -2.3102   -2.7321   -0.6466 C   0  0  0  0  0  0  0  0  0  0  0  0
   -2.5931   -2.6848    0.4075 H   0  0  0  0  0  0  0  0  0  0  0  0
   -3.0937   -2.2707   -1.2524 H   0  0  0  0  0  0  0  0  0  0  0  0
   -0.9820   -2.0161   -0.8693 C   0  0  0  0  0  0  0  0  0  0  0  0
   -0.0780   -2.6769   -1.3548 O   0  0  0  0  0  0  0  0  0  0  0  0
   -0.8339   -0.6398   -0.6817 N   0  0  0  0  0  0  0  0  0  0  0  0
   -1.9518    0.0864   -0.0804 C   0  0  0  0  0  0  0  0  0  0  0  0
   -2.2518   -0.3748    0.8670 H   0  0  0  0  0  0  0  0  0  0  0  0
   -2.8196    0.1323   -0.7471 H   0  0  0  0  0  0  0  0  0  0  0  0
   -1.4050    1.4729    0.1810 C   0  0  0  0  0  0  0  0  0  0  0  0
   -1.9234    1.9719    1.0058 H   0  0  0  0  0  0  0  0  0  0  0  0
   -1.5029    2.0892   -0.7187 H   0  0  0  0  0  0  0  0  0  0  0  0
    0.0619    1.2322    0.4882 C   0  0  0  0  0  0  0  0  0  0  0  0
    0.1717    0.9410    1.5387 H   0  0  0  0  0  0  0  0  0  0  0  0
    0.6741    2.1218    0.3092 H   0  0  0  0  0  0  0  0  0  0  0  0
    0.4528    0.0711   -0.4361 C   0  0  1  0  0  0  0  0  0  0  0  0
    0.7125    0.5142   -1.4024 H   0  0  0  0  0  0  0  0  0  0  0  0
    1.7673   -0.6514   -0.0141 C   0  0  0  0  0  0  0  0  0  0  0  0
    2.3778   -0.2723    0.9797 O   0  0  0  0  0  0  0  0  0  0  0  0
    2.3619   -1.6211   -0.7985 N   0  0  0  0  0  0  0  0  0  0  0  0
    1.7236   -2.0881   -1.4472 H   0  0  0  0  0  0  0  0  0  0  0  0
    3.5704   -2.3344   -0.4044 C   0  0  0  0  0  0  0  0  0  0  0  0
    3.4006   -2.8934    0.5216 H   0  0  0  0  0  0  0  0  0  0  0  0
    3.8625   -3.0397   -1.1883 H   0  0  0  0  0  0  0  0  0  0  0  0
    4.3970   -1.6335   -0.2481 H   0  0  0  0  0  0  0  0  0  0  0  0
  1  2  1  0  0  0  0
  2  3  1  0  0  0  0
  2  4  1  0  0  0  0
  2  5  1  0  0  0  0
  5  6  2  0  0  0  0
  5  7  1  0  0  0  0
  7  8  1  0  0  0  0
  7 17  1  0  0  0  0
  8  9  1  0  0  0  0
  8 10  1  0  0  0  0
  8 11  1  0  0  0  0
 11 12  1  0  0  0  0
 11 13  1  0  0  0  0
 11 14  1  0  0  0  0
 14 15  1  0  0  0  0
 14 16  1  0  0  0  0
 14 17  1  0  0  0  0
 17 18  1  0  0  0  0
 17 19  1  0  0  0  0
 19 20  2  0  0  0  0
 19 21  1  0  0  0  0
 21 22  1  0  0  0  0
 21 23  1  0  0  0  0
 23 24  1  0  0  0  0
 23 25  1  0  0  0  0
 23 26  1  0  0  0  0
M  END
$$$$

  -OEChem-01062216093D

 26 26  0     1  0  0  0  0  0999 V2000
   -2.0848   -3.8058   -0.9313 H   0  0  0  0  0  0  0  0  0  0  0  0
   -2.2083   -2.7583   -0.6423 C   0  0  0  0  0  0  0  0  0  0  0  0
   -2.4881   -2.7221    0.4131 H   0  0  0  0  0  0  0  0  0  0  0  0
   -3.0104   -2.3249   -1.2443 H   0  0  0  0  0  0  0  0  0  0  0  0
   -0.9086   -1.9943   -0.8694 C   0  0  0  0  0  0  0  0  0  0  0  0
    0.0235   -2.6150   -1.3575 O   0  0  0  0  0  0  0  0  0  0  0  0
   -0.8123   -0.6125   -0.6932 N   0  0  0  0  0  0  0  0  0  0  0  0
   -1.9415    0.0862   -0.0831 C   0  0  0  0  0  0  0  0  0  0  0  0
   -2.2294   -0.3883    0.8615 H   0  0  0  0  0  0  0  0  0  0  0  0
   -2.8119    0.1207   -0.7467 H   0  0  0  0  0  0  0  0  0  0  0  0
   -1.4151    1.4803    0.1875 C   0  0  0  0  0  0  0  0  0  0  0  0
   -1.9389    1.9645    1.0176 H   0  0  0  0  0  0  0  0  0  0  0  0
   -1.5256    2.1017   -0.7073 H   0  0  0  0  0  0  0  0  0  0  0  0
    0.0577    1.2612    0.4890 C   0  0  0  0  0  0  0  0  0  0  0  0
    0.1728    0.9658    1.5377 H   0  0  0  0  0  0  0  0  0  0  0  0
    0.6558    2.1611    0.3142 H   0  0  0  0  0  0  0  0  0  0  0  0
    0.4610    0.1138   -0.4467 C   0  0  1  0  0  0  0  0  0  0  0  0
    0.7268    0.5676   -1.4063 H   0  0  0  0  0  0  0  0  0  0  0  0
    1.7521   -0.6385   -0.0160 C   0  0  0  0  0  0  0  0  0  0  0  0
    2.2360   -0.4543    1.0957 O   0  0  0  0  0  0  0  0  0  0  0  0
    2.4733   -1.3806   -0.9328 N   0  0  0  0  0  0  0  0  0  0  0  0
    1.8971   -1.7704   -1.6807 H   0  0  0  0  0  0  0  0  0  0  0  0
    3.6754   -2.1187   -0.5660 C   0  0  0  0  0  0  0  0  0  0  0  0
    3.4428   -2.8796    0.1862 H   0  0  0  0  0  0  0  0  0  0  0  0
    4.0945   -2.6156   -1.4461 H   0  0  0  0  0  0  0  0  0  0  0  0
    4.4343   -1.4414   -0.1607 H   0  0  0  0  0  0  0  0  0  0  0  0
  1  2  1  0  0  0  0
  2  3  1  0  0  0  0
  2  4  1  0  0  0  0
  2  5  1  0  0  0  0
  5  6  2  0  0  0  0
  5  7  1  0  0  0  0
  7  8  1  0  0  0  0
  7 17  1  0  0  0  0
  8  9  1  0  0  0  0
  8 10  1  0  0  0  0
  8 11  1  0  0  0  0
 11 12  1  0  0  0  0
 11 13  1  0  0  0  0
 11 14  1  0  0  0  0
 14 15  1  0  0  0  0
 14 16  1  0  0  0  0
 14 17  1  0  0  0  0
 17 18  1  0  0  0  0
 17 19  1  0  0  0  0
 19 20  2  0  0  0  0
 19 21  1  0  0  0  0
 21 22  1  0  0  0  0
 21 23  1  0  0  0  0
 23 24  1  0  0  0  0
 23 25  1  0  0  0  0
 23 26  1  0  0  0  0
M  END
$$$$

  -OEChem-01062216093D

 26 26  0     1  0  0  0  0  0999 V2000
   -1.9709   -3.8212   -0.9242 H   0  0  0  0  0  0  0  0  0  0  0  0
   -2.1201   -2.7805   -0.6227 C   0  0  0  0  0  0  0  0  0  0  0  0
   -2.3733   -2.7609    0.4397 H   0  0  0  0  0  0  0  0  0  0  0  0
   -2.9504   -2.3671   -1.2000 H   0  0  0  0  0  0  0  0  0  0  0  0
   -0.8513   -1.9742   -0.8740 C   0  0  0  0  0  0  0  0  0  0  0  0
    0.0986   -2.5611   -1.3720 O   0  0  0  0  0  0  0  0  0  0  0  0
   -0.8006   -0.5883   -0.7120 N   0  0  0  0  0  0  0  0  0  0  0  0
   -1.9364    0.0855   -0.0873 C   0  0  0  0  0  0  0  0  0  0  0  0
   -2.2106   -0.4017    0.8551 H   0  0  0  0  0  0  0  0  0  0  0  0
   -2.8120    0.1119   -0.7445 H   0  0  0  0  0  0  0  0  0  0  0  0
   -1.4275    1.4856    0.1916 C   0  0  0  0  0  0  0  0  0  0  0  0
   -1.9516    1.9544    1.0303 H   0  0  0  0  0  0  0  0  0  0  0  0
   -1.5549    2.1131   -0.6968 H   0  0  0  0  0  0  0  0  0  0  0  0
    0.0512    1.2860    0.4806 C   0  0  0  0  0  0  0  0  0  0  0  0
    0.1789    0.9855    1.5262 H   0  0  0  0  0  0  0  0  0  0  0  0
    0.6344    2.1958    0.3078 H   0  0  0  0  0  0  0  0  0  0  0  0
    0.4612    0.1527   -0.4685 C   0  0  1  0  0  0  0  0  0  0  0  0
    0.7269    0.6162   -1.4233 H   0  0  0  0  0  0  0  0  0  0  0  0
    1.7360   -0.6178   -0.0297 C   0  0  0  0  0  0  0  0  0  0  0  0
    2.0579   -0.6691    1.1525 O   0  0  0  0  0  0  0  0  0  0  0  0
    2.6101   -1.1080   -0.9832 N   0  0  0  0  0  0  0  0  0  0  0  0
    2.1715   -1.3195   -1.8774 H   0  0  0  0  0  0  0  0  0  0  0  0
    3.7949   -1.8770   -0.6233 C   0  0  0  0  0  0  0  0  0  0  0  0
    3.5102   -2.7953   -0.0992 H   0  0  0  0  0  0  0  0  0  0  0  0
    4.3549   -2.1486   -1.5232 H   0  0  0  0  0  0  0  0  0  0  0  0
    4.4526   -1.2897    0.0259 H   0  0  0  0  0  0  0  0  0  0  0  0
  1  2  1  0  0  0  0
  2  3  1  0  0  0  0
  2  4  1  0  0  0  0
  2  5  1  0  0  0  0
  5  6  2  0  0  0  0
  5  7  1  0  0  0  0
  7  8  1  0  0  0  0
  7 17  1  0  0  0  0
  8  9  1  0  0  0  0
  8 10  1  0  0  0  0
  8 11  1  0  0  0  0
 11 12  1  0  0  0  0
 11 13  1  0  0  0  0
 11 14  1  0  0  0  0
 14 15  1  0  0  0  0
 14 16  1  0  0  0  0
 14 17  1  0  0  0  0
 17 18  1  0  0  0  0
 17 19  1  0  0  0  0
 19 20  2  0  0  0  0
 19 21  1  0  0  0  0
 21 22  1  0  0  0  0
 21 23  1  0  0  0  0
 23 24  1  0  0  0  0
 23 25  1  0  0  0  0
 23 26  1  0  0  0  0
M  END
$$$$

  -OEChem-01062216093D

 26 26  0     1  0  0  0  0  0999 V2000
   -1.9008   -3.8316   -0.9071 H   0  0  0  0  0  0  0  0  0  0  0  0
   -2.0638   -2.7949   -0.5994 C   0  0  0  0  0  0  0  0  0  0  0  0
   -2.2878   -2.7824    0.4698 H   0  0  0  0  0  0  0  0  0  0  0  0
   -2.9187   -2.3983   -1.1522 H   0  0  0  0  0  0  0  0  0  0  0  0
   -0.8193   -1.9621   -0.8837 C   0  0  0  0  0  0  0  0  0  0  0  0
    0.1339   -2.5284   -1.4002 O   0  0  0  0  0  0  0  0  0  0  0  0
   -0.7965   -0.5741   -0.7330 N   0  0  0  0  0  0  0  0  0  0  0  0
   -1.9345    0.0822   -0.0950 C   0  0  0  0  0  0  0  0  0  0  0  0
   -2.1965   -0.4149    0.8455 H   0  0  0  0  0  0  0  0  0  0  0  0
   -2.8149    0.1033   -0.7459 H   0  0  0  0  0  0  0  0  0  0  0  0
   -1.4373    1.4857    0.1916 C   0  0  0  0  0  0  0  0  0  0  0  0
   -1.9617    1.9433    1.0362 H   0  0  0  0  0  0  0  0  0  0  0  0
   -1.5756    2.1183   -0.6914 H   0  0  0  0  0  0  0  0  0  0  0  0
    0.0453    1.2983    0.4707 C   0  0  0  0  0  0  0  0  0  0  0  0
    0.1859    0.9908    1.5128 H   0  0  0  0  0  0  0  0  0  0  0  0
    0.6179    2.2152    0.3001 H   0  0  0  0  0  0  0  0  0  0  0  0
    0.4573    0.1769   -0.4897 C   0  0  1  0  0  0  0  0  0  0  0  0
    0.7209    0.6459   -1.4423 H   0  0  0  0  0  0  0  0  0  0  0  0
    1.7238   -0.5975   -0.0417 C   0  0  0  0  0  0  0  0  0  0  0  0
    1.8839   -0.8917    1.1382 O   0  0  0  0  0  0  0  0  0  0  0  0
    2.7508   -0.8253   -0.9405 N   0  0  0  0  0  0  0  0  0  0  0  0
    2.4857   -0.7854   -1.9206 H   0  0  0  0  0  0  0  0  0  0  0  0
    3.9285   -1.6092   -0.5896 C   0  0  0  0  0  0  0  0  0  0  0  0
    3.6404   -2.6303   -0.3187 H   0  0  0  0  0  0  0  0  0  0  0  0
    4.6176   -1.6555   -1.4382 H   0  0  0  0  0  0  0  0  0  0  0  0
    4.4553   -1.1545    0.2559 H   0  0  0  0  0  0  0  0  0  0  0  0
  1  2  1  0  0  0  0
  2  3  1  0  0  0  0
  2  4  1  0  0  0  0
  2  5  1  0  0  0  0
  5  6  2  0  0  0  0
  5  7  1  0  0  0  0
  7  8  1  0  0  0  0
  7 17  1  0  0  0  0
  8  9  1  0  0  0  0
  8 10  1  0  0  0  0
  8 11  1  0  0  0  0
 11 12  1  0  0  0  0
 11 13  1  0  0  0  0
 11 14  1  0  0  0  0
 14 15  1  0  0  0  0
 14 16  1  0  0  0  0
 14 17  1  0  0  0  0
 17 18  1  0  0  0  0
 17 19  1  0  0  0  0
 19 20  2  0  0  0  0
 19 21  1  0  0  0  0
 21 22  1  0  0  0  0
 21 23  1  0  0  0  0
 23 24  1  0  0  0  0
 23 25  1  0  0  0  0
 23 26  1  0  0  0  0
M  END
$$$$

  -OEChem-01062216093D

 26 26  0     1  0  0  0  0  0999 V2000
   -1.8825   -3.8375   -0.8966 H   0  0  0  0  0  0  0  0  0  0  0  0
   -2.0463   -2.8032   -0.5818 C   0  0  0  0  0  0  0  0  0  0  0  0
   -2.2451   -2.7953    0.4926 H   0  0  0  0  0  0  0  0  0  0  0  0
   -2.9164   -2.4118   -1.1140 H   0  0  0  0  0  0  0  0  0  0  0  0
   -0.8150   -1.9604   -0.8925 C   0  0  0  0  0  0  0  0  0  0  0  0
    0.1294   -2.5171   -1.4354 O   0  0  0  0  0  0  0  0  0  0  0  0
   -0.8015   -0.5709   -0.7529 N   0  0  0  0  0  0  0  0  0  0  0  0
   -1.9339    0.0804   -0.0998 C   0  0  0  0  0  0  0  0  0  0  0  0
   -2.1854   -0.4218    0.8408 H   0  0  0  0  0  0  0  0  0  0  0  0
   -2.8208    0.1035   -0.7415 H   0  0  0  0  0  0  0  0  0  0  0  0
   -1.4358    1.4833    0.1904 C   0  0  0  0  0  0  0  0  0  0  0  0
   -1.9531    1.9354    1.0424 H   0  0  0  0  0  0  0  0  0  0  0  0
   -1.5826    2.1209   -0.6876 H   0  0  0  0  0  0  0  0  0  0  0  0
    0.0492    1.2946    0.4558 C   0  0  0  0  0  0  0  0  0  0  0  0
    0.2014    0.9785    1.4938 H   0  0  0  0  0  0  0  0  0  0  0  0
    0.6193    2.2132    0.2855 H   0  0  0  0  0  0  0  0  0  0  0  0
    0.4526    0.1800   -0.5140 C   0  0  1  0  0  0  0  0  0  0  0  0
    0.7135    0.6481   -1.4675 H   0  0  0  0  0  0  0  0  0  0  0  0
    1.7151   -0.5952   -0.0589 C   0  0  0  0  0  0  0  0  0  0  0  0
    1.7610   -1.0820    1.0661 O   0  0  0  0  0  0  0  0  0  0  0  0
    2.8633   -0.5727   -0.8312 N   0  0  0  0  0  0  0  0  0  0  0  0
    2.7418   -0.3127   -1.8052 H   0  0  0  0  0  0  0  0  0  0  0  0
    4.0652   -1.3113   -0.4638 C   0  0  0  0  0  0  0  0  0  0  0  0
    3.8535   -2.3845   -0.4123 H   0  0  0  0  0  0  0  0  0  0  0  0
    4.8513   -1.1476   -1.2068 H   0  0  0  0  0  0  0  0  0  0  0  0
    4.4387   -0.9779    0.5101 H   0  0  0  0  0  0  0  0  0  0  0  0
  1  2  1  0  0  0  0
  2  3  1  0  0  0  0
  2  4  1  0  0  0  0
  2  5  1  0  0  0  0
  5  6  2  0  0  0  0
  5  7  1  0  0  0  0
  7  8  1  0  0  0  0
  7 17  1  0  0  0  0
  8  9  1  0  0  0  0
  8 10  1  0  0  0  0
  8 11  1  0  0  0  0
 11 12  1  0  0  0  0
 11 13  1  0  0  0  0
 11 14  1  0  0  0  0
 14 15  1  0  0  0  0
 14 16  1  0  0  0  0
 14 17  1  0  0  0  0
 17 18  1  0  0  0  0
 17 19  1  0  0  0  0
 19 20  2  0  0  0  0
 19 21  1  0  0  0  0
 21 22  1  0  0  0  0
 21 23  1  0  0  0  0
 23 24  1  0  0  0  0
 23 25  1  0  0  0  0
 23 26  1  0  0  0  0
M  END
$$$$

  -OEChem-01062216093D

 26 26  0     1  0  0  0  0  0999 V2000
   -1.8738   -3.8463   -0.8651 H   0  0  0  0  0  0  0  0  0  0  0  0
   -2.0385   -2.8084   -0.5619 C   0  0  0  0  0  0  0  0  0  0  0  0
   -2.2101   -2.7863    0.5167 H   0  0  0  0  0  0  0  0  0  0  0  0
   -2.9248   -2.4312   -1.0774 H   0  0  0  0  0  0  0  0  0  0  0  0
   -0.8221   -1.9602   -0.9142 C   0  0  0  0  0  0  0  0  0  0  0  0
    0.1029   -2.5091   -1.4975 O   0  0  0  0  0  0  0  0  0  0  0  0
   -0.8075   -0.5704   -0.7774 N   0  0  0  0  0  0  0  0  0  0  0  0
   -1.9321    0.0813   -0.1115 C   0  0  0  0  0  0  0  0  0  0  0  0
   -2.1809   -0.4268    0.8265 H   0  0  0  0  0  0  0  0  0  0  0  0
   -2.8227    0.1141   -0.7478 H   0  0  0  0  0  0  0  0  0  0  0  0
   -1.4249    1.4786    0.1885 C   0  0  0  0  0  0  0  0  0  0  0  0
   -1.9353    1.9257    1.0473 H   0  0  0  0  0  0  0  0  0  0  0  0
   -1.5727    2.1242   -0.6835 H   0  0  0  0  0  0  0  0  0  0  0  0
    0.0602    1.2786    0.4439 C   0  0  0  0  0  0  0  0  0  0  0  0
    0.2176    0.9485    1.4768 H   0  0  0  0  0  0  0  0  0  0  0  0
    0.6354    2.1952    0.2803 H   0  0  0  0  0  0  0  0  0  0  0  0
    0.4518    0.1715   -0.5373 C   0  0  1  0  0  0  0  0  0  0  0  0
    0.7140    0.6397   -1.4905 H   0  0  0  0  0  0  0  0  0  0  0  0
    1.7110   -0.6057   -0.0784 C   0  0  0  0  0  0  0  0  0  0  0  0
    1.6788   -1.2595    0.9591 O   0  0  0  0  0  0  0  0  0  0  0  0
    2.9373   -0.3479   -0.6668 N   0  0  0  0  0  0  0  0  0  0  0  0
    2.9217    0.1173   -1.5690 H   0  0  0  0  0  0  0  0  0  0  0  0
    4.1643   -1.0186   -0.2545 C   0  0  0  0  0  0  0  0  0  0  0  0
    4.0744   -2.1009   -0.3959 H   0  0  0  0  0  0  0  0  0  0  0  0
    5.0091   -0.6590   -0.8498 H   0  0  0  0  0  0  0  0  0  0  0  0
    4.3768   -0.8170    0.8007 H   0  0  0  0  0  0  0  0  0  0  0  0
  1  2  1  0  0  0  0
  2  3  1  0  0  0  0
  2  4  1  0  0  0  0
  2  5  1  0  0  0  0
  5  6  2  0  0  0  0
  5  7  1  0  0  0  0
  7  8  1  0  0  0  0
  7 17  1  0  0  0  0
  8  9  1  0  0  0  0
  8 10  1  0  0  0  0
  8 11  1  0  0  0  0
 11 12  1  0  0  0  0
 11 13  1  0  0  0  0
 11 14  1  0  0  0  0
 14 15  1  0  0  0  0
 14 16  1  0  0  0  0
 14 17  1  0  0  0  0
 17 18  1  0  0  0  0
 17 19  1  0  0  0  0
 19 20  2  0  0  0  0
 19 21  1  0  0  0  0
 21 22  1  0  0  0  0
 21 23  1  0  0  0  0
 23 24  1  0  0  0  0
 23 25  1  0  0  0  0
 23 26  1  0  0  0  0
M  END
$$$$

  -OEChem-01062216093D

 26 26  0     1  0  0  0  0  0999 V2000
   -1.8840   -3.8469   -0.8647 H   0  0  0  0  0  0  0  0  0  0  0  0
   -2.0332   -2.8134   -0.5401 C   0  0  0  0  0  0  0  0  0  0  0  0
   -2.1530   -2.8056    0.5457 H   0  0  0  0  0  0  0  0  0  0  0  0
   -2.9423   -2.4293   -1.0084 H   0  0  0  0  0  0  0  0  0  0  0  0
   -0.8334   -1.9622   -0.9380 C   0  0  0  0  0  0  0  0  0  0  0  0
    0.0630   -2.5032   -1.5714 O   0  0  0  0  0  0  0  0  0  0  0  0
   -0.8104   -0.5728   -0.7999 N   0  0  0  0  0  0  0  0  0  0  0  0
   -1.9262    0.0838   -0.1243 C   0  0  0  0  0  0  0  0  0  0  0  0
   -2.1761   -0.4283    0.8113 H   0  0  0  0  0  0  0  0  0  0  0  0
   -2.8187    0.1282   -0.7573 H   0  0  0  0  0  0  0  0  0  0  0  0
   -1.4065    1.4748    0.1832 C   0  0  0  0  0  0  0  0  0  0  0  0
   -1.9093    1.9200    1.0474 H   0  0  0  0  0  0  0  0  0  0  0  0
   -1.5525    2.1281   -0.6833 H   0  0  0  0  0  0  0  0  0  0  0  0
    0.0774    1.2595    0.4306 C   0  0  0  0  0  0  0  0  0  0  0  0
    0.2378    0.9195    1.4600 H   0  0  0  0  0  0  0  0  0  0  0  0
    0.6587    2.1729    0.2704 H   0  0  0  0  0  0  0  0  0  0  0  0
    0.4565    0.1564   -0.5592 C   0  0  1  0  0  0  0  0  0  0  0  0
    0.7206    0.6238   -1.5121 H   0  0  0  0  0  0  0  0  0  0  0  0
    1.7154   -0.6220   -0.1005 C   0  0  0  0  0  0  0  0  0  0  0  0
    1.6390   -1.4208    0.8275 O   0  0  0  0  0  0  0  0  0  0  0  0
    2.9699   -0.1584   -0.4594 N   0  0  0  0  0  0  0  0  0  0  0  0
    3.0181    0.4903   -1.2387 H   0  0  0  0  0  0  0  0  0  0  0  0
    4.2066   -0.7596    0.0253 C   0  0  0  0  0  0  0  0  0  0  0  0
    4.2614   -1.8128   -0.2698 H   0  0  0  0  0  0  0  0  0  0  0  0
    5.0712   -0.2363   -0.3938 H   0  0  0  0  0  0  0  0  0  0  0  0
    4.2621   -0.6961    1.1171 H   0  0  0  0  0  0  0  0  0  0  0  0
  1  2  1  0  0  0  0
  2  3  1  0  0  0  0
  2  4  1  0  0  0  0
  2  5  1  0  0  0  0
  5  6  2  0  0  0  0
  5  7  1  0  0  0  0
  7  8  1  0  0  0  0
  7 17  1  0  0  0  0
  8  9  1  0  0  0  0
  8 10  1  0  0  0  0
  8 11  1  0  0  0  0
 11 12  1  0  0  0  0
 11 13  1  0  0  0  0
 11 14  1  0  0  0  0
 14 15  1  0  0  0  0
 14 16  1  0  0  0  0
 14 17  1  0  0  0  0
 17 18  1  0  0  0  0
 17 19  1  0  0  0  0
 19 20  2  0  0  0  0
 19 21  1  0  0  0  0
 21 22  1  0  0  0  0
 21 23  1  0  0  0  0
 23 24  1  0  0  0  0
 23 25  1  0  0  0  0
 23 26  1  0  0  0  0
M  END
$$$$

  -OEChem-01062216093D

 26 26  0     1  0  0  0  0  0999 V2000
   -1.8903   -3.8475   -0.8634 H   0  0  0  0  0  0  0  0  0  0  0  0
   -2.0289   -2.8152   -0.5304 C   0  0  0  0  0  0  0  0  0  0  0  0
   -2.1115   -2.8113    0.5590 H   0  0  0  0  0  0  0  0  0  0  0  0
   -2.9533   -2.4296   -0.9662 H   0  0  0  0  0  0  0  0  0  0  0  0
   -0.8430   -1.9625   -0.9653 C   0  0  0  0  0  0  0  0  0  0  0  0
    0.0197   -2.4940   -1.6513 O   0  0  0  0  0  0  0  0  0  0  0  0
   -0.8079   -0.5745   -0.8181 N   0  0  0  0  0  0  0  0  0  0  0  0
   -1.9160    0.0828   -0.1306 C   0  0  0  0  0  0  0  0  0  0  0  0
   -2.1658   -0.4365    0.8011 H   0  0  0  0  0  0  0  0  0  0  0  0
   -2.8109    0.1393   -0.7593 H   0  0  0  0  0  0  0  0  0  0  0  0
   -1.3867    1.4670    0.1890 C   0  0  0  0  0  0  0  0  0  0  0  0
   -1.8830    1.9062    1.0598 H   0  0  0  0  0  0  0  0  0  0  0  0
   -1.5323    2.1301   -0.6701 H   0  0  0  0  0  0  0  0  0  0  0  0
    0.0963    1.2382    0.4271 C   0  0  0  0  0  0  0  0  0  0  0  0
    0.2586    0.8846    1.4516 H   0  0  0  0  0  0  0  0  0  0  0  0
    0.6825    2.1498    0.2763 H   0  0  0  0  0  0  0  0  0  0  0  0
    0.4668    0.1429   -0.5755 C   0  0  1  0  0  0  0  0  0  0  0  0
    0.7307    0.6155   -1.5261 H   0  0  0  0  0  0  0  0  0  0  0  0
    1.7324   -0.6313   -0.1228 C   0  0  0  0  0  0  0  0  0  0  0  0
    1.6433   -1.5653    0.6672 O   0  0  0  0  0  0  0  0  0  0  0  0
    2.9628   -0.0014   -0.2149 N   0  0  0  0  0  0  0  0  0  0  0  0
    3.0325    0.7903   -0.8462 H   0  0  0  0  0  0  0  0  0  0  0  0
    4.1887   -0.5551    0.3487 C   0  0  0  0  0  0  0  0  0  0  0  0
    4.3977   -1.5395   -0.0833 H   0  0  0  0  0  0  0  0  0  0  0  0
    5.0348    0.1047    0.1343 H   0  0  0  0  0  0  0  0  0  0  0  0
    4.0998   -0.6586    1.4353 H   0  0  0  0  0  0  0  0  0  0  0  0
  1  2  1  0  0  0  0
  2  3  1  0  0  0  0
  2  4  1  0  0  0  0
  2  5  1  0  0  0  0
  5  6  2  0  0  0  0
  5  7  1  0  0  0  0
  7  8  1  0  0  0  0
  7 17  1  0  0  0  0
  8  9  1  0  0  0  0
  8 10  1  0  0  0  0
  8 11  1  0  0  0  0
 11 12  1  0  0  0  0
 11 13  1  0  0  0  0
 11 14  1  0  0  0  0
 14 15  1  0  0  0  0
 14 16  1  0  0  0  0
 14 17  1  0  0  0  0
 17 18  1  0  0  0  0
 17 19  1  0  0  0  0
 19 20  2  0  0  0  0
 19 21  1  0  0  0  0
 21 22  1  0  0  0  0
 21 23  1  0  0  0  0
 23 24  1  0  0  0  0
 23 25  1  0  0  0  0
 23 26  1  0  0  0  0
M  END
$$$$

  -OEChem-01062216093D

 26 26  0     1  0  0  0  0  0999 V2000
   -1.8940   -3.8750   -0.8976 H   0  0  0  0  0  0  0  0  0  0  0  0
   -1.9699   -2.8696   -0.4738 C   0  0  0  0  0  0  0  0  0  0  0  0
   -1.7990   -2.9368    0.6031 H   0  0  0  0  0  0  0  0  0  0  0  0
   -2.9765   -2.4891   -0.6609 H   0  0  0  0  0  0  0  0  0  0  0  0
   -0.9280   -1.9558   -1.1117 C   0  0  0  0  0  0  0  0  0  0  0  0
   -0.2916   -2.4079   -2.0527 O   0  0  0  0  0  0  0  0  0  0  0  0
   -0.8502   -0.5758   -0.9058 N   0  0  0  0  0  0  0  0  0  0  0  0
   -1.8666    0.0005   -0.0201 C   0  0  0  0  0  0  0  0  0  0  0  0
   -2.0652   -0.6419    0.8440 H   0  0  0  0  0  0  0  0  0  0  0  0
   -2.8075    0.1805   -0.5507 H   0  0  0  0  0  0  0  0  0  0  0  0
   -1.2658    1.2962    0.4763 C   0  0  0  0  0  0  0  0  0  0  0  0
   -1.6781    1.5964    1.4446 H   0  0  0  0  0  0  0  0  0  0  0  0
   -1.4541    2.0957   -0.2481 H   0  0  0  0  0  0  0  0  0  0  0  0
    0.2205    1.0003    0.5528 C   0  0  0  0  0  0  0  0  0  0  0  0
    0.4540    0.4751    1.4855 H   0  0  0  0  0  0  0  0  0  0  0  0
    0.8223    1.9131    0.5034 H   0  0  0  0  0  0  0  0  0  0  0  0
    0.4611    0.0785   -0.6432 C   0  0  1  0  0  0  0  0  0  0  0  0
    0.6042    0.7244   -1.5149 H   0  0  0  0  0  0  0  0  0  0  0  0
    1.8098   -0.6917   -0.5590 C   0  0  0  0  0  0  0  0  0  0  0  0
    1.8685   -1.8742   -0.2484 O   0  0  0  0  0  0  0  0  0  0  0  0
    2.9591    0.0453   -0.3159 N   0  0  0  0  0  0  0  0  0  0  0  0
    2.9178    1.0442   -0.4907 H   0  0  0  0  0  0  0  0  0  0  0  0
    4.2471   -0.5518    0.0227 C   0  0  0  0  0  0  0  0  0  0  0  0
    4.5565   -1.2608   -0.7524 H   0  0  0  0  0  0  0  0  0  0  0  0
    5.0131    0.2248    0.1065 H   0  0  0  0  0  0  0  0  0  0  0  0
    4.1854   -1.0805    0.9796 H   0  0  0  0  0  0  0  0  0  0  0  0
  1  2  1  0  0  0  0
  2  3  1  0  0  0  0
  2  4  1  0  0  0  0
  2  5  1  0  0  0  0
  5  6  2  0  0  0  0
  5  7  1  0  0  0  0
  7  8  1  0  0  0  0
  7 17  1  0  0  0  0
  8  9  1  0  0  0  0
  8 10  1  0  0  0  0
  8 11  1  0  0  0  0
 11 12  1  0  0  0  0
 11 13  1  0  0  0  0
 11 14  1  0  0  0  0
 14 15  1  0  0  0  0
 14 16  1  0  0  0  0
 14 17  1  0  0  0  0
 17 18  1  0  0  0  0
 17 19  1  0  0  0  0
 19 20  2  0  0  0  0
 19 21  1  0  0  0  0
 21 22  1  0  0  0  0
 21 23  1  0  0  0  0
 23 24  1  0  0  0  0
 23 25  1  0  0  0  0
 23 26  1  0  0  0  0
M  END
$$$$

  -OEChem-01062216093D

 26 26  0     1  0  0  0  0  0999 V2000
   -0.3626   -3.7189   -1.0243 H   0  0  0  0  0  0  0  0  0  0  0  0
   -1.0403   -2.9146   -1.3210 C   0  0  0  0  0  0  0  0  0  0  0  0
   -1.9719   -3.3535   -1.6863 H   0  0  0  0  0  0  0  0  0  0  0  0
   -0.5836   -2.3460   -2.1343 H   0  0  0  0  0  0  0  0  0  0  0  0
   -1.3277   -2.0120   -0.1281 C   0  0  0  0  0  0  0  0  0  0  0  0
   -2.0933   -2.4800    0.7074 O   0  0  0  0  0  0  0  0  0  0  0  0
   -1.1407   -0.6265   -0.2348 N   0  0  0  0  0  0  0  0  0  0  0  0
   -1.9520    0.1879    0.6823 C   0  0  0  0  0  0  0  0  0  0  0  0
   -1.9835   -0.2448    1.6892 H   0  0  0  0  0  0  0  0  0  0  0  0
   -2.9785    0.3015    0.3180 H   0  0  0  0  0  0  0  0  0  0  0  0
   -1.2472    1.5221    0.7544 C   0  0  0  0  0  0  0  0  0  0  0  0
   -1.4542    2.0447    1.6937 H   0  0  0  0  0  0  0  0  0  0  0  0
   -1.5673    2.1573   -0.0781 H   0  0  0  0  0  0  0  0  0  0  0  0
    0.2196    1.1646    0.6058 C   0  0  0  0  0  0  0  0  0  0  0  0
    0.6246    0.8403    1.5709 H   0  0  0  0  0  0  0  0  0  0  0  0
    0.8087    2.0120    0.2411 H   0  0  0  0  0  0  0  0  0  0  0  0
    0.2053   -0.0053   -0.3812 C   0  0  1  0  0  0  0  0  0  0  0  0
    0.1735    0.4431   -1.3791 H   0  0  0  0  0  0  0  0  0  0  0  0
    1.5383   -0.8042   -0.4205 C   0  0  0  0  0  0  0  0  0  0  0  0
    1.5982   -2.0094   -0.6051 O   0  0  0  0  0  0  0  0  0  0  0  0
    2.7361   -0.1301   -0.2460 N   0  0  0  0  0  0  0  0  0  0  0  0
    2.6935    0.8691   -0.0710 H   0  0  0  0  0  0  0  0  0  0  0  0
    4.0395   -0.7859   -0.2458 C   0  0  0  0  0  0  0  0  0  0  0  0
    4.2178   -1.2856   -1.2038 H   0  0  0  0  0  0  0  0  0  0  0  0
    4.8334   -0.0497   -0.0875 H   0  0  0  0  0  0  0  0  0  0  0  0
    4.0939   -1.5303    0.5556 H   0  0  0  0  0  0  0  0  0  0  0  0
  1  2  1  0  0  0  0
  2  3  1  0  0  0  0
  2  4  1  0  0  0  0
  2  5  1  0  0  0  0
  5  6  2  0  0  0  0
  5  7  1  0  0  0  0
  7  8  1  0  0  0  0
  7 17  1  0  0  0  0
  8  9  1  0  0  0  0
  8 10  1  0  0  0  0
  8 11  1  0  0  0  0
 11 12  1  0  0  0  0
 11 13  1  0  0  0  0
 11 14  1  0  0  0  0
 14 15  1  0  0  0  0
 14 16  1  0  0  0  0
 14 17  1  0  0  0  0
 17 18  1  0  0  0  0
 17 19  1  0  0  0  0
 19 20  2  0  0  0  0
 19 21  1  0  0  0  0
 21 22  1  0  0  0  0
 21 23  1  0  0  0  0
 23 24  1  0  0  0  0
 23 25  1  0  0  0  0
 23 26  1  0  0  0  0
M  END
$$$$

  -OEChem-01062216093D

 26 26  0     1  0  0  0  0  0999 V2000
   -0.3261   -3.6666   -1.0825 H   0  0  0  0  0  0  0  0  0  0  0  0
   -1.0633   -2.9009   -1.3362 C   0  0  0  0  0  0  0  0  0  0  0  0
   -1.9935   -3.3910   -1.6342 H   0  0  0  0  0  0  0  0  0  0  0  0
   -0.6949   -2.3164   -2.1826 H   0  0  0  0  0  0  0  0  0  0  0  0
   -1.3141   -2.0025   -0.1332 C   0  0  0  0  0  0  0  0  0  0  0  0
   -2.0342   -2.4805    0.7360 O   0  0  0  0  0  0  0  0  0  0  0  0
   -1.1392   -0.6158   -0.2366 N   0  0  0  0  0  0  0  0  0  0  0  0
   -1.9621    0.1964    0.6715 C   0  0  0  0  0  0  0  0  0  0  0  0
   -2.0036   -0.2345    1.6787 H   0  0  0  0  0  0  0  0  0  0  0  0
   -2.9849    0.3064    0.2962 H   0  0  0  0  0  0  0  0  0  0  0  0
   -1.2616    1.5331    0.7501 C   0  0  0  0  0  0  0  0  0  0  0  0
   -1.4802    2.0568    1.6860 H   0  0  0  0  0  0  0  0  0  0  0  0
   -1.5733    2.1663   -0.0872 H   0  0  0  0  0  0  0  0  0  0  0  0
    0.2075    1.1780    0.6186 C   0  0  0  0  0  0  0  0  0  0  0  0
    0.5983    0.8576    1.5907 H   0  0  0  0  0  0  0  0  0  0  0  0
    0.8011    2.0244    0.2584 H   0  0  0  0  0  0  0  0  0  0  0  0
    0.2065    0.0065   -0.3679 C   0  0  1  0  0  0  0  0  0  0  0  0
    0.1923    0.4563   -1.3657 H   0  0  0  0  0  0  0  0  0  0  0  0
    1.5260   -0.8144   -0.3917 C   0  0  0  0  0  0  0  0  0  0  0  0
    1.6131   -1.9039   -0.9356 O   0  0  0  0  0  0  0  0  0  0  0  0
    2.6960   -0.2559    0.0968 N   0  0  0  0  0  0  0  0  0  0  0  0
    2.6322    0.6539    0.5428 H   0  0  0  0  0  0  0  0  0  0  0  0
    3.9883   -0.9325    0.0684 C   0  0  0  0  0  0  0  0  0  0  0  0
    4.2841   -1.1516   -0.9630 H   0  0  0  0  0  0  0  0  0  0  0  0
    4.7571   -0.2982    0.5200 H   0  0  0  0  0  0  0  0  0  0  0  0
    3.9421   -1.8719    0.6295 H   0  0  0  0  0  0  0  0  0  0  0  0
  1  2  1  0  0  0  0
  2  3  1  0  0  0  0
  2  4  1  0  0  0  0
  2  5  1  0  0  0  0
  5  6  2  0  0  0  0
  5  7  1  0  0  0  0
  7  8  1  0  0  0  0
  7 17  1  0  0  0  0
  8  9  1  0  0  0  0
  8 10  1  0  0  0  0
  8 11  1  0  0  0  0
 11 12  1  0  0  0  0
 11 13  1  0  0  0  0
 11 14  1  0  0  0  0
 14 15  1  0  0  0  0
 14 16  1  0  0  0  0
 14 17  1  0  0  0  0
 17 18  1  0  0  0  0
 17 19  1  0  0  0  0
 19 20  2  0  0  0  0
 19 21  1  0  0  0  0
 21 22  1  0  0  0  0
 21 23  1  0  0  0  0
 23 24  1  0  0  0  0
 23 25  1  0  0  0  0
 23 26  1  0  0  0  0
M  END
$$$$

  -OEChem-01062216093D

 26 26  0     1  0  0  0  0  0999 V2000
   -2.1190   -3.8146   -1.2288 H   0  0  0  0  0  0  0  0  0  0  0  0
   -2.2562   -2.7776   -0.9095 C   0  0  0  0  0  0  0  0  0  0  0  0
   -2.8697   -2.7663   -0.0059 H   0  0  0  0  0  0  0  0  0  0  0  0
   -2.7754   -2.2369   -1.7046 H   0  0  0  0  0  0  0  0  0  0  0  0
   -0.9031   -2.1320   -0.6369 C   0  0  0  0  0  0  0  0  0  0  0  0
    0.0249   -2.8865   -0.4033 O   0  0  0  0  0  0  0  0  0  0  0  0
   -0.7784   -0.7404   -0.5837 N   0  0  0  0  0  0  0  0  0  0  0  0
   -1.8516   -0.0767    0.1561 C   0  0  0  0  0  0  0  0  0  0  0  0
   -2.0704   -0.6070    1.0902 H   0  0  0  0  0  0  0  0  0  0  0  0
   -2.7714    0.0035   -0.4330 H   0  0  0  0  0  0  0  0  0  0  0  0
   -1.2887    1.2910    0.4617 C   0  0  0  0  0  0  0  0  0  0  0  0
   -1.7297    1.7209    1.3664 H   0  0  0  0  0  0  0  0  0  0  0  0
   -1.4871    1.9673   -0.3765 H   0  0  0  0  0  0  0  0  0  0  0  0
    0.2106    1.0743    0.6047 C   0  0  0  0  0  0  0  0  0  0  0  0
    0.4357    0.7119    1.6132 H   0  0  0  0  0  0  0  0  0  0  0  0
    0.7801    1.9911    0.4208 H   0  0  0  0  0  0  0  0  0  0  0  0
    0.5106   -0.0100   -0.4325 C   0  0  1  0  0  0  0  0  0  0  0  0
    0.6181    0.5211   -1.3841 H   0  0  0  0  0  0  0  0  0  0  0  0
    1.8890   -0.7139   -0.3124 C   0  0  0  0  0  0  0  0  0  0  0  0
    2.3377   -1.3319   -1.2700 O   0  0  0  0  0  0  0  0  0  0  0  0
    2.8002   -0.3010    0.6476 N   0  0  0  0  0  0  0  0  0  0  0  0
    2.4402    0.2402    1.4260 H   0  0  0  0  0  0  0  0  0  0  0  0
    4.1710   -0.7938    0.7127 C   0  0  0  0  0  0  0  0  0  0  0  0
    4.7266   -0.5011   -0.1844 H   0  0  0  0  0  0  0  0  0  0  0  0
    4.6815   -0.3771    1.5861 H   0  0  0  0  0  0  0  0  0  0  0  0
    4.1816   -1.8860    0.7937 H   0  0  0  0  0  0  0  0  0  0  0  0
  1  2  1  0  0  0  0
  2  3  1  0  0  0  0
  2  4  1  0  0  0  0
  2  5  1  0  0  0  0
  5  6  2  0  0  0  0
  5  7  1  0  0  0  0
  7  8  1  0  0  0  0
  7 17  1  0  0  0  0
  8  9  1  0  0  0  0
  8 10  1  0  0  0  0
  8 11  1  0  0  0  0
 11 12  1  0  0  0  0
 11 13  1  0  0  0  0
 11 14  1  0  0  0  0
 14 15  1  0  0  0  0
 14 16  1  0  0  0  0
 14 17  1  0  0  0  0
 17 18  1  0  0  0  0
 17 19  1  0  0  0  0
 19 20  2  0  0  0  0
 19 21  1  0  0  0  0
 21 22  1  0  0  0  0
 21 23  1  0  0  0  0
 23 24  1  0  0  0  0
 23 25  1  0  0  0  0
 23 26  1  0  0  0  0
M  END
$$$$

  -OEChem-01062216093D

 26 26  0     1  0  0  0  0  0999 V2000
   -2.0996   -3.8120   -1.2099 H   0  0  0  0  0  0  0  0  0  0  0  0
   -2.2317   -2.7814   -0.8682 C   0  0  0  0  0  0  0  0  0  0  0  0
   -2.7706   -2.7941    0.0819 H   0  0  0  0  0  0  0  0  0  0  0  0
   -2.8250   -2.2448   -1.6126 H   0  0  0  0  0  0  0  0  0  0  0  0
   -0.8741   -2.1086   -0.6967 C   0  0  0  0  0  0  0  0  0  0  0  0
    0.0928   -2.8468   -0.6259 O   0  0  0  0  0  0  0  0  0  0  0  0
   -0.7696   -0.7160   -0.6113 N   0  0  0  0  0  0  0  0  0  0  0  0
   -1.8559   -0.0694    0.1253 C   0  0  0  0  0  0  0  0  0  0  0  0
   -2.0801   -0.6122    1.0508 H   0  0  0  0  0  0  0  0  0  0  0  0
   -2.7700    0.0111   -0.4726 H   0  0  0  0  0  0  0  0  0  0  0  0
   -1.3075    1.2991    0.4551 C   0  0  0  0  0  0  0  0  0  0  0  0
   -1.7640    1.7148    1.3588 H   0  0  0  0  0  0  0  0  0  0  0  0
   -1.4998    1.9836   -0.3778 H   0  0  0  0  0  0  0  0  0  0  0  0
    0.1916    1.0930    0.6160 C   0  0  0  0  0  0  0  0  0  0  0  0
    0.4056    0.7237    1.6239 H   0  0  0  0  0  0  0  0  0  0  0  0
    0.7571    2.0157    0.4490 H   0  0  0  0  0  0  0  0  0  0  0  0
    0.5096    0.0240   -0.4314 C   0  0  1  0  0  0  0  0  0  0  0  0
    0.6213    0.5721   -1.3729 H   0  0  0  0  0  0  0  0  0  0  0  0
    1.8878   -0.6792   -0.3131 C   0  0  0  0  0  0  0  0  0  0  0  0
    2.4418   -1.0905   -1.3255 O   0  0  0  0  0  0  0  0  0  0  0  0
    2.6646   -0.5235    0.8242 N   0  0  0  0  0  0  0  0  0  0  0  0
    2.1919   -0.2070    1.6637 H   0  0  0  0  0  0  0  0  0  0  0  0
    4.0090   -1.0747    0.9473 C   0  0  0  0  0  0  0  0  0  0  0  0
    4.6725   -0.6402    0.1923 H   0  0  0  0  0  0  0  0  0  0  0  0
    4.4200   -0.8512    1.9363 H   0  0  0  0  0  0  0  0  0  0  0  0
    3.9902   -2.1618    0.8164 H   0  0  0  0  0  0  0  0  0  0  0  0
  1  2  1  0  0  0  0
  2  3  1  0  0  0  0
  2  4  1  0  0  0  0
  2  5  1  0  0  0  0
  5  6  2  0  0  0  0
  5  7  1  0  0  0  0
  7  8  1  0  0  0  0
  7 17  1  0  0  0  0
  8  9  1  0  0  0  0
  8 10  1  0  0  0  0
  8 11  1  0  0  0  0
 11 12  1  0  0  0  0
 11 13  1  0  0  0  0
 11 14  1  0  0  0  0
 14 15  1  0  0  0  0
 14 16  1  0  0  0  0
 14 17  1  0  0  0  0
 17 18  1  0  0  0  0
 17 19  1  0  0  0  0
 19 20  2  0  0  0  0
 19 21  1  0  0  0  0
 21 22  1  0  0  0  0
 21 23  1  0  0  0  0
 23 24  1  0  0  0  0
 23 25  1  0  0  0  0
 23 26  1  0  0  0  0
M  END
$$$$

  -OEChem-01062216093D

 26 26  0     1  0  0  0  0  0999 V2000
   -2.0604   -3.8102   -1.2050 H   0  0  0  0  0  0  0  0  0  0  0  0
   -2.1977   -2.7872   -0.8430 C   0  0  0  0  0  0  0  0  0  0  0  0
   -2.6881   -2.8248    0.1323 H   0  0  0  0  0  0  0  0  0  0  0  0
   -2.8393   -2.2553   -1.5496 H   0  0  0  0  0  0  0  0  0  0  0  0
   -0.8482   -2.0866   -0.7294 C   0  0  0  0  0  0  0  0  0  0  0  0
    0.1383   -2.8027   -0.7444 O   0  0  0  0  0  0  0  0  0  0  0  0
   -0.7636   -0.6934   -0.6298 N   0  0  0  0  0  0  0  0  0  0  0  0
   -1.8582   -0.0602    0.1073 C   0  0  0  0  0  0  0  0  0  0  0  0
   -2.0844   -0.6127    1.0263 H   0  0  0  0  0  0  0  0  0  0  0  0
   -2.7694    0.0198   -0.4949 H   0  0  0  0  0  0  0  0  0  0  0  0
   -1.3210    1.3096    0.4538 C   0  0  0  0  0  0  0  0  0  0  0  0
   -1.7879    1.7154    1.3568 H   0  0  0  0  0  0  0  0  0  0  0  0
   -1.5104    1.9999   -0.3750 H   0  0  0  0  0  0  0  0  0  0  0  0
    0.1783    1.1118    0.6253 C   0  0  0  0  0  0  0  0  0  0  0  0
    0.3899    0.7385    1.6320 H   0  0  0  0  0  0  0  0  0  0  0  0
    0.7398    2.0385    0.4676 H   0  0  0  0  0  0  0  0  0  0  0  0
    0.5071    0.0547   -0.4294 C   0  0  1  0  0  0  0  0  0  0  0  0
    0.6222    0.6132   -1.3645 H   0  0  0  0  0  0  0  0  0  0  0  0
    1.8832   -0.6486   -0.3041 C   0  0  0  0  0  0  0  0  0  0  0  0
    2.5491   -0.8511   -1.3125 O   0  0  0  0  0  0  0  0  0  0  0  0
    2.5065   -0.7679    0.9273 N   0  0  0  0  0  0  0  0  0  0  0  0
    1.9114   -0.6819    1.7441 H   0  0  0  0  0  0  0  0  0  0  0  0
    3.8137   -1.3932    1.0872 C   0  0  0  0  0  0  0  0  0  0  0  0
    4.5729   -0.8488    0.5158 H   0  0  0  0  0  0  0  0  0  0  0  0
    4.1080   -1.3891    2.1409 H   0  0  0  0  0  0  0  0  0  0  0  0
    3.7858   -2.4308    0.7377 H   0  0  0  0  0  0  0  0  0  0  0  0
  1  2  1  0  0  0  0
  2  3  1  0  0  0  0
  2  4  1  0  0  0  0
  2  5  1  0  0  0  0
  5  6  2  0  0  0  0
  5  7  1  0  0  0  0
  7  8  1  0  0  0  0
  7 17  1  0  0  0  0
  8  9  1  0  0  0  0
  8 10  1  0  0  0  0
  8 11  1  0  0  0  0
 11 12  1  0  0  0  0
 11 13  1  0  0  0  0
 11 14  1  0  0  0  0
 14 15  1  0  0  0  0
 14 16  1  0  0  0  0
 14 17  1  0  0  0  0
 17 18  1  0  0  0  0
 17 19  1  0  0  0  0
 19 20  2  0  0  0  0
 19 21  1  0  0  0  0
 21 22  1  0  0  0  0
 21 23  1  0  0  0  0
 23 24  1  0  0  0  0
 23 25  1  0  0  0  0
 23 26  1  0  0  0  0
M  END
$$$$

  -OEChem-01062216093D

 26 26  0     1  0  0  0  0  0999 V2000
   -2.0488   -3.8087   -1.1918 H   0  0  0  0  0  0  0  0  0  0  0  0
   -2.1861   -2.7856   -0.8298 C   0  0  0  0  0  0  0  0  0  0  0  0
   -2.6527   -2.8249    0.1571 H   0  0  0  0  0  0  0  0  0  0  0  0
   -2.8498   -2.2617   -1.5220 H   0  0  0  0  0  0  0  0  0  0  0  0
   -0.8405   -2.0722   -0.7519 C   0  0  0  0  0  0  0  0  0  0  0  0
    0.1529   -2.7756   -0.8253 O   0  0  0  0  0  0  0  0  0  0  0  0
   -0.7613   -0.6792   -0.6453 N   0  0  0  0  0  0  0  0  0  0  0  0
   -1.8605   -0.0508    0.0900 C   0  0  0  0  0  0  0  0  0  0  0  0
   -2.0951   -0.6100    1.0028 H   0  0  0  0  0  0  0  0  0  0  0  0
   -2.7667    0.0354   -0.5191 H   0  0  0  0  0  0  0  0  0  0  0  0
   -1.3242    1.3155    0.4533 C   0  0  0  0  0  0  0  0  0  0  0  0
   -1.7979    1.7132    1.3562 H   0  0  0  0  0  0  0  0  0  0  0  0
   -1.5059    2.0141   -0.3706 H   0  0  0  0  0  0  0  0  0  0  0  0
    0.1734    1.1149    0.6361 C   0  0  0  0  0  0  0  0  0  0  0  0
    0.3812    0.7323    1.6402 H   0  0  0  0  0  0  0  0  0  0  0  0
    0.7368    2.0424    0.4898 H   0  0  0  0  0  0  0  0  0  0  0  0
    0.5068    0.0673   -0.4249 C   0  0  1  0  0  0  0  0  0  0  0  0
    0.6311    0.6327   -1.3550 H   0  0  0  0  0  0  0  0  0  0  0  0
    1.8787   -0.6386   -0.2841 C   0  0  0  0  0  0  0  0  0  0  0  0
    2.6641   -0.6249   -1.2247 O   0  0  0  0  0  0  0  0  0  0  0  0
    2.3375   -1.0377    0.9601 N   0  0  0  0  0  0  0  0  0  0  0  0
    1.6283   -1.1661    1.6741 H   0  0  0  0  0  0  0  0  0  0  0  0
    3.6197   -1.7079    1.1376 C   0  0  0  0  0  0  0  0  0  0  0  0
    4.4384   -1.0707    0.7869 H   0  0  0  0  0  0  0  0  0  0  0  0
    3.7871   -1.9302    2.1957 H   0  0  0  0  0  0  0  0  0  0  0  0
    3.6396   -2.6483    0.5764 H   0  0  0  0  0  0  0  0  0  0  0  0
  1  2  1  0  0  0  0
  2  3  1  0  0  0  0
  2  4  1  0  0  0  0
  2  5  1  0  0  0  0
  5  6  2  0  0  0  0
  5  7  1  0  0  0  0
  7  8  1  0  0  0  0
  7 17  1  0  0  0  0
  8  9  1  0  0  0  0
  8 10  1  0  0  0  0
  8 11  1  0  0  0  0
 11 12  1  0  0  0  0
 11 13  1  0  0  0  0
 11 14  1  0  0  0  0
 14 15  1  0  0  0  0
 14 16  1  0  0  0  0
 14 17  1  0  0  0  0
 17 18  1  0  0  0  0
 17 19  1  0  0  0  0
 19 20  2  0  0  0  0
 19 21  1  0  0  0  0
 21 22  1  0  0  0  0
 21 23  1  0  0  0  0
 23 24  1  0  0  0  0
 23 25  1  0  0  0  0
 23 26  1  0  0  0  0
M  END
$$$$

  -OEChem-01062216093D

 26 26  0     1  0  0  0  0  0999 V2000
   -2.0745   -3.8014   -1.1886 H   0  0  0  0  0  0  0  0  0  0  0  0
   -2.2038   -2.7777   -0.8255 C   0  0  0  0  0  0  0  0  0  0  0  0
   -2.6531   -2.8156    0.1694 H   0  0  0  0  0  0  0  0  0  0  0  0
   -2.8781   -2.2532   -1.5069 H   0  0  0  0  0  0  0  0  0  0  0  0
   -0.8557   -2.0664   -0.7708 C   0  0  0  0  0  0  0  0  0  0  0  0
    0.1355   -2.7680   -0.8830 O   0  0  0  0  0  0  0  0  0  0  0  0
   -0.7675   -0.6747   -0.6600 N   0  0  0  0  0  0  0  0  0  0  0  0
   -1.8639   -0.0429    0.0778 C   0  0  0  0  0  0  0  0  0  0  0  0
   -2.1052   -0.6072    0.9857 H   0  0  0  0  0  0  0  0  0  0  0  0
   -2.7678    0.0557   -0.5328 H   0  0  0  0  0  0  0  0  0  0  0  0
   -1.3196    1.3163    0.4559 C   0  0  0  0  0  0  0  0  0  0  0  0
   -1.7951    1.7098    1.3596 H   0  0  0  0  0  0  0  0  0  0  0  0
   -1.4911    2.0236   -0.3625 H   0  0  0  0  0  0  0  0  0  0  0  0
    0.1748    1.1014    0.6447 C   0  0  0  0  0  0  0  0  0  0  0  0
    0.3782    0.7058    1.6450 H   0  0  0  0  0  0  0  0  0  0  0  0
    0.7473    2.0250    0.5095 H   0  0  0  0  0  0  0  0  0  0  0  0
    0.5040    0.0619   -0.4227 C   0  0  1  0  0  0  0  0  0  0  0  0
    0.6385    0.6308   -1.3492 H   0  0  0  0  0  0  0  0  0  0  0  0
    1.8725   -0.6446   -0.2646 C   0  0  0  0  0  0  0  0  0  0  0  0
    2.7716   -0.4030   -1.0614 O   0  0  0  0  0  0  0  0  0  0  0  0
    2.1780   -1.3139    0.9083 N   0  0  0  0  0  0  0  0  0  0  0  0
    1.3776   -1.6513    1.4332 H   0  0  0  0  0  0  0  0  0  0  0  0
    3.4518   -1.9957    1.1008 C   0  0  0  0  0  0  0  0  0  0  0  0
    4.2839   -1.2899    1.0083 H   0  0  0  0  0  0  0  0  0  0  0  0
    3.4925   -2.4448    2.0976 H   0  0  0  0  0  0  0  0  0  0  0  0
    3.5771   -2.7886    0.3558 H   0  0  0  0  0  0  0  0  0  0  0  0
  1  2  1  0  0  0  0
  2  3  1  0  0  0  0
  2  4  1  0  0  0  0
  2  5  1  0  0  0  0
  5  6  2  0  0  0  0
  5  7  1  0  0  0  0
  7  8  1  0  0  0  0
  7 17  1  0  0  0  0
  8  9  1  0  0  0  0
  8 10  1  0  0  0  0
  8 11  1  0  0  0  0
 11 12  1  0  0  0  0
 11 13  1  0  0  0  0
 11 14  1  0  0  0  0
 14 15  1  0  0  0  0
 14 16  1  0  0  0  0
 14 17  1  0  0  0  0
 17 18  1  0  0  0  0
 17 19  1  0  0  0  0
 19 20  2  0  0  0  0
 19 21  1  0  0  0  0
 21 22  1  0  0  0  0
 21 23  1  0  0  0  0
 23 24  1  0  0  0  0
 23 25  1  0  0  0  0
 23 26  1  0  0  0  0
M  END
$$$$

  -OEChem-01062216093D

 26 26  0     1  0  0  0  0  0999 V2000
   -2.1630   -3.7852   -1.1829 H   0  0  0  0  0  0  0  0  0  0  0  0
   -2.2698   -2.7575   -0.8237 C   0  0  0  0  0  0  0  0  0  0  0  0
   -2.7139   -2.7825    0.1741 H   0  0  0  0  0  0  0  0  0  0  0  0
   -2.9386   -2.2235   -1.5032 H   0  0  0  0  0  0  0  0  0  0  0  0
   -0.9080   -2.0718   -0.7814 C   0  0  0  0  0  0  0  0  0  0  0  0
    0.0682   -2.7896   -0.9204 O   0  0  0  0  0  0  0  0  0  0  0  0
   -0.7875   -0.6836   -0.6656 N   0  0  0  0  0  0  0  0  0  0  0  0
   -1.8751   -0.0315    0.0688 C   0  0  0  0  0  0  0  0  0  0  0  0
   -2.1314   -0.5920    0.9750 H   0  0  0  0  0  0  0  0  0  0  0  0
   -2.7743    0.0851   -0.5456 H   0  0  0  0  0  0  0  0  0  0  0  0
   -1.3094    1.3170    0.4527 C   0  0  0  0  0  0  0  0  0  0  0  0
   -1.7825    1.7170    1.3550 H   0  0  0  0  0  0  0  0  0  0  0  0
   -1.4633    2.0290   -0.3651 H   0  0  0  0  0  0  0  0  0  0  0  0
    0.1791    1.0737    0.6498 C   0  0  0  0  0  0  0  0  0  0  0  0
    0.3712    0.6682    1.6487 H   0  0  0  0  0  0  0  0  0  0  0  0
    0.7700    1.9867    0.5215 H   0  0  0  0  0  0  0  0  0  0  0  0
    0.4959    0.0312   -0.4166 C   0  0  1  0  0  0  0  0  0  0  0  0
    0.6427    0.5962   -1.3437 H   0  0  0  0  0  0  0  0  0  0  0  0
    1.8647   -0.6725   -0.2446 C   0  0  0  0  0  0  0  0  0  0  0  0
    2.8423   -0.2139   -0.8243 O   0  0  0  0  0  0  0  0  0  0  0  0
    2.0625   -1.5888    0.7736 N   0  0  0  0  0  0  0  0  0  0  0  0
    1.2298   -2.1212    1.0122 H   0  0  0  0  0  0  0  0  0  0  0  0
    3.3499   -2.2387    0.9849 C   0  0  0  0  0  0  0  0  0  0  0  0
    4.1279   -1.4954    1.1880 H   0  0  0  0  0  0  0  0  0  0  0  0
    3.2926   -2.9178    1.8407 H   0  0  0  0  0  0  0  0  0  0  0  0
    3.6364   -2.8166    0.1000 H   0  0  0  0  0  0  0  0  0  0  0  0
  1  2  1  0  0  0  0
  2  3  1  0  0  0  0
  2  4  1  0  0  0  0
  2  5  1  0  0  0  0
  5  6  2  0  0  0  0
  5  7  1  0  0  0  0
  7  8  1  0  0  0  0
  7 17  1  0  0  0  0
  8  9  1  0  0  0  0
  8 10  1  0  0  0  0
  8 11  1  0  0  0  0
 11 12  1  0  0  0  0
 11 13  1  0  0  0  0
 11 14  1  0  0  0  0
 14 15  1  0  0  0  0
 14 16  1  0  0  0  0
 14 17  1  0  0  0  0
 17 18  1  0  0  0  0
 17 19  1  0  0  0  0
 19 20  2  0  0  0  0
 19 21  1  0  0  0  0
 21 22  1  0  0  0  0
 21 23  1  0  0  0  0
 23 24  1  0  0  0  0
 23 25  1  0  0  0  0
 23 26  1  0  0  0  0
M  END
$$$$

  -OEChem-01062216093D

 26 26  0     1  0  0  0  0  0999 V2000
   -2.2873   -3.7576   -1.1788 H   0  0  0  0  0  0  0  0  0  0  0  0
   -2.3584   -2.7306   -0.8088 C   0  0  0  0  0  0  0  0  0  0  0  0
   -2.7664   -2.7553    0.2043 H   0  0  0  0  0  0  0  0  0  0  0  0
   -3.0403   -2.1773   -1.4593 H   0  0  0  0  0  0  0  0  0  0  0  0
   -0.9806   -2.0746   -0.8108 C   0  0  0  0  0  0  0  0  0  0  0  0
   -0.0313   -2.8080   -1.0309 O   0  0  0  0  0  0  0  0  0  0  0  0
   -0.8167   -0.6927   -0.6758 N   0  0  0  0  0  0  0  0  0  0  0  0
   -1.8932   -0.0171    0.0554 C   0  0  0  0  0  0  0  0  0  0  0  0
   -2.1683   -0.5752    0.9575 H   0  0  0  0  0  0  0  0  0  0  0  0
   -2.7856    0.1235   -0.5637 H   0  0  0  0  0  0  0  0  0  0  0  0
   -1.3017    1.3158    0.4522 C   0  0  0  0  0  0  0  0  0  0  0  0
   -1.7734    1.7208    1.3528 H   0  0  0  0  0  0  0  0  0  0  0  0
   -1.4313    2.0362   -0.3624 H   0  0  0  0  0  0  0  0  0  0  0  0
    0.1775    1.0355    0.6606 C   0  0  0  0  0  0  0  0  0  0  0  0
    0.3517    0.6184    1.6580 H   0  0  0  0  0  0  0  0  0  0  0  0
    0.7911    1.9350    0.5442 H   0  0  0  0  0  0  0  0  0  0  0  0
    0.4820   -0.0080   -0.4085 C   0  0  1  0  0  0  0  0  0  0  0  0
    0.6435    0.5568   -1.3330 H   0  0  0  0  0  0  0  0  0  0  0  0
    1.8550   -0.7052   -0.2269 C   0  0  0  0  0  0  0  0  0  0  0  0
    2.8606   -0.0898   -0.5619 O   0  0  0  0  0  0  0  0  0  0  0  0
    2.0068   -1.8320    0.5608 N   0  0  0  0  0  0  0  0  0  0  0  0
    1.1983   -2.4526    0.5325 H   0  0  0  0  0  0  0  0  0  0  0  0
    3.3076   -2.4504    0.7847 C   0  0  0  0  0  0  0  0  0  0  0  0
    3.9942   -1.7421    1.2601 H   0  0  0  0  0  0  0  0  0  0  0  0
    3.2028   -3.3194    1.4412 H   0  0  0  0  0  0  0  0  0  0  0  0
    3.7425   -2.7806   -0.1644 H   0  0  0  0  0  0  0  0  0  0  0  0
  1  2  1  0  0  0  0
  2  3  1  0  0  0  0
  2  4  1  0  0  0  0
  2  5  1  0  0  0  0
  5  6  2  0  0  0  0
  5  7  1  0  0  0  0
  7  8  1  0  0  0  0
  7 17  1  0  0  0  0
  8  9  1  0  0  0  0
  8 10  1  0  0  0  0
  8 11  1  0  0  0  0
 11 12  1  0  0  0  0
 11 13  1  0  0  0  0
 11 14  1  0  0  0  0
 14 15  1  0  0  0  0
 14 16  1  0  0  0  0
 14 17  1  0  0  0  0
 17 18  1  0  0  0  0
 17 19  1  0  0  0  0
 19 20  2  0  0  0  0
 19 21  1  0  0  0  0
 21 22  1  0  0  0  0
 21 23  1  0  0  0  0
 23 24  1  0  0  0  0
 23 25  1  0  0  0  0
 23 26  1  0  0  0  0
M  END
$$$$

  -OEChem-01062216093D

 26 26  0     1  0  0  0  0  0999 V2000
   -2.4038   -3.7321   -1.1483 H   0  0  0  0  0  0  0  0  0  0  0  0
   -2.4346   -2.7092   -0.7620 C   0  0  0  0  0  0  0  0  0  0  0  0
   -2.7770   -2.7416    0.2749 H   0  0  0  0  0  0  0  0  0  0  0  0
   -3.1483   -2.1381   -1.3607 H   0  0  0  0  0  0  0  0  0  0  0  0
   -1.0490   -2.0735   -0.8435 C   0  0  0  0  0  0  0  0  0  0  0  0
   -0.1381   -2.8105   -1.1819 O   0  0  0  0  0  0  0  0  0  0  0  0
   -0.8452   -0.6987   -0.6900 N   0  0  0  0  0  0  0  0  0  0  0  0
   -1.9111    0.0003    0.0361 C   0  0  0  0  0  0  0  0  0  0  0  0
   -2.2035   -0.5522    0.9361 H   0  0  0  0  0  0  0  0  0  0  0  0
   -2.7966    0.1603   -0.5885 H   0  0  0  0  0  0  0  0  0  0  0  0
   -1.2991    1.3204    0.4415 C   0  0  0  0  0  0  0  0  0  0  0  0
   -1.7715    1.7335    1.3382 H   0  0  0  0  0  0  0  0  0  0  0  0
   -1.4051    2.0446   -0.3732 H   0  0  0  0  0  0  0  0  0  0  0  0
    0.1696    1.0059    0.6643 C   0  0  0  0  0  0  0  0  0  0  0  0
    0.3241    0.5824    1.6622 H   0  0  0  0  0  0  0  0  0  0  0  0
    0.8032    1.8929    0.5580 H   0  0  0  0  0  0  0  0  0  0  0  0
    0.4665   -0.0422   -0.4040 C   0  0  1  0  0  0  0  0  0  0  0  0
    0.6456    0.5205   -1.3264 H   0  0  0  0  0  0  0  0  0  0  0  0
    1.8423   -0.7373   -0.2110 C   0  0  0  0  0  0  0  0  0  0  0  0
    2.8447   -0.0403   -0.3194 O   0  0  0  0  0  0  0  0  0  0  0  0
    1.9967   -2.0113    0.3032 N   0  0  0  0  0  0  0  0  0  0  0  0
    1.2093   -2.6323    0.1124 H   0  0  0  0  0  0  0  0  0  0  0  0
    3.3035   -2.6279    0.4966 C   0  0  0  0  0  0  0  0  0  0  0  0
    3.9105   -2.0338    1.1876 H   0  0  0  0  0  0  0  0  0  0  0  0
    3.1868   -3.6309    0.9180 H   0  0  0  0  0  0  0  0  0  0  0  0
    3.8334   -2.7109   -0.4580 H   0  0  0  0  0  0  0  0  0  0  0  0
  1  2  1  0  0  0  0
  2  3  1  0  0  0  0
  2  4  1  0  0  0  0
  2  5  1  0  0  0  0
  5  6  2  0  0  0  0
  5  7  1  0  0  0  0
  7  8  1  0  0  0  0
  7 17  1  0  0  0  0
  8  9  1  0  0  0  0
  8 10  1  0  0  0  0
  8 11  1  0  0  0  0
 11 12  1  0  0  0  0
 11 13  1  0  0  0  0
 11 14  1  0  0  0  0
 14 15  1  0  0  0  0
 14 16  1  0  0  0  0
 14 17  1  0  0  0  0
 17 18  1  0  0  0  0
 17 19  1  0  0  0  0
 19 20  2  0  0  0  0
 19 21  1  0  0  0  0
 21 22  1  0  0  0  0
 21 23  1  0  0  0  0
 23 24  1  0  0  0  0
 23 25  1  0  0  0  0
 23 26  1  0  0  0  0
M  END
$$$$

  -OEChem-01062216093D

 26 26  0     1  0  0  0  0  0999 V2000
   -2.4139   -3.8224   -0.9878 H   0  0  0  0  0  0  0  0  0  0  0  0
   -2.4449   -2.7837   -0.6460 C   0  0  0  0  0  0  0  0  0  0  0  0
   -2.7285   -2.7772    0.4090 H   0  0  0  0  0  0  0  0  0  0  0  0
   -3.2027   -2.2540   -1.2283 H   0  0  0  0  0  0  0  0  0  0  0  0
   -1.0790   -2.1269   -0.8324 C   0  0  0  0  0  0  0  0  0  0  0  0
   -0.1911   -2.8518   -1.2490 O   0  0  0  0  0  0  0  0  0  0  0  0
   -0.8787   -0.7477   -0.7147 N   0  0  0  0  0  0  0  0  0  0  0  0
   -1.9538   -0.0287   -0.0214 C   0  0  0  0  0  0  0  0  0  0  0  0
   -2.2492   -0.5479    0.8971 H   0  0  0  0  0  0  0  0  0  0  0  0
   -2.8359    0.1013   -0.6576 H   0  0  0  0  0  0  0  0  0  0  0  0
   -1.3573    1.3101    0.3412 C   0  0  0  0  0  0  0  0  0  0  0  0
   -1.8411    1.7519    1.2179 H   0  0  0  0  0  0  0  0  0  0  0  0
   -1.4600    2.0033   -0.5004 H   0  0  0  0  0  0  0  0  0  0  0  0
    0.1099    1.0124    0.5883 C   0  0  0  0  0  0  0  0  0  0  0  0
    0.2571    0.6266    1.6026 H   0  0  0  0  0  0  0  0  0  0  0  0
    0.7377    1.9002    0.4579 H   0  0  0  0  0  0  0  0  0  0  0  0
    0.4279   -0.0725   -0.4388 C   0  0  1  0  0  0  0  0  0  0  0  0
    0.6079    0.4584   -1.3795 H   0  0  0  0  0  0  0  0  0  0  0  0
    1.8213   -0.7293   -0.2139 C   0  0  0  0  0  0  0  0  0  0  0  0
    2.7853    0.0241   -0.1367 O   0  0  0  0  0  0  0  0  0  0  0  0
    2.0437   -2.0659    0.0574 N   0  0  0  0  0  0  0  0  0  0  0  0
    1.2903   -2.6941   -0.2258 H   0  0  0  0  0  0  0  0  0  0  0  0
    3.3744   -2.6361    0.2278 C   0  0  0  0  0  0  0  0  0  0  0  0
    3.8907   -2.1629    1.0696 H   0  0  0  0  0  0  0  0  0  0  0  0
    3.3003   -3.7089    0.4296 H   0  0  0  0  0  0  0  0  0  0  0  0
    3.9716   -2.4932   -0.6787 H   0  0  0  0  0  0  0  0  0  0  0  0
  1  2  1  0  0  0  0
  2  3  1  0  0  0  0
  2  4  1  0  0  0  0
  2  5  1  0  0  0  0
  5  6  2  0  0  0  0
  5  7  1  0  0  0  0
  7  8  1  0  0  0  0
  7 17  1  0  0  0  0
  8  9  1  0  0  0  0
  8 10  1  0  0  0  0
  8 11  1  0  0  0  0
 11 12  1  0  0  0  0
 11 13  1  0  0  0  0
 11 14  1  0  0  0  0
 14 15  1  0  0  0  0
 14 16  1  0  0  0  0
 14 17  1  0  0  0  0
 17 18  1  0  0  0  0
 17 19  1  0  0  0  0
 19 20  2  0  0  0  0
 19 21  1  0  0  0  0
 21 22  1  0  0  0  0
 21 23  1  0  0  0  0
 23 24  1  0  0  0  0
 23 25  1  0  0  0  0
 23 26  1  0  0  0  0
M  END
$$$$

  -OEChem-01062216093D

 26 26  0     1  0  0  0  0  0999 V2000
   -1.5563   -4.0932   -1.2086 H   0  0  0  0  0  0  0  0  0  0  0  0
   -1.7685   -3.1102   -0.7782 C   0  0  0  0  0  0  0  0  0  0  0  0
   -1.8508   -3.2201    0.3055 H   0  0  0  0  0  0  0  0  0  0  0  0
   -2.7210   -2.7574   -1.1808 H   0  0  0  0  0  0  0  0  0  0  0  0
   -0.6501   -2.1312   -1.1278 C   0  0  0  0  0  0  0  0  0  0  0  0
    0.2379   -2.5588   -1.8445 O   0  0  0  0  0  0  0  0  0  0  0  0
   -0.7201   -0.7583   -0.8880 N   0  0  0  0  0  0  0  0  0  0  0  0
   -1.8807   -0.3162   -0.1075 C   0  0  0  0  0  0  0  0  0  0  0  0
   -2.0468   -0.9611    0.7621 H   0  0  0  0  0  0  0  0  0  0  0  0
   -2.7928   -0.2932   -0.7134 H   0  0  0  0  0  0  0  0  0  0  0  0
   -1.5245    1.0692    0.3775 C   0  0  0  0  0  0  0  0  0  0  0  0
   -2.0526    1.3324    1.2993 H   0  0  0  0  0  0  0  0  0  0  0  0
   -1.7734    1.8082   -0.3915 H   0  0  0  0  0  0  0  0  0  0  0  0
   -0.0218    1.0135    0.5747 C   0  0  0  0  0  0  0  0  0  0  0  0
    0.2198    0.5658    1.5443 H   0  0  0  0  0  0  0  0  0  0  0  0
    0.4355    2.0075    0.5248 H   0  0  0  0  0  0  0  0  0  0  0  0
    0.4530    0.1061   -0.5592 C   0  0  1  0  0  0  0  0  0  0  0  0
    0.5107    0.7430   -1.4482 H   0  0  0  0  0  0  0  0  0  0  0  0
    1.9526   -0.2935   -0.3959 C   0  0  0  0  0  0  0  0  0  0  0  0
    2.7732    0.6110   -0.3424 O   0  0  0  0  0  0  0  0  0  0  0  0
    2.5801   -1.5128   -0.5007 N   0  0  0  0  0  0  0  0  0  0  0  0
    3.5815   -1.3899   -0.6224 H   0  0  0  0  0  0  0  0  0  0  0  0
    2.1965   -2.6285    0.3554 C   0  0  0  0  0  0  0  0  0  0  0  0
    2.9570   -2.7839    1.1270 H   0  0  0  0  0  0  0  0  0  0  0  0
    1.2418   -2.4420    0.8565 H   0  0  0  0  0  0  0  0  0  0  0  0
    2.1091   -3.5458   -0.2355 H   0  0  0  0  0  0  0  0  0  0  0  0
  1  2  1  0  0  0  0
  2  3  1  0  0  0  0
  2  4  1  0  0  0  0
  2  5  1  0  0  0  0
  5  6  2  0  0  0  0
  5  7  1  0  0  0  0
  7  8  1  0  0  0  0
  7 17  1  0  0  0  0
  8  9  1  0  0  0  0
  8 10  1  0  0  0  0
  8 11  1  0  0  0  0
 11 12  1  0  0  0  0
 11 13  1  0  0  0  0
 11 14  1  0  0  0  0
 14 15  1  0  0  0  0
 14 16  1  0  0  0  0
 14 17  1  0  0  0  0
 17 18  1  0  0  0  0
 17 19  1  0  0  0  0
 19 20  2  0  0  0  0
 19 21  1  0  0  0  0
 21 22  1  0  0  0  0
 21 23  1  0  0  0  0
 23 24  1  0  0  0  0
 23 25  1  0  0  0  0
 23 26  1  0  0  0  0
M  END
$$$$

  -OEChem-01062216093D

 26 26  0     1  0  0  0  0  0999 V2000
   -0.5091   -3.8693   -1.4116 H   0  0  0  0  0  0  0  0  0  0  0  0
   -1.1192   -2.9634   -1.4279 C   0  0  0  0  0  0  0  0  0  0  0  0
   -2.1639   -3.2441   -1.5816 H   0  0  0  0  0  0  0  0  0  0  0  0
   -0.8040   -2.3378   -2.2661 H   0  0  0  0  0  0  0  0  0  0  0  0
   -0.9861   -2.2118   -0.1105 C   0  0  0  0  0  0  0  0  0  0  0  0
   -1.1573   -2.8658    0.9100 O   0  0  0  0  0  0  0  0  0  0  0  0
   -1.0815   -0.8212   -0.1313 N   0  0  0  0  0  0  0  0  0  0  0  0
   -1.6441   -0.2090    1.0817 C   0  0  0  0  0  0  0  0  0  0  0  0
   -1.2685   -0.6875    1.9936 H   0  0  0  0  0  0  0  0  0  0  0  0
   -2.7378   -0.2608    1.0866 H   0  0  0  0  0  0  0  0  0  0  0  0
   -1.1658    1.2255    1.0610 C   0  0  0  0  0  0  0  0  0  0  0  0
   -1.1184    1.6580    2.0653 H   0  0  0  0  0  0  0  0  0  0  0  0
   -1.8376    1.8351    0.4477 H   0  0  0  0  0  0  0  0  0  0  0  0
    0.2003    1.1367    0.4087 C   0  0  0  0  0  0  0  0  0  0  0  0
    0.9536    0.8454    1.1486 H   0  0  0  0  0  0  0  0  0  0  0  0
    0.5035    2.0870   -0.0430 H   0  0  0  0  0  0  0  0  0  0  0  0
    0.0283    0.0332   -0.6350 C   0  0  1  0  0  0  0  0  0  0  0  0
   -0.4044    0.5117   -1.5195 H   0  0  0  0  0  0  0  0  0  0  0  0
    1.3952   -0.4834   -1.1703 C   0  0  0  0  0  0  0  0  0  0  0  0
    2.1644    0.3303   -1.6555 O   0  0  0  0  0  0  0  0  0  0  0  0
    1.7364   -1.7636   -1.5380 N   0  0  0  0  0  0  0  0  0  0  0  0
    2.4424   -1.7182   -2.2702 H   0  0  0  0  0  0  0  0  0  0  0  0
    2.0880   -2.7004   -0.4738 C   0  0  0  0  0  0  0  0  0  0  0  0
    1.6415   -2.4158    0.4848 H   0  0  0  0  0  0  0  0  0  0  0  0
    1.7520   -3.7103   -0.7273 H   0  0  0  0  0  0  0  0  0  0  0  0
    3.1746   -2.7215   -0.3424 H   0  0  0  0  0  0  0  0  0  0  0  0
  1  2  1  0  0  0  0
  2  3  1  0  0  0  0
  2  4  1  0  0  0  0
  2  5  1  0  0  0  0
  5  6  2  0  0  0  0
  5  7  1  0  0  0  0
  7  8  1  0  0  0  0
  7 17  1  0  0  0  0
  8  9  1  0  0  0  0
  8 10  1  0  0  0  0
  8 11  1  0  0  0  0
 11 12  1  0  0  0  0
 11 13  1  0  0  0  0
 11 14  1  0  0  0  0
 14 15  1  0  0  0  0
 14 16  1  0  0  0  0
 14 17  1  0  0  0  0
 17 18  1  0  0  0  0
 17 19  1  0  0  0  0
 19 20  2  0  0  0  0
 19 21  1  0  0  0  0
 21 22  1  0  0  0  0
 21 23  1  0  0  0  0
 23 24  1  0  0  0  0
 23 25  1  0  0  0  0
 23 26  1  0  0  0  0
M  END
$$$$

  -OEChem-01062216093D

 26 26  0     1  0  0  0  0  0999 V2000
   -2.5587   -3.6992   -1.1103 H   0  0  0  0  0  0  0  0  0  0  0  0
   -2.5349   -2.6854   -0.7001 C   0  0  0  0  0  0  0  0  0  0  0  0
   -2.7664   -2.7410    0.3660 H   0  0  0  0  0  0  0  0  0  0  0  0
   -3.3007   -2.0935   -1.2070 H   0  0  0  0  0  0  0  0  0  0  0  0
   -1.1565   -2.0624   -0.9122 C   0  0  0  0  0  0  0  0  0  0  0  0
   -0.3285   -2.7864   -1.4364 O   0  0  0  0  0  0  0  0  0  0  0  0
   -0.9020   -0.7022   -0.6993 N   0  0  0  0  0  0  0  0  0  0  0  0
   -1.9234   -0.0064    0.0920 C   0  0  0  0  0  0  0  0  0  0  0  0
   -2.1820   -0.5770    0.9911 H   0  0  0  0  0  0  0  0  0  0  0  0
   -2.8339    0.1802   -0.4874 H   0  0  0  0  0  0  0  0  0  0  0  0
   -1.2820    1.2955    0.5055 C   0  0  0  0  0  0  0  0  0  0  0  0
   -1.7112    1.6900    1.4319 H   0  0  0  0  0  0  0  0  0  0  0  0
   -1.4110    2.0423   -0.2850 H   0  0  0  0  0  0  0  0  0  0  0  0
    0.1873    0.9527    0.6580 C   0  0  0  0  0  0  0  0  0  0  0  0
    0.3730    0.5015    1.6388 H   0  0  0  0  0  0  0  0  0  0  0  0
    0.8278    1.8348    0.5534 H   0  0  0  0  0  0  0  0  0  0  0  0
    0.4347   -0.0738   -0.4506 C   0  0  1  0  0  0  0  0  0  0  0  0
    0.5771    0.5168   -1.3609 H   0  0  0  0  0  0  0  0  0  0  0  0
    1.8258   -0.7756   -0.3630 C   0  0  0  0  0  0  0  0  0  0  0  0
    2.6962   -0.2460    0.3195 O   0  0  0  0  0  0  0  0  0  0  0  0
    2.1849   -1.9261   -1.0362 N   0  0  0  0  0  0  0  0  0  0  0  0
    1.4266   -2.4275   -1.5032 H   0  0  0  0  0  0  0  0  0  0  0  0
    3.4746   -2.5896   -0.8947 C   0  0  0  0  0  0  0  0  0  0  0  0
    3.6417   -2.8854    0.1461 H   0  0  0  0  0  0  0  0  0  0  0  0
    3.5050   -3.4874   -1.5193 H   0  0  0  0  0  0  0  0  0  0  0  0
    4.2850   -1.9235   -1.2085 H   0  0  0  0  0  0  0  0  0  0  0  0
  1  2  1  0  0  0  0
  2  3  1  0  0  0  0
  2  4  1  0  0  0  0
  2  5  1  0  0  0  0
  5  6  2  0  0  0  0
  5  7  1  0  0  0  0
  7  8  1  0  0  0  0
  7 17  1  0  0  0  0
  8  9  1  0  0  0  0
  8 10  1  0  0  0  0
  8 11  1  0  0  0  0
 11 12  1  0  0  0  0
 11 13  1  0  0  0  0
 11 14  1  0  0  0  0
 14 15  1  0  0  0  0
 14 16  1  0  0  0  0
 14 17  1  0  0  0  0
 17 18  1  0  0  0  0
 17 19  1  0  0  0  0
 19 20  2  0  0  0  0
 19 21  1  0  0  0  0
 21 22  1  0  0  0  0
 21 23  1  0  0  0  0
 23 24  1  0  0  0  0
 23 25  1  0  0  0  0
 23 26  1  0  0  0  0
M  END
$$$$

  -OEChem-01062216093D

 26 26  0     1  0  0  0  0  0999 V2000
   -2.4513   -3.7309   -1.1108 H   0  0  0  0  0  0  0  0  0  0  0  0
   -2.4535   -2.7211   -0.6901 C   0  0  0  0  0  0  0  0  0  0  0  0
   -2.6725   -2.7938    0.3777 H   0  0  0  0  0  0  0  0  0  0  0  0
   -3.2409   -2.1462   -1.1833 H   0  0  0  0  0  0  0  0  0  0  0  0
   -1.0959   -2.0566   -0.9080 C   0  0  0  0  0  0  0  0  0  0  0  0
   -0.2412   -2.7547   -1.4257 O   0  0  0  0  0  0  0  0  0  0  0  0
   -0.8847   -0.6884   -0.7008 N   0  0  0  0  0  0  0  0  0  0  0  0
   -1.9116   -0.0213    0.1070 C   0  0  0  0  0  0  0  0  0  0  0  0
   -2.1482   -0.6041    1.0042 H   0  0  0  0  0  0  0  0  0  0  0  0
   -2.8325    0.1503   -0.4606 H   0  0  0  0  0  0  0  0  0  0  0  0
   -1.2900    1.2904    0.5223 C   0  0  0  0  0  0  0  0  0  0  0  0
   -1.7151    1.6694    1.4569 H   0  0  0  0  0  0  0  0  0  0  0  0
   -1.4442    2.0400   -0.2609 H   0  0  0  0  0  0  0  0  0  0  0  0
    0.1887    0.9770    0.6538 C   0  0  0  0  0  0  0  0  0  0  0  0
    0.3928    0.5220    1.6293 H   0  0  0  0  0  0  0  0  0  0  0  0
    0.8120    1.8711    0.5489 H   0  0  0  0  0  0  0  0  0  0  0  0
    0.4406   -0.0359   -0.4659 C   0  0  1  0  0  0  0  0  0  0  0  0
    0.5694    0.5652   -1.3714 H   0  0  0  0  0  0  0  0  0  0  0  0
    1.8260   -0.7462   -0.3979 C   0  0  0  0  0  0  0  0  0  0  0  0
    2.6453   -0.3632    0.4304 O   0  0  0  0  0  0  0  0  0  0  0  0
    2.2380   -1.7080   -1.2999 N   0  0  0  0  0  0  0  0  0  0  0  0
    1.4784   -2.1729   -1.8024 H   0  0  0  0  0  0  0  0  0  0  0  0
    3.5120   -2.4082   -1.1957 C   0  0  0  0  0  0  0  0  0  0  0  0
    3.5688   -2.9618   -0.2528 H   0  0  0  0  0  0  0  0  0  0  0  0
    3.6194   -3.1171   -2.0221 H   0  0  0  0  0  0  0  0  0  0  0  0
    4.3451   -1.6990   -1.2407 H   0  0  0  0  0  0  0  0  0  0  0  0
  1  2  1  0  0  0  0
  2  3  1  0  0  0  0
  2  4  1  0  0  0  0
  2  5  1  0  0  0  0
  5  6  2  0  0  0  0
  5  7  1  0  0  0  0
  7  8  1  0  0  0  0
  7 17  1  0  0  0  0
  8  9  1  0  0  0  0
  8 10  1  0  0  0  0
  8 11  1  0  0  0  0
 11 12  1  0  0  0  0
 11 13  1  0  0  0  0
 11 14  1  0  0  0  0
 14 15  1  0  0  0  0
 14 16  1  0  0  0  0
 14 17  1  0  0  0  0
 17 18  1  0  0  0  0
 17 19  1  0  0  0  0
 19 20  2  0  0  0  0
 19 21  1  0  0  0  0
 21 22  1  0  0  0  0
 21 23  1  0  0  0  0
 23 24  1  0  0  0  0
 23 25  1  0  0  0  0
 23 26  1  0  0  0  0
M  END
$$$$

  -OEChem-01062216093D

 26 26  0     1  0  0  0  0  0999 V2000
   -2.3076   -3.7649   -1.1069 H   0  0  0  0  0  0  0  0  0  0  0  0
   -2.3478   -2.7546   -0.6895 C   0  0  0  0  0  0  0  0  0  0  0  0
   -2.5523   -2.8328    0.3807 H   0  0  0  0  0  0  0  0  0  0  0  0
   -3.1634   -2.2137   -1.1754 H   0  0  0  0  0  0  0  0  0  0  0  0
   -1.0221   -2.0346   -0.9238 C   0  0  0  0  0  0  0  0  0  0  0  0
   -0.1445   -2.6865   -1.4658 O   0  0  0  0  0  0  0  0  0  0  0  0
   -0.8632   -0.6592   -0.7218 N   0  0  0  0  0  0  0  0  0  0  0  0
   -1.9032   -0.0220    0.0928 C   0  0  0  0  0  0  0  0  0  0  0  0
   -2.1342   -0.6206    0.9810 H   0  0  0  0  0  0  0  0  0  0  0  0
   -2.8245    0.1426   -0.4761 H   0  0  0  0  0  0  0  0  0  0  0  0
   -1.3005    1.2928    0.5293 C   0  0  0  0  0  0  0  0  0  0  0  0
   -1.7327    1.6508    1.4689 H   0  0  0  0  0  0  0  0  0  0  0  0
   -1.4644    2.0521   -0.2425 H   0  0  0  0  0  0  0  0  0  0  0  0
    0.1831    0.9994    0.6600 C   0  0  0  0  0  0  0  0  0  0  0  0
    0.3887    0.5338    1.6301 H   0  0  0  0  0  0  0  0  0  0  0  0
    0.7950    1.9027    0.5703 H   0  0  0  0  0  0  0  0  0  0  0  0
    0.4493    0.0073   -0.4745 C   0  0  1  0  0  0  0  0  0  0  0  0
    0.5887    0.6227   -1.3688 H   0  0  0  0  0  0  0  0  0  0  0  0
    1.8135   -0.7355   -0.3977 C   0  0  0  0  0  0  0  0  0  0  0  0
    2.5545   -0.5393    0.5595 O   0  0  0  0  0  0  0  0  0  0  0  0
    2.3025   -1.4676   -1.4634 N   0  0  0  0  0  0  0  0  0  0  0  0
    1.5688   -1.8629   -2.0548 H   0  0  0  0  0  0  0  0  0  0  0  0
    3.5693   -2.1861   -1.4038 C   0  0  0  0  0  0  0  0  0  0  0  0
    3.5432   -2.9439   -0.6139 H   0  0  0  0  0  0  0  0  0  0  0  0
    3.7633   -2.6845   -2.3582 H   0  0  0  0  0  0  0  0  0  0  0  0
    4.3948   -1.4951   -1.2036 H   0  0  0  0  0  0  0  0  0  0  0  0
  1  2  1  0  0  0  0
  2  3  1  0  0  0  0
  2  4  1  0  0  0  0
  2  5  1  0  0  0  0
  5  6  2  0  0  0  0
  5  7  1  0  0  0  0
  7  8  1  0  0  0  0
  7 17  1  0  0  0  0
  8  9  1  0  0  0  0
  8 10  1  0  0  0  0
  8 11  1  0  0  0  0
 11 12  1  0  0  0  0
 11 13  1  0  0  0  0
 11 14  1  0  0  0  0
 14 15  1  0  0  0  0
 14 16  1  0  0  0  0
 14 17  1  0  0  0  0
 17 18  1  0  0  0  0
 17 19  1  0  0  0  0
 19 20  2  0  0  0  0
 19 21  1  0  0  0  0
 21 22  1  0  0  0  0
 21 23  1  0  0  0  0
 23 24  1  0  0  0  0
 23 25  1  0  0  0  0
 23 26  1  0  0  0  0
M  END
$$$$

  -OEChem-01062216093D

 26 26  0     1  0  0  0  0  0999 V2000
   -2.1650   -3.7933   -1.1010 H   0  0  0  0  0  0  0  0  0  0  0  0
   -2.2390   -2.7873   -0.6777 C   0  0  0  0  0  0  0  0  0  0  0  0
   -2.4103   -2.8784    0.3974 H   0  0  0  0  0  0  0  0  0  0  0  0
   -3.0904   -2.2812   -1.1391 H   0  0  0  0  0  0  0  0  0  0  0  0
   -0.9531   -2.0093   -0.9432 C   0  0  0  0  0  0  0  0  0  0  0  0
   -0.0602   -2.6128   -1.5180 O   0  0  0  0  0  0  0  0  0  0  0  0
   -0.8468   -0.6282   -0.7461 N   0  0  0  0  0  0  0  0  0  0  0  0
   -1.8975   -0.0210    0.0760 C   0  0  0  0  0  0  0  0  0  0  0  0
   -2.1192   -0.6356    0.9554 H   0  0  0  0  0  0  0  0  0  0  0  0
   -2.8207    0.1364   -0.4916 H   0  0  0  0  0  0  0  0  0  0  0  0
   -1.3140    1.2969    0.5323 C   0  0  0  0  0  0  0  0  0  0  0  0
   -1.7539    1.6367    1.4752 H   0  0  0  0  0  0  0  0  0  0  0  0
   -1.4867    2.0639   -0.2299 H   0  0  0  0  0  0  0  0  0  0  0  0
    0.1742    1.0231    0.6626 C   0  0  0  0  0  0  0  0  0  0  0  0
    0.3824    0.5481    1.6276 H   0  0  0  0  0  0  0  0  0  0  0  0
    0.7742    1.9355    0.5861 H   0  0  0  0  0  0  0  0  0  0  0  0
    0.4529    0.0514   -0.4863 C   0  0  1  0  0  0  0  0  0  0  0  0
    0.6012    0.6819   -1.3685 H   0  0  0  0  0  0  0  0  0  0  0  0
    1.7958   -0.7226   -0.4016 C   0  0  0  0  0  0  0  0  0  0  0  0
    2.4193   -0.7554    0.6537 O   0  0  0  0  0  0  0  0  0  0  0  0
    2.4022   -1.1956   -1.5511 N   0  0  0  0  0  0  0  0  0  0  0  0
    1.7410   -1.4357   -2.2887 H   0  0  0  0  0  0  0  0  0  0  0  0
    3.6539   -1.9413   -1.5147 C   0  0  0  0  0  0  0  0  0  0  0  0
    3.5329   -2.8627   -0.9358 H   0  0  0  0  0  0  0  0  0  0  0  0
    3.9631   -2.2060   -2.5304 H   0  0  0  0  0  0  0  0  0  0  0  0
    4.4482   -1.3401   -1.0600 H   0  0  0  0  0  0  0  0  0  0  0  0
  1  2  1  0  0  0  0
  2  3  1  0  0  0  0
  2  4  1  0  0  0  0
  2  5  1  0  0  0  0
  5  6  2  0  0  0  0
  5  7  1  0  0  0  0
  7  8  1  0  0  0  0
  7 17  1  0  0  0  0
  8  9  1  0  0  0  0
  8 10  1  0  0  0  0
  8 11  1  0  0  0  0
 11 12  1  0  0  0  0
 11 13  1  0  0  0  0
 11 14  1  0  0  0  0
 14 15  1  0  0  0  0
 14 16  1  0  0  0  0
 14 17  1  0  0  0  0
 17 18  1  0  0  0  0
 17 19  1  0  0  0  0
 19 20  2  0  0  0  0
 19 21  1  0  0  0  0
 21 22  1  0  0  0  0
 21 23  1  0  0  0  0
 23 24  1  0  0  0  0
 23 25  1  0  0  0  0
 23 26  1  0  0  0  0
M  END
$$$$

  -OEChem-01062216093D

 26 26  0     1  0  0  0  0  0999 V2000
   -2.0629   -3.8136   -1.0851 H   0  0  0  0  0  0  0  0  0  0  0  0
   -2.1582   -2.8115   -0.6571 C   0  0  0  0  0  0  0  0  0  0  0  0
   -2.2922   -2.9099    0.4227 H   0  0  0  0  0  0  0  0  0  0  0  0
   -3.0404   -2.3337   -1.0897 H   0  0  0  0  0  0  0  0  0  0  0  0
   -0.9081   -1.9903   -0.9607 C   0  0  0  0  0  0  0  0  0  0  0  0
   -0.0132   -2.5586   -1.5690 O   0  0  0  0  0  0  0  0  0  0  0  0
   -0.8409   -0.6056   -0.7707 N   0  0  0  0  0  0  0  0  0  0  0  0
   -1.8955   -0.0220    0.0635 C   0  0  0  0  0  0  0  0  0  0  0  0
   -2.1056   -0.6476    0.9380 H   0  0  0  0  0  0  0  0  0  0  0  0
   -2.8233    0.1286   -0.4986 H   0  0  0  0  0  0  0  0  0  0  0  0
   -1.3259    1.2985    0.5324 C   0  0  0  0  0  0  0  0  0  0  0  0
   -1.7656    1.6214    1.4812 H   0  0  0  0  0  0  0  0  0  0  0  0
   -1.5113    2.0722   -0.2200 H   0  0  0  0  0  0  0  0  0  0  0  0
    0.1664    1.0409    0.6541 C   0  0  0  0  0  0  0  0  0  0  0  0
    0.3843    0.5584    1.6131 H   0  0  0  0  0  0  0  0  0  0  0  0
    0.7553    1.9610    0.5847 H   0  0  0  0  0  0  0  0  0  0  0  0
    0.4492    0.0860   -0.5068 C   0  0  1  0  0  0  0  0  0  0  0  0
    0.5967    0.7260   -1.3819 H   0  0  0  0  0  0  0  0  0  0  0  0
    1.7812   -0.7025   -0.4174 C   0  0  0  0  0  0  0  0  0  0  0  0
    2.2544   -0.9848    0.6781 O   0  0  0  0  0  0  0  0  0  0  0  0
    2.5404   -0.9139   -1.5547 N   0  0  0  0  0  0  0  0  0  0  0  0
    2.0136   -0.9044   -2.4242 H   0  0  0  0  0  0  0  0  0  0  0  0
    3.7766   -1.6855   -1.5257 C   0  0  0  0  0  0  0  0  0  0  0  0
    3.5791   -2.7107   -1.1953 H   0  0  0  0  0  0  0  0  0  0  0  0
    4.2224   -1.7210   -2.5242 H   0  0  0  0  0  0  0  0  0  0  0  0
    4.4998   -1.2276   -0.8427 H   0  0  0  0  0  0  0  0  0  0  0  0
  1  2  1  0  0  0  0
  2  3  1  0  0  0  0
  2  4  1  0  0  0  0
  2  5  1  0  0  0  0
  5  6  2  0  0  0  0
  5  7  1  0  0  0  0
  7  8  1  0  0  0  0
  7 17  1  0  0  0  0
  8  9  1  0  0  0  0
  8 10  1  0  0  0  0
  8 11  1  0  0  0  0
 11 12  1  0  0  0  0
 11 13  1  0  0  0  0
 11 14  1  0  0  0  0
 14 15  1  0  0  0  0
 14 16  1  0  0  0  0
 14 17  1  0  0  0  0
 17 18  1  0  0  0  0
 17 19  1  0  0  0  0
 19 20  2  0  0  0  0
 19 21  1  0  0  0  0
 21 22  1  0  0  0  0
 21 23  1  0  0  0  0
 23 24  1  0  0  0  0
 23 25  1  0  0  0  0
 23 26  1  0  0  0  0
M  END
$$$$

  -OEChem-01062216093D

 26 26  0     1  0  0  0  0  0999 V2000
   -2.0151   -3.8229   -1.0818 H   0  0  0  0  0  0  0  0  0  0  0  0
   -2.1143   -2.8264   -0.6419 C   0  0  0  0  0  0  0  0  0  0  0  0
   -2.2113   -2.9361    0.4408 H   0  0  0  0  0  0  0  0  0  0  0  0
   -3.0186   -2.3618   -1.0422 H   0  0  0  0  0  0  0  0  0  0  0  0
   -0.8889   -1.9807   -0.9773 C   0  0  0  0  0  0  0  0  0  0  0  0
   -0.0036   -2.5271   -1.6196 O   0  0  0  0  0  0  0  0  0  0  0  0
   -0.8417   -0.5942   -0.7923 N   0  0  0  0  0  0  0  0  0  0  0  0
   -1.8939   -0.0247    0.0544 C   0  0  0  0  0  0  0  0  0  0  0  0
   -2.0932   -0.6583    0.9256 H   0  0  0  0  0  0  0  0  0  0  0  0
   -2.8268    0.1228   -0.4994 H   0  0  0  0  0  0  0  0  0  0  0  0
   -1.3305    1.2965    0.5303 C   0  0  0  0  0  0  0  0  0  0  0  0
   -1.7676    1.6093    1.4838 H   0  0  0  0  0  0  0  0  0  0  0  0
   -1.5249    2.0744   -0.2154 H   0  0  0  0  0  0  0  0  0  0  0  0
    0.1640    1.0468    0.6421 C   0  0  0  0  0  0  0  0  0  0  0  0
    0.3916    0.5571    1.5952 H   0  0  0  0  0  0  0  0  0  0  0  0
    0.7469    1.9710    0.5765 H   0  0  0  0  0  0  0  0  0  0  0  0
    0.4438    0.1031   -0.5274 C   0  0  1  0  0  0  0  0  0  0  0  0
    0.5877    0.7476   -1.3996 H   0  0  0  0  0  0  0  0  0  0  0  0
    1.7717   -0.6899   -0.4343 C   0  0  0  0  0  0  0  0  0  0  0  0
    2.1042   -1.1931    0.6334 O   0  0  0  0  0  0  0  0  0  0  0  0
    2.6833   -0.6509   -1.4748 N   0  0  0  0  0  0  0  0  0  0  0  0
    2.3038   -0.3975   -2.3822 H   0  0  0  0  0  0  0  0  0  0  0  0
    3.9273   -1.4099   -1.4447 C   0  0  0  0  0  0  0  0  0  0  0  0
    3.7187   -2.4819   -1.3630 H   0  0  0  0  0  0  0  0  0  0  0  0
    4.4981   -1.2356   -2.3616 H   0  0  0  0  0  0  0  0  0  0  0  0
    4.5441   -1.1046   -0.5928 H   0  0  0  0  0  0  0  0  0  0  0  0
  1  2  1  0  0  0  0
  2  3  1  0  0  0  0
  2  4  1  0  0  0  0
  2  5  1  0  0  0  0
  5  6  2  0  0  0  0
  5  7  1  0  0  0  0
  7  8  1  0  0  0  0
  7 17  1  0  0  0  0
  8  9  1  0  0  0  0
  8 10  1  0  0  0  0
  8 11  1  0  0  0  0
 11 12  1  0  0  0  0
 11 13  1  0  0  0  0
 11 14  1  0  0  0  0
 14 15  1  0  0  0  0
 14 16  1  0  0  0  0
 14 17  1  0  0  0  0
 17 18  1  0  0  0  0
 17 19  1  0  0  0  0
 19 20  2  0  0  0  0
 19 21  1  0  0  0  0
 21 22  1  0  0  0  0
 21 23  1  0  0  0  0
 23 24  1  0  0  0  0
 23 25  1  0  0  0  0
 23 26  1  0  0  0  0
M  END
$$$$

  -OEChem-01062216093D

 26 26  0     1  0  0  0  0  0999 V2000
   -1.9830   -3.8339   -1.0580 H   0  0  0  0  0  0  0  0  0  0  0  0
   -2.0820   -2.8383   -0.6163 C   0  0  0  0  0  0  0  0  0  0  0  0
   -2.1276   -2.9465    0.4699 H   0  0  0  0  0  0  0  0  0  0  0  0
   -3.0118   -2.3922   -0.9768 H   0  0  0  0  0  0  0  0  0  0  0  0
   -0.8894   -1.9706   -1.0081 C   0  0  0  0  0  0  0  0  0  0  0  0
   -0.0324   -2.4945   -1.7059 O   0  0  0  0  0  0  0  0  0  0  0  0
   -0.8503   -0.5840   -0.8220 N   0  0  0  0  0  0  0  0  0  0  0  0
   -1.8952   -0.0213    0.0385 C   0  0  0  0  0  0  0  0  0  0  0  0
   -2.0907   -0.6628    0.9046 H   0  0  0  0  0  0  0  0  0  0  0  0
   -2.8313    0.1342   -0.5079 H   0  0  0  0  0  0  0  0  0  0  0  0
   -1.3257    1.2931    0.5260 C   0  0  0  0  0  0  0  0  0  0  0  0
   -1.7569    1.5974    1.4848 H   0  0  0  0  0  0  0  0  0  0  0  0
   -1.5220    2.0791   -0.2108 H   0  0  0  0  0  0  0  0  0  0  0  0
    0.1686    1.0372    0.6269 C   0  0  0  0  0  0  0  0  0  0  0  0
    0.4012    0.5330    1.5714 H   0  0  0  0  0  0  0  0  0  0  0  0
    0.7544    1.9600    0.5694 H   0  0  0  0  0  0  0  0  0  0  0  0
    0.4374    0.1069   -0.5539 C   0  0  1  0  0  0  0  0  0  0  0  0
    0.5812    0.7555   -1.4230 H   0  0  0  0  0  0  0  0  0  0  0  0
    1.7606   -0.6924   -0.4597 C   0  0  0  0  0  0  0  0  0  0  0  0
    1.9771   -1.3812    0.5317 O   0  0  0  0  0  0  0  0  0  0  0  0
    2.8028   -0.4270   -1.3313 N   0  0  0  0  0  0  0  0  0  0  0  0
    2.5590    0.0450   -2.1966 H   0  0  0  0  0  0  0  0  0  0  0  0
    4.0750   -1.1358   -1.2675 C   0  0  0  0  0  0  0  0  0  0  0  0
    3.9214   -2.2105   -1.4114 H   0  0  0  0  0  0  0  0  0  0  0  0
    4.7490   -0.7731   -2.0493 H   0  0  0  0  0  0  0  0  0  0  0  0
    4.5564   -0.9750   -0.2971 H   0  0  0  0  0  0  0  0  0  0  0  0
  1  2  1  0  0  0  0
  2  3  1  0  0  0  0
  2  4  1  0  0  0  0
  2  5  1  0  0  0  0
  5  6  2  0  0  0  0
  5  7  1  0  0  0  0
  7  8  1  0  0  0  0
  7 17  1  0  0  0  0
  8  9  1  0  0  0  0
  8 10  1  0  0  0  0
  8 11  1  0  0  0  0
 11 12  1  0  0  0  0
 11 13  1  0  0  0  0
 11 14  1  0  0  0  0
 14 15  1  0  0  0  0
 14 16  1  0  0  0  0
 14 17  1  0  0  0  0
 17 18  1  0  0  0  0
 17 19  1  0  0  0  0
 19 20  2  0  0  0  0
 19 21  1  0  0  0  0
 21 22  1  0  0  0  0
 21 23  1  0  0  0  0
 23 24  1  0  0  0  0
 23 25  1  0  0  0  0
 23 26  1  0  0  0  0
M  END
$$$$

  -OEChem-01062216093D

 26 26  0     1  0  0  0  0  0999 V2000
   -1.9589   -3.8461   -1.0295 H   0  0  0  0  0  0  0  0  0  0  0  0
   -2.0569   -2.8488   -0.5914 C   0  0  0  0  0  0  0  0  0  0  0  0
   -2.0580   -2.9496    0.4964 H   0  0  0  0  0  0  0  0  0  0  0  0
   -3.0068   -2.4192   -0.9178 H   0  0  0  0  0  0  0  0  0  0  0  0
   -0.8938   -1.9664   -1.0346 C   0  0  0  0  0  0  0  0  0  0  0  0
   -0.0708   -2.4718   -1.7853 O   0  0  0  0  0  0  0  0  0  0  0  0
   -0.8549   -0.5804   -0.8467 N   0  0  0  0  0  0  0  0  0  0  0  0
   -1.8926   -0.0181    0.0229 C   0  0  0  0  0  0  0  0  0  0  0  0
   -2.0877   -0.6626    0.8866 H   0  0  0  0  0  0  0  0  0  0  0  0
   -2.8306    0.1448   -0.5184 H   0  0  0  0  0  0  0  0  0  0  0  0
   -1.3146    1.2905    0.5164 C   0  0  0  0  0  0  0  0  0  0  0  0
   -1.7402    1.5903    1.4791 H   0  0  0  0  0  0  0  0  0  0  0  0
   -1.5097    2.0827   -0.2141 H   0  0  0  0  0  0  0  0  0  0  0  0
    0.1784    1.0258    0.6088 C   0  0  0  0  0  0  0  0  0  0  0  0
    0.4138    0.5126    1.5478 H   0  0  0  0  0  0  0  0  0  0  0  0
    0.7682    1.9463    0.5548 H   0  0  0  0  0  0  0  0  0  0  0  0
    0.4371    0.1023   -0.5785 C   0  0  1  0  0  0  0  0  0  0  0  0
    0.5812    0.7506   -1.4478 H   0  0  0  0  0  0  0  0  0  0  0  0
    1.7594   -0.6983   -0.4848 C   0  0  0  0  0  0  0  0  0  0  0  0
    1.8945   -1.5360    0.4009 O   0  0  0  0  0  0  0  0  0  0  0  0
    2.8932   -0.2372   -1.1321 N   0  0  0  0  0  0  0  0  0  0  0  0
    2.7511    0.4180   -1.8944 H   0  0  0  0  0  0  0  0  0  0  0  0
    4.1901   -0.8925   -1.0129 C   0  0  0  0  0  0  0  0  0  0  0  0
    4.1255   -1.9327   -1.3492 H   0  0  0  0  0  0  0  0  0  0  0  0
    4.9331   -0.3748   -1.6270 H   0  0  0  0  0  0  0  0  0  0  0  0
    4.5329   -0.8785    0.0270 H   0  0  0  0  0  0  0  0  0  0  0  0
  1  2  1  0  0  0  0
  2  3  1  0  0  0  0
  2  4  1  0  0  0  0
  2  5  1  0  0  0  0
  5  6  2  0  0  0  0
  5  7  1  0  0  0  0
  7  8  1  0  0  0  0
  7 17  1  0  0  0  0
  8  9  1  0  0  0  0
  8 10  1  0  0  0  0
  8 11  1  0  0  0  0
 11 12  1  0  0  0  0
 11 13  1  0  0  0  0
 11 14  1  0  0  0  0
 14 15  1  0  0  0  0
 14 16  1  0  0  0  0
 14 17  1  0  0  0  0
 17 18  1  0  0  0  0
 17 19  1  0  0  0  0
 19 20  2  0  0  0  0
 19 21  1  0  0  0  0
 21 22  1  0  0  0  0
 21 23  1  0  0  0  0
 23 24  1  0  0  0  0
 23 25  1  0  0  0  0
 23 26  1  0  0  0  0
M  END
$$$$

  -OEChem-01062216093D

 26 26  0     1  0  0  0  0  0999 V2000
   -1.9482   -3.8527   -1.0042 H   0  0  0  0  0  0  0  0  0  0  0  0
   -2.0360   -2.8555   -0.5635 C   0  0  0  0  0  0  0  0  0  0  0  0
   -1.9835   -2.9539    0.5232 H   0  0  0  0  0  0  0  0  0  0  0  0
   -3.0046   -2.4364   -0.8455 H   0  0  0  0  0  0  0  0  0  0  0  0
   -0.9040   -1.9624   -1.0623 C   0  0  0  0  0  0  0  0  0  0  0  0
   -0.1266   -2.4512   -1.8705 O   0  0  0  0  0  0  0  0  0  0  0  0
   -0.8575   -0.5774   -0.8719 N   0  0  0  0  0  0  0  0  0  0  0  0
   -1.8840   -0.0137    0.0101 C   0  0  0  0  0  0  0  0  0  0  0  0
   -2.0753   -0.6604    0.8730 H   0  0  0  0  0  0  0  0  0  0  0  0
   -2.8260    0.1560   -0.5221 H   0  0  0  0  0  0  0  0  0  0  0  0
   -1.2960    1.2892    0.5068 C   0  0  0  0  0  0  0  0  0  0  0  0
   -1.7130    1.5856    1.4744 H   0  0  0  0  0  0  0  0  0  0  0  0
   -1.4920    2.0865   -0.2179 H   0  0  0  0  0  0  0  0  0  0  0  0
    0.1952    1.0133    0.5865 C   0  0  0  0  0  0  0  0  0  0  0  0
    0.4342    0.4923    1.5202 H   0  0  0  0  0  0  0  0  0  0  0  0
    0.7901    1.9306    0.5345 H   0  0  0  0  0  0  0  0  0  0  0  0
    0.4414    0.0950   -0.6077 C   0  0  1  0  0  0  0  0  0  0  0  0
    0.5853    0.7429   -1.4773 H   0  0  0  0  0  0  0  0  0  0  0  0
    1.7659   -0.7040   -0.5177 C   0  0  0  0  0  0  0  0  0  0  0  0
    1.8443   -1.6676    0.2368 O   0  0  0  0  0  0  0  0  0  0  0  0
    2.9504   -0.0939   -0.8966 N   0  0  0  0  0  0  0  0  0  0  0  0
    2.8809    0.7088   -1.5139 H   0  0  0  0  0  0  0  0  0  0  0  0
    4.2593   -0.7031   -0.6901 C   0  0  0  0  0  0  0  0  0  0  0  0
    4.3110   -1.6770   -1.1885 H   0  0  0  0  0  0  0  0  0  0  0  0
    5.0444   -0.0614   -1.1013 H   0  0  0  0  0  0  0  0  0  0  0  0
    4.4533   -0.8428    0.3786 H   0  0  0  0  0  0  0  0  0  0  0  0
  1  2  1  0  0  0  0
  2  3  1  0  0  0  0
  2  4  1  0  0  0  0
  2  5  1  0  0  0  0
  5  6  2  0  0  0  0
  5  7  1  0  0  0  0
  7  8  1  0  0  0  0
  7 17  1  0  0  0  0
  8  9  1  0  0  0  0
  8 10  1  0  0  0  0
  8 11  1  0  0  0  0
 11 12  1  0  0  0  0
 11 13  1  0  0  0  0
 11 14  1  0  0  0  0
 14 15  1  0  0  0  0
 14 16  1  0  0  0  0
 14 17  1  0  0  0  0
 17 18  1  0  0  0  0
 17 19  1  0  0  0  0
 19 20  2  0  0  0  0
 19 21  1  0  0  0  0
 21 22  1  0  0  0  0
 21 23  1  0  0  0  0
 23 24  1  0  0  0  0
 23 25  1  0  0  0  0
 23 26  1  0  0  0  0
M  END
$$$$

  -OEChem-01062216093D

 26 26  0     1  0  0  0  0  0999 V2000
   -1.9357   -3.8617   -0.9674 H   0  0  0  0  0  0  0  0  0  0  0  0
   -2.0154   -2.8622   -0.5303 C   0  0  0  0  0  0  0  0  0  0  0  0
   -1.9124   -2.9518    0.5536 H   0  0  0  0  0  0  0  0  0  0  0  0
   -3.0007   -2.4563   -0.7707 H   0  0  0  0  0  0  0  0  0  0  0  0
   -0.9174   -1.9607   -1.0871 C   0  0  0  0  0  0  0  0  0  0  0  0
   -0.1968   -2.4330   -1.9555 O   0  0  0  0  0  0  0  0  0  0  0  0
   -0.8560   -0.5777   -0.8903 N   0  0  0  0  0  0  0  0  0  0  0  0
   -1.8731   -0.0081   -0.0012 C   0  0  0  0  0  0  0  0  0  0  0  0
   -2.0668   -0.6552    0.8607 H   0  0  0  0  0  0  0  0  0  0  0  0
   -2.8158    0.1714   -0.5289 H   0  0  0  0  0  0  0  0  0  0  0  0
   -1.2729    1.2880    0.4970 C   0  0  0  0  0  0  0  0  0  0  0  0
   -1.6826    1.5844    1.4677 H   0  0  0  0  0  0  0  0  0  0  0  0
   -1.4660    2.0894   -0.2239 H   0  0  0  0  0  0  0  0  0  0  0  0
    0.2157    0.9993    0.5680 C   0  0  0  0  0  0  0  0  0  0  0  0
    0.4552    0.4720    1.4981 H   0  0  0  0  0  0  0  0  0  0  0  0
    0.8167    1.9126    0.5177 H   0  0  0  0  0  0  0  0  0  0  0  0
    0.4511    0.0830   -0.6305 C   0  0  1  0  0  0  0  0  0  0  0  0
    0.5935    0.7304   -1.5006 H   0  0  0  0  0  0  0  0  0  0  0  0
    1.7843   -0.7058   -0.5464 C   0  0  0  0  0  0  0  0  0  0  0  0
    1.8356   -1.7842    0.0340 O   0  0  0  0  0  0  0  0  0  0  0  0
    2.9714    0.0052   -0.6253 N   0  0  0  0  0  0  0  0  0  0  0  0
    2.9350    0.9236   -1.0561 H   0  0  0  0  0  0  0  0  0  0  0  0
    4.2766   -0.5781   -0.3351 C   0  0  0  0  0  0  0  0  0  0  0  0
    4.4593   -1.4457   -0.9779 H   0  0  0  0  0  0  0  0  0  0  0  0
    5.0672    0.1571   -0.5127 H   0  0  0  0  0  0  0  0  0  0  0  0
    4.3306   -0.8967    0.7112 H   0  0  0  0  0  0  0  0  0  0  0  0
  1  2  1  0  0  0  0
  2  3  1  0  0  0  0
  2  4  1  0  0  0  0
  2  5  1  0  0  0  0
  5  6  2  0  0  0  0
  5  7  1  0  0  0  0
  7  8  1  0  0  0  0
  7 17  1  0  0  0  0
  8  9  1  0  0  0  0
  8 10  1  0  0  0  0
  8 11  1  0  0  0  0
 11 12  1  0  0  0  0
 11 13  1  0  0  0  0
 11 14  1  0  0  0  0
 14 15  1  0  0  0  0
 14 16  1  0  0  0  0
 14 17  1  0  0  0  0
 17 18  1  0  0  0  0
 17 19  1  0  0  0  0
 19 20  2  0  0  0  0
 19 21  1  0  0  0  0
 21 22  1  0  0  0  0
 21 23  1  0  0  0  0
 23 24  1  0  0  0  0
 23 25  1  0  0  0  0
 23 26  1  0  0  0  0
M  END
$$$$

  -OEChem-01062216093D

 26 26  0     1  0  0  0  0  0999 V2000
   -0.3868   -3.7051   -1.4413 H   0  0  0  0  0  0  0  0  0  0  0  0
   -1.0901   -2.8803   -1.5812 C   0  0  0  0  0  0  0  0  0  0  0  0
   -2.0591   -3.2873   -1.8801 H   0  0  0  0  0  0  0  0  0  0  0  0
   -0.7243   -2.2335   -2.3820 H   0  0  0  0  0  0  0  0  0  0  0  0
   -1.2365   -2.0988   -0.2823 C   0  0  0  0  0  0  0  0  0  0  0  0
   -1.8652   -2.6786    0.5967 O   0  0  0  0  0  0  0  0  0  0  0  0
   -1.1005   -0.7015   -0.3050 N   0  0  0  0  0  0  0  0  0  0  0  0
   -1.8205   -0.0210    0.7905 C   0  0  0  0  0  0  0  0  0  0  0  0
   -1.8084   -0.5934    1.7251 H   0  0  0  0  0  0  0  0  0  0  0  0
   -2.8630    0.1757    0.5190 H   0  0  0  0  0  0  0  0  0  0  0  0
   -1.0671    1.2631    1.0328 C   0  0  0  0  0  0  0  0  0  0  0  0
   -1.1983    1.6258    2.0572 H   0  0  0  0  0  0  0  0  0  0  0  0
   -1.4201    2.0353    0.3413 H   0  0  0  0  0  0  0  0  0  0  0  0
    0.3784    0.9134    0.7310 C   0  0  0  0  0  0  0  0  0  0  0  0
    0.8407    0.4222    1.5942 H   0  0  0  0  0  0  0  0  0  0  0  0
    0.9669    1.7980    0.4679 H   0  0  0  0  0  0  0  0  0  0  0  0
    0.2457   -0.0723   -0.4262 C   0  0  1  0  0  0  0  0  0  0  0  0
    0.1016    0.5665   -1.3034 H   0  0  0  0  0  0  0  0  0  0  0  0
    1.5514   -0.7987   -0.8463 C   0  0  0  0  0  0  0  0  0  0  0  0
    1.6129   -1.9947   -1.0829 O   0  0  0  0  0  0  0  0  0  0  0  0
    2.7292   -0.0731   -0.9139 N   0  0  0  0  0  0  0  0  0  0  0  0
    2.6861    0.9175   -0.6950 H   0  0  0  0  0  0  0  0  0  0  0  0
    4.0195   -0.6583   -1.2625 C   0  0  0  0  0  0  0  0  0  0  0  0
    4.0000   -1.0470   -2.2860 H   0  0  0  0  0  0  0  0  0  0  0  0
    4.8080    0.0972   -1.1943 H   0  0  0  0  0  0  0  0  0  0  0  0
    4.2677   -1.4772   -0.5791 H   0  0  0  0  0  0  0  0  0  0  0  0
  1  2  1  0  0  0  0
  2  3  1  0  0  0  0
  2  4  1  0  0  0  0
  2  5  1  0  0  0  0
  5  6  2  0  0  0  0
  5  7  1  0  0  0  0
  7  8  1  0  0  0  0
  7 17  1  0  0  0  0
  8  9  1  0  0  0  0
  8 10  1  0  0  0  0
  8 11  1  0  0  0  0
 11 12  1  0  0  0  0
 11 13  1  0  0  0  0
 11 14  1  0  0  0  0
 14 15  1  0  0  0  0
 14 16  1  0  0  0  0
 14 17  1  0  0  0  0
 17 18  1  0  0  0  0
 17 19  1  0  0  0  0
 19 20  2  0  0  0  0
 19 21  1  0  0  0  0
 21 22  1  0  0  0  0
 21 23  1  0  0  0  0
 23 24  1  0  0  0  0
 23 25  1  0  0  0  0
 23 26  1  0  0  0  0
M  END
$$$$

  -OEChem-01062216093D

 26 26  0     1  0  0  0  0  0999 V2000
   -0.3909   -3.6798   -1.5158 H   0  0  0  0  0  0  0  0  0  0  0  0
   -1.1355   -2.8825   -1.5826 C   0  0  0  0  0  0  0  0  0  0  0  0
   -2.1140   -3.3255   -1.7835 H   0  0  0  0  0  0  0  0  0  0  0  0
   -0.8755   -2.2234   -2.4145 H   0  0  0  0  0  0  0  0  0  0  0  0
   -1.1782   -2.1029   -0.2760 C   0  0  0  0  0  0  0  0  0  0  0  0
   -1.6709   -2.7025    0.6730 O   0  0  0  0  0  0  0  0  0  0  0  0
   -1.0859   -0.7034   -0.3121 N   0  0  0  0  0  0  0  0  0  0  0  0
   -1.8314   -0.0268    0.7687 C   0  0  0  0  0  0  0  0  0  0  0  0
   -1.8308   -0.5904    1.7084 H   0  0  0  0  0  0  0  0  0  0  0  0
   -2.8711    0.1558    0.4778 H   0  0  0  0  0  0  0  0  0  0  0  0
   -1.0979    1.2685    1.0145 C   0  0  0  0  0  0  0  0  0  0  0  0
   -1.2483    1.6356    2.0347 H   0  0  0  0  0  0  0  0  0  0  0  0
   -1.4497    2.0325    0.3133 H   0  0  0  0  0  0  0  0  0  0  0  0
    0.3561    0.9346    0.7362 C   0  0  0  0  0  0  0  0  0  0  0  0
    0.8096    0.4556    1.6108 H   0  0  0  0  0  0  0  0  0  0  0  0
    0.9370    1.8249    0.4753 H   0  0  0  0  0  0  0  0  0  0  0  0
    0.2539   -0.0600   -0.4178 C   0  0  1  0  0  0  0  0  0  0  0  0
    0.1259    0.5729   -1.3017 H   0  0  0  0  0  0  0  0  0  0  0  0
    1.5624   -0.7978   -0.8101 C   0  0  0  0  0  0  0  0  0  0  0  0
    1.5734   -1.8667   -1.4000 O   0  0  0  0  0  0  0  0  0  0  0  0
    2.7828   -0.1863   -0.5762 N   0  0  0  0  0  0  0  0  0  0  0  0
    2.7781    0.7019   -0.0847 H   0  0  0  0  0  0  0  0  0  0  0  0
    4.0655   -0.7804   -0.9375 C   0  0  0  0  0  0  0  0  0  0  0  0
    4.1146   -0.9617   -2.0164 H   0  0  0  0  0  0  0  0  0  0  0  0
    4.8840   -0.1077   -0.6639 H   0  0  0  0  0  0  0  0  0  0  0  0
    4.2090   -1.7312   -0.4133 H   0  0  0  0  0  0  0  0  0  0  0  0
  1  2  1  0  0  0  0
  2  3  1  0  0  0  0
  2  4  1  0  0  0  0
  2  5  1  0  0  0  0
  5  6  2  0  0  0  0
  5  7  1  0  0  0  0
  7  8  1  0  0  0  0
  7 17  1  0  0  0  0
  8  9  1  0  0  0  0
  8 10  1  0  0  0  0
  8 11  1  0  0  0  0
 11 12  1  0  0  0  0
 11 13  1  0  0  0  0
 11 14  1  0  0  0  0
 14 15  1  0  0  0  0
 14 16  1  0  0  0  0
 14 17  1  0  0  0  0
 17 18  1  0  0  0  0
 17 19  1  0  0  0  0
 19 20  2  0  0  0  0
 19 21  1  0  0  0  0
 21 22  1  0  0  0  0
 21 23  1  0  0  0  0
 23 24  1  0  0  0  0
 23 25  1  0  0  0  0
 23 26  1  0  0  0  0
M  END
$$$$

  -OEChem-01062216093D

 26 26  0     1  0  0  0  0  0999 V2000
   -0.3148   -3.6305   -1.5335 H   0  0  0  0  0  0  0  0  0  0  0  0
   -1.1171   -2.8890   -1.5636 C   0  0  0  0  0  0  0  0  0  0  0  0
   -2.0727   -3.4020   -1.6967 H   0  0  0  0  0  0  0  0  0  0  0  0
   -0.9556   -2.2277   -2.4185 H   0  0  0  0  0  0  0  0  0  0  0  0
   -1.1338   -2.0913   -0.2683 C   0  0  0  0  0  0  0  0  0  0  0  0
   -1.5129   -2.6979    0.7267 O   0  0  0  0  0  0  0  0  0  0  0  0
   -1.0872   -0.6911   -0.3215 N   0  0  0  0  0  0  0  0  0  0  0  0
   -1.8466   -0.0191    0.7522 C   0  0  0  0  0  0  0  0  0  0  0  0
   -1.8519   -0.5781    1.6943 H   0  0  0  0  0  0  0  0  0  0  0  0
   -2.8848    0.1542    0.4510 H   0  0  0  0  0  0  0  0  0  0  0  0
   -1.1259    1.2842    0.9964 C   0  0  0  0  0  0  0  0  0  0  0  0
   -1.2857    1.6547    2.0139 H   0  0  0  0  0  0  0  0  0  0  0  0
   -1.4811    2.0416    0.2898 H   0  0  0  0  0  0  0  0  0  0  0  0
    0.3329    0.9644    0.7268 C   0  0  0  0  0  0  0  0  0  0  0  0
    0.7840    0.4945    1.6075 H   0  0  0  0  0  0  0  0  0  0  0  0
    0.9079    1.8579    0.4629 H   0  0  0  0  0  0  0  0  0  0  0  0
    0.2449   -0.0356   -0.4239 C   0  0  1  0  0  0  0  0  0  0  0  0
    0.1268    0.5932   -1.3124 H   0  0  0  0  0  0  0  0  0  0  0  0
    1.5434   -0.7973   -0.7976 C   0  0  0  0  0  0  0  0  0  0  0  0
    1.5519   -1.6871   -1.6347 O   0  0  0  0  0  0  0  0  0  0  0  0
    2.7633   -0.3675   -0.3032 N   0  0  0  0  0  0  0  0  0  0  0  0
    2.7534    0.3691    0.3955 H   0  0  0  0  0  0  0  0  0  0  0  0
    4.0352   -0.9979   -0.6385 C   0  0  0  0  0  0  0  0  0  0  0  0
    4.2193   -0.9417   -1.7166 H   0  0  0  0  0  0  0  0  0  0  0  0
    4.8561   -0.4913   -0.1221 H   0  0  0  0  0  0  0  0  0  0  0  0
    4.0331   -2.0502   -0.3353 H   0  0  0  0  0  0  0  0  0  0  0  0
  1  2  1  0  0  0  0
  2  3  1  0  0  0  0
  2  4  1  0  0  0  0
  2  5  1  0  0  0  0
  5  6  2  0  0  0  0
  5  7  1  0  0  0  0
  7  8  1  0  0  0  0
  7 17  1  0  0  0  0
  8  9  1  0  0  0  0
  8 10  1  0  0  0  0
  8 11  1  0  0  0  0
 11 12  1  0  0  0  0
 11 13  1  0  0  0  0
 11 14  1  0  0  0  0
 14 15  1  0  0  0  0
 14 16  1  0  0  0  0
 14 17  1  0  0  0  0
 17 18  1  0  0  0  0
 17 19  1  0  0  0  0
 19 20  2  0  0  0  0
 19 21  1  0  0  0  0
 21 22  1  0  0  0  0
 21 23  1  0  0  0  0
 23 24  1  0  0  0  0
 23 25  1  0  0  0  0
 23 26  1  0  0  0  0
M  END
$$$$

  -OEChem-01062216093D

 26 26  0     1  0  0  0  0  0999 V2000
   -0.6657   -3.8080   -1.5148 H   0  0  0  0  0  0  0  0  0  0  0  0
   -1.2483   -2.8838   -1.5542 C   0  0  0  0  0  0  0  0  0  0  0  0
   -2.3111   -3.1296   -1.6066 H   0  0  0  0  0  0  0  0  0  0  0  0
   -0.9663   -2.3334   -2.4552 H   0  0  0  0  0  0  0  0  0  0  0  0
   -0.9725   -2.0424   -0.3202 C   0  0  0  0  0  0  0  0  0  0  0  0
   -0.6866   -2.6018    0.7324 O   0  0  0  0  0  0  0  0  0  0  0  0
   -1.0542   -0.6521   -0.3964 N   0  0  0  0  0  0  0  0  0  0  0  0
   -1.8437   -0.0658    0.7003 C   0  0  0  0  0  0  0  0  0  0  0  0
   -1.8520   -0.6832    1.6055 H   0  0  0  0  0  0  0  0  0  0  0  0
   -2.8820    0.0943    0.3922 H   0  0  0  0  0  0  0  0  0  0  0  0
   -1.1667    1.2479    1.0100 C   0  0  0  0  0  0  0  0  0  0  0  0
   -1.3382    1.5612    2.0445 H   0  0  0  0  0  0  0  0  0  0  0  0
   -1.5477    2.0274    0.3418 H   0  0  0  0  0  0  0  0  0  0  0  0
    0.3026    0.9944    0.7266 C   0  0  0  0  0  0  0  0  0  0  0  0
    0.7641    0.4982    1.5871 H   0  0  0  0  0  0  0  0  0  0  0  0
    0.8498    1.9174    0.5093 H   0  0  0  0  0  0  0  0  0  0  0  0
    0.2533    0.0496   -0.4730 C   0  0  1  0  0  0  0  0  0  0  0  0
    0.1544    0.7031   -1.3458 H   0  0  0  0  0  0  0  0  0  0  0  0
    1.5436   -0.7441   -0.8054 C   0  0  0  0  0  0  0  0  0  0  0  0
    1.5832   -1.4604   -1.7979 O   0  0  0  0  0  0  0  0  0  0  0  0
    2.7096   -0.5455   -0.0864 N   0  0  0  0  0  0  0  0  0  0  0  0
    2.6373   -0.0127    0.7747 H   0  0  0  0  0  0  0  0  0  0  0  0
    3.9433   -1.2754   -0.3538 C   0  0  0  0  0  0  0  0  0  0  0  0
    4.2666   -1.1190   -1.3885 H   0  0  0  0  0  0  0  0  0  0  0  0
    4.7398   -0.9273    0.3108 H   0  0  0  0  0  0  0  0  0  0  0  0
    3.7968   -2.3481   -0.1884 H   0  0  0  0  0  0  0  0  0  0  0  0
  1  2  1  0  0  0  0
  2  3  1  0  0  0  0
  2  4  1  0  0  0  0
  2  5  1  0  0  0  0
  5  6  2  0  0  0  0
  5  7  1  0  0  0  0
  7  8  1  0  0  0  0
  7 17  1  0  0  0  0
  8  9  1  0  0  0  0
  8 10  1  0  0  0  0
  8 11  1  0  0  0  0
 11 12  1  0  0  0  0
 11 13  1  0  0  0  0
 11 14  1  0  0  0  0
 14 15  1  0  0  0  0
 14 16  1  0  0  0  0
 14 17  1  0  0  0  0
 17 18  1  0  0  0  0
 17 19  1  0  0  0  0
 19 20  2  0  0  0  0
 19 21  1  0  0  0  0
 21 22  1  0  0  0  0
 21 23  1  0  0  0  0
 23 24  1  0  0  0  0
 23 25  1  0  0  0  0
 23 26  1  0  0  0  0
M  END
$$$$

  -OEChem-01062216093D

 26 26  0     1  0  0  0  0  0999 V2000
   -1.1372   -3.9397   -1.3368 H   0  0  0  0  0  0  0  0  0  0  0  0
   -1.2928   -2.8794   -1.5530 C   0  0  0  0  0  0  0  0  0  0  0  0
   -2.3435   -2.7184   -1.8045 H   0  0  0  0  0  0  0  0  0  0  0  0
   -0.6760   -2.6005   -2.4110 H   0  0  0  0  0  0  0  0  0  0  0  0
   -0.9146   -2.0359   -0.3484 C   0  0  0  0  0  0  0  0  0  0  0  0
   -0.4807   -2.5788    0.6620 O   0  0  0  0  0  0  0  0  0  0  0  0
   -1.0276   -0.6488   -0.4137 N   0  0  0  0  0  0  0  0  0  0  0  0
   -1.8270   -0.1039    0.6951 C   0  0  0  0  0  0  0  0  0  0  0  0
   -1.8140   -0.7433    1.5853 H   0  0  0  0  0  0  0  0  0  0  0  0
   -2.8704    0.0365    0.3948 H   0  0  0  0  0  0  0  0  0  0  0  0
   -1.1809    1.2202    1.0291 C   0  0  0  0  0  0  0  0  0  0  0  0
   -1.3583    1.5100    2.0694 H   0  0  0  0  0  0  0  0  0  0  0  0
   -1.5807    2.0027    0.3756 H   0  0  0  0  0  0  0  0  0  0  0  0
    0.2936    1.0060    0.7394 C   0  0  0  0  0  0  0  0  0  0  0  0
    0.7659    0.5078    1.5923 H   0  0  0  0  0  0  0  0  0  0  0  0
    0.8205    1.9443    0.5383 H   0  0  0  0  0  0  0  0  0  0  0  0
    0.2629    0.0828   -0.4782 C   0  0  1  0  0  0  0  0  0  0  0  0
    0.1571    0.7489   -1.3409 H   0  0  0  0  0  0  0  0  0  0  0  0
    1.5573   -0.7012   -0.8132 C   0  0  0  0  0  0  0  0  0  0  0  0
    1.6672   -1.2400   -1.9077 O   0  0  0  0  0  0  0  0  0  0  0  0
    2.6234   -0.7462    0.0676 N   0  0  0  0  0  0  0  0  0  0  0  0
    2.4453   -0.4248    1.0140 H   0  0  0  0  0  0  0  0  0  0  0  0
    3.8147   -1.5498   -0.1766 C   0  0  0  0  0  0  0  0  0  0  0  0
    4.3069   -1.2358   -1.1031 H   0  0  0  0  0  0  0  0  0  0  0  0
    4.5250   -1.4315    0.6471 H   0  0  0  0  0  0  0  0  0  0  0  0
    3.5507   -2.6095   -0.2587 H   0  0  0  0  0  0  0  0  0  0  0  0
  1  2  1  0  0  0  0
  2  3  1  0  0  0  0
  2  4  1  0  0  0  0
  2  5  1  0  0  0  0
  5  6  2  0  0  0  0
  5  7  1  0  0  0  0
  7  8  1  0  0  0  0
  7 17  1  0  0  0  0
  8  9  1  0  0  0  0
  8 10  1  0  0  0  0
  8 11  1  0  0  0  0
 11 12  1  0  0  0  0
 11 13  1  0  0  0  0
 11 14  1  0  0  0  0
 14 15  1  0  0  0  0
 14 16  1  0  0  0  0
 14 17  1  0  0  0  0
 17 18  1  0  0  0  0
 17 19  1  0  0  0  0
 19 20  2  0  0  0  0
 19 21  1  0  0  0  0
 21 22  1  0  0  0  0
 21 23  1  0  0  0  0
 23 24  1  0  0  0  0
 23 25  1  0  0  0  0
 23 26  1  0  0  0  0
M  END
$$$$

  -OEChem-01062216093D

 26 26  0     1  0  0  0  0  0999 V2000
   -1.9206   -3.8011   -1.5309 H   0  0  0  0  0  0  0  0  0  0  0  0
   -2.1207   -2.8147   -1.1031 C   0  0  0  0  0  0  0  0  0  0  0  0
   -2.7098   -2.9389   -0.1916 H   0  0  0  0  0  0  0  0  0  0  0  0
   -2.6975   -2.2336   -1.8271 H   0  0  0  0  0  0  0  0  0  0  0  0
   -0.8089   -2.1053   -0.7920 C   0  0  0  0  0  0  0  0  0  0  0  0
    0.1724   -2.8074   -0.6050 O   0  0  0  0  0  0  0  0  0  0  0  0
   -0.7671   -0.7117   -0.6869 N   0  0  0  0  0  0  0  0  0  0  0  0
   -1.7745   -0.2312    0.2652 C   0  0  0  0  0  0  0  0  0  0  0  0
   -1.9044   -0.9296    1.1008 H   0  0  0  0  0  0  0  0  0  0  0  0
   -2.7455   -0.0695   -0.2153 H   0  0  0  0  0  0  0  0  0  0  0  0
   -1.2053    1.0680    0.7828 C   0  0  0  0  0  0  0  0  0  0  0  0
   -1.5712    1.3009    1.7876 H   0  0  0  0  0  0  0  0  0  0  0  0
   -1.4899    1.8862    0.1127 H   0  0  0  0  0  0  0  0  0  0  0  0
    0.3056    0.8848    0.7560 C   0  0  0  0  0  0  0  0  0  0  0  0
    0.6368    0.3463    1.6494 H   0  0  0  0  0  0  0  0  0  0  0  0
    0.8403    1.8386    0.6984 H   0  0  0  0  0  0  0  0  0  0  0  0
    0.5073    0.0328   -0.4932 C   0  0  1  0  0  0  0  0  0  0  0  0
    0.4825    0.7596   -1.3124 H   0  0  0  0  0  0  0  0  0  0  0  0
    1.8983   -0.6107   -0.7199 C   0  0  0  0  0  0  0  0  0  0  0  0
    2.3783   -0.6293   -1.8475 O   0  0  0  0  0  0  0  0  0  0  0  0
    2.6923   -0.9717    0.3553 N   0  0  0  0  0  0  0  0  0  0  0  0
    2.2033   -1.1177    1.2323 H   0  0  0  0  0  0  0  0  0  0  0  0
    3.9863   -1.6193    0.1804 C   0  0  0  0  0  0  0  0  0  0  0  0
    4.6642   -0.9760   -0.3905 H   0  0  0  0  0  0  0  0  0  0  0  0
    4.4428   -1.8204    1.1543 H   0  0  0  0  0  0  0  0  0  0  0  0
    3.8691   -2.5692   -0.3522 H   0  0  0  0  0  0  0  0  0  0  0  0
  1  2  1  0  0  0  0
  2  3  1  0  0  0  0
  2  4  1  0  0  0  0
  2  5  1  0  0  0  0
  5  6  2  0  0  0  0
  5  7  1  0  0  0  0
  7  8  1  0  0  0  0
  7 17  1  0  0  0  0
  8  9  1  0  0  0  0
  8 10  1  0  0  0  0
  8 11  1  0  0  0  0
 11 12  1  0  0  0  0
 11 13  1  0  0  0  0
 11 14  1  0  0  0  0
 14 15  1  0  0  0  0
 14 16  1  0  0  0  0
 14 17  1  0  0  0  0
 17 18  1  0  0  0  0
 17 19  1  0  0  0  0
 19 20  2  0  0  0  0
 19 21  1  0  0  0  0
 21 22  1  0  0  0  0
 21 23  1  0  0  0  0
 23 24  1  0  0  0  0
 23 25  1  0  0  0  0
 23 26  1  0  0  0  0
M  END
$$$$

  -OEChem-01062216093D

 26 26  0     1  0  0  0  0  0999 V2000
   -2.0020   -3.7782   -1.5289 H   0  0  0  0  0  0  0  0  0  0  0  0
   -2.1660   -2.8050   -1.0575 C   0  0  0  0  0  0  0  0  0  0  0  0
   -2.6845   -2.9573   -0.1082 H   0  0  0  0  0  0  0  0  0  0  0  0
   -2.7951   -2.2032   -1.7182 H   0  0  0  0  0  0  0  0  0  0  0  0
   -0.8317   -2.1055   -0.8244 C   0  0  0  0  0  0  0  0  0  0  0  0
    0.1593   -2.8155   -0.7652 O   0  0  0  0  0  0  0  0  0  0  0  0
   -0.7665   -0.7135   -0.7026 N   0  0  0  0  0  0  0  0  0  0  0  0
   -1.7818   -0.2187    0.2350 C   0  0  0  0  0  0  0  0  0  0  0  0
   -1.9348   -0.9156    1.0679 H   0  0  0  0  0  0  0  0  0  0  0  0
   -2.7426   -0.0418   -0.2601 H   0  0  0  0  0  0  0  0  0  0  0  0
   -1.2031    1.0713    0.7647 C   0  0  0  0  0  0  0  0  0  0  0  0
   -1.5828    1.3081    1.7634 H   0  0  0  0  0  0  0  0  0  0  0  0
   -1.4643    1.8944    0.0910 H   0  0  0  0  0  0  0  0  0  0  0  0
    0.3054    0.8677    0.7641 C   0  0  0  0  0  0  0  0  0  0  0  0
    0.6176    0.3228    1.6606 H   0  0  0  0  0  0  0  0  0  0  0  0
    0.8544    1.8138    0.7161 H   0  0  0  0  0  0  0  0  0  0  0  0
    0.5135    0.0155   -0.4820 C   0  0  1  0  0  0  0  0  0  0  0  0
    0.5007    0.7447   -1.2998 H   0  0  0  0  0  0  0  0  0  0  0  0
    1.9095   -0.6233   -0.6879 C   0  0  0  0  0  0  0  0  0  0  0  0
    2.5414   -0.3847   -1.7108 O   0  0  0  0  0  0  0  0  0  0  0  0
    2.5422   -1.2685    0.3605 N   0  0  0  0  0  0  0  0  0  0  0  0
    1.9181   -1.6436    1.0684 H   0  0  0  0  0  0  0  0  0  0  0  0
    3.8436   -1.9054    0.2029 C   0  0  0  0  0  0  0  0  0  0  0  0
    4.5958   -1.1726   -0.1076 H   0  0  0  0  0  0  0  0  0  0  0  0
    4.1649   -2.3459    1.1513 H   0  0  0  0  0  0  0  0  0  0  0  0
    3.7919   -2.6987   -0.5502 H   0  0  0  0  0  0  0  0  0  0  0  0
  1  2  1  0  0  0  0
  2  3  1  0  0  0  0
  2  4  1  0  0  0  0
  2  5  1  0  0  0  0
  5  6  2  0  0  0  0
  5  7  1  0  0  0  0
  7  8  1  0  0  0  0
  7 17  1  0  0  0  0
  8  9  1  0  0  0  0
  8 10  1  0  0  0  0
  8 11  1  0  0  0  0
 11 12  1  0  0  0  0
 11 13  1  0  0  0  0
 11 14  1  0  0  0  0
 14 15  1  0  0  0  0
 14 16  1  0  0  0  0
 14 17  1  0  0  0  0
 17 18  1  0  0  0  0
 17 19  1  0  0  0  0
 19 20  2  0  0  0  0
 19 21  1  0  0  0  0
 21 22  1  0  0  0  0
 21 23  1  0  0  0  0
 23 24  1  0  0  0  0
 23 25  1  0  0  0  0
 23 26  1  0  0  0  0
M  END
$$$$

  -OEChem-01062216093D

 26 26  0     1  0  0  0  0  0999 V2000
   -2.1089   -3.7683   -1.4958 H   0  0  0  0  0  0  0  0  0  0  0  0
   -2.2388   -2.7858   -1.0329 C   0  0  0  0  0  0  0  0  0  0  0  0
   -2.7370   -2.9159   -0.0695 H   0  0  0  0  0  0  0  0  0  0  0  0
   -2.8708   -2.1780   -1.6852 H   0  0  0  0  0  0  0  0  0  0  0  0
   -0.8834   -2.1132   -0.8426 C   0  0  0  0  0  0  0  0  0  0  0  0
    0.0959   -2.8409   -0.8573 O   0  0  0  0  0  0  0  0  0  0  0  0
   -0.7810   -0.7246   -0.7103 N   0  0  0  0  0  0  0  0  0  0  0  0
   -1.7937   -0.2058    0.2185 C   0  0  0  0  0  0  0  0  0  0  0  0
   -1.9686   -0.8972    1.0514 H   0  0  0  0  0  0  0  0  0  0  0  0
   -2.7462   -0.0093   -0.2851 H   0  0  0  0  0  0  0  0  0  0  0  0
   -1.1946    1.0722    0.7534 C   0  0  0  0  0  0  0  0  0  0  0  0
   -1.5792    1.3168    1.7485 H   0  0  0  0  0  0  0  0  0  0  0  0
   -1.4313    1.9011    0.0777 H   0  0  0  0  0  0  0  0  0  0  0  0
    0.3086    0.8370    0.7687 C   0  0  0  0  0  0  0  0  0  0  0  0
    0.6041    0.2849    1.6669 H   0  0  0  0  0  0  0  0  0  0  0  0
    0.8771    1.7718    0.7249 H   0  0  0  0  0  0  0  0  0  0  0  0
    0.5113   -0.0199   -0.4734 C   0  0  1  0  0  0  0  0  0  0  0  0
    0.5108    0.7071   -1.2933 H   0  0  0  0  0  0  0  0  0  0  0  0
    1.9117   -0.6561   -0.6605 C   0  0  0  0  0  0  0  0  0  0  0  0
    2.6853   -0.1740   -1.4804 O   0  0  0  0  0  0  0  0  0  0  0  0
    2.3984   -1.5593    0.2676 N   0  0  0  0  0  0  0  0  0  0  0  0
    1.6732   -2.1310    0.6956 H   0  0  0  0  0  0  0  0  0  0  0  0
    3.7237   -2.1524    0.1423 C   0  0  0  0  0  0  0  0  0  0  0  0
    4.4950   -1.3749    0.1462 H   0  0  0  0  0  0  0  0  0  0  0  0
    3.9143   -2.8288    0.9808 H   0  0  0  0  0  0  0  0  0  0  0  0
    3.8009   -2.7216   -0.7900 H   0  0  0  0  0  0  0  0  0  0  0  0
  1  2  1  0  0  0  0
  2  3  1  0  0  0  0
  2  4  1  0  0  0  0
  2  5  1  0  0  0  0
  5  6  2  0  0  0  0
  5  7  1  0  0  0  0
  7  8  1  0  0  0  0
  7 17  1  0  0  0  0
  8  9  1  0  0  0  0
  8 10  1  0  0  0  0
  8 11  1  0  0  0  0
 11 12  1  0  0  0  0
 11 13  1  0  0  0  0
 11 14  1  0  0  0  0
 14 15  1  0  0  0  0
 14 16  1  0  0  0  0
 14 17  1  0  0  0  0
 17 18  1  0  0  0  0
 17 19  1  0  0  0  0
 19 20  2  0  0  0  0
 19 21  1  0  0  0  0
 21 22  1  0  0  0  0
 21 23  1  0  0  0  0
 23 24  1  0  0  0  0
 23 25  1  0  0  0  0
 23 26  1  0  0  0  0
M  END
$$$$

  -OEChem-01062216093D

 26 26  0     1  0  0  0  0  0999 V2000
   -2.2574   -3.7482   -1.4533 H   0  0  0  0  0  0  0  0  0  0  0  0
   -2.3383   -2.7623   -0.9863 C   0  0  0  0  0  0  0  0  0  0  0  0
   -2.7898   -2.8811    0.0015 H   0  0  0  0  0  0  0  0  0  0  0  0
   -2.9881   -2.1401   -1.6068 H   0  0  0  0  0  0  0  0  0  0  0  0
   -0.9575   -2.1232   -0.8674 C   0  0  0  0  0  0  0  0  0  0  0  0
   -0.0029   -2.8694   -1.0063 O   0  0  0  0  0  0  0  0  0  0  0  0
   -0.8044   -0.7409   -0.7151 N   0  0  0  0  0  0  0  0  0  0  0  0
   -1.8118   -0.1878    0.2012 C   0  0  0  0  0  0  0  0  0  0  0  0
   -2.0106   -0.8687    1.0373 H   0  0  0  0  0  0  0  0  0  0  0  0
   -2.7548    0.0303   -0.3115 H   0  0  0  0  0  0  0  0  0  0  0  0
   -1.1879    1.0782    0.7361 C   0  0  0  0  0  0  0  0  0  0  0  0
   -1.5790    1.3399    1.7242 H   0  0  0  0  0  0  0  0  0  0  0  0
   -1.3936    1.9081    0.0516 H   0  0  0  0  0  0  0  0  0  0  0  0
    0.3072    0.8023    0.7724 C   0  0  0  0  0  0  0  0  0  0  0  0
    0.5778    0.2473    1.6768 H   0  0  0  0  0  0  0  0  0  0  0  0
    0.9012    1.7215    0.7308 H   0  0  0  0  0  0  0  0  0  0  0  0
    0.5037   -0.0673   -0.4610 C   0  0  1  0  0  0  0  0  0  0  0  0
    0.5194    0.6528   -1.2869 H   0  0  0  0  0  0  0  0  0  0  0  0
    1.9124   -0.6931   -0.6315 C   0  0  0  0  0  0  0  0  0  0  0  0
    2.7801   -0.0358   -1.1956 O   0  0  0  0  0  0  0  0  0  0  0  0
    2.2978   -1.8112    0.0852 N   0  0  0  0  0  0  0  0  0  0  0  0
    1.5317   -2.4649    0.2496 H   0  0  0  0  0  0  0  0  0  0  0  0
    3.6390   -2.3732   -0.0158 C   0  0  0  0  0  0  0  0  0  0  0  0
    4.3884   -1.6392    0.2988 H   0  0  0  0  0  0  0  0  0  0  0  0
    3.7280   -3.2523    0.6294 H   0  0  0  0  0  0  0  0  0  0  0  0
    3.8515   -2.6748   -1.0468 H   0  0  0  0  0  0  0  0  0  0  0  0
  1  2  1  0  0  0  0
  2  3  1  0  0  0  0
  2  4  1  0  0  0  0
  2  5  1  0  0  0  0
  5  6  2  0  0  0  0
  5  7  1  0  0  0  0
  7  8  1  0  0  0  0
  7 17  1  0  0  0  0
  8  9  1  0  0  0  0
  8 10  1  0  0  0  0
  8 11  1  0  0  0  0
 11 12  1  0  0  0  0
 11 13  1  0  0  0  0
 11 14  1  0  0  0  0
 14 15  1  0  0  0  0
 14 16  1  0  0  0  0
 14 17  1  0  0  0  0
 17 18  1  0  0  0  0
 17 19  1  0  0  0  0
 19 20  2  0  0  0  0
 19 21  1  0  0  0  0
 21 22  1  0  0  0  0
 21 23  1  0  0  0  0
 23 24  1  0  0  0  0
 23 25  1  0  0  0  0
 23 26  1  0  0  0  0
M  END
$$$$

  -OEChem-01062216093D

 26 26  0     1  0  0  0  0  0999 V2000
   -2.3973   -3.7244   -1.4081 H   0  0  0  0  0  0  0  0  0  0  0  0
   -2.4285   -2.7417   -0.9285 C   0  0  0  0  0  0  0  0  0  0  0  0
   -2.8126   -2.8641    0.0868 H   0  0  0  0  0  0  0  0  0  0  0  0
   -3.1093   -2.1042   -1.4980 H   0  0  0  0  0  0  0  0  0  0  0  0
   -1.0312   -2.1262   -0.8992 C   0  0  0  0  0  0  0  0  0  0  0  0
   -0.1135   -2.8776   -1.1812 O   0  0  0  0  0  0  0  0  0  0  0  0
   -0.8309   -0.7523   -0.7206 N   0  0  0  0  0  0  0  0  0  0  0  0
   -1.8348   -0.1682    0.1816 C   0  0  0  0  0  0  0  0  0  0  0  0
   -2.0617   -0.8395    1.0181 H   0  0  0  0  0  0  0  0  0  0  0  0
   -2.7652    0.0725   -0.3440 H   0  0  0  0  0  0  0  0  0  0  0  0
   -1.1895    1.0834    0.7231 C   0  0  0  0  0  0  0  0  0  0  0  0
   -1.5899    1.3582    1.7039 H   0  0  0  0  0  0  0  0  0  0  0  0
   -1.3622    1.9158    0.0327 H   0  0  0  0  0  0  0  0  0  0  0  0
    0.2957    0.7672    0.7844 C   0  0  0  0  0  0  0  0  0  0  0  0
    0.5373    0.2079    1.6942 H   0  0  0  0  0  0  0  0  0  0  0  0
    0.9144    1.6703    0.7503 H   0  0  0  0  0  0  0  0  0  0  0  0
    0.4917   -0.1113   -0.4433 C   0  0  1  0  0  0  0  0  0  0  0  0
    0.5292    0.6049   -1.2718 H   0  0  0  0  0  0  0  0  0  0  0  0
    1.9091   -0.7276   -0.5952 C   0  0  0  0  0  0  0  0  0  0  0  0
    2.8264    0.0234   -0.9075 O   0  0  0  0  0  0  0  0  0  0  0  0
    2.2370   -1.9956   -0.1535 N   0  0  0  0  0  0  0  0  0  0  0  0
    1.4543   -2.6518   -0.1655 H   0  0  0  0  0  0  0  0  0  0  0  0
    3.5789   -2.5501   -0.2809 C   0  0  0  0  0  0  0  0  0  0  0  0
    4.3002   -1.9424    0.2753 H   0  0  0  0  0  0  0  0  0  0  0  0
    3.6048   -3.5674    0.1209 H   0  0  0  0  0  0  0  0  0  0  0  0
    3.8817   -2.5836   -1.3327 H   0  0  0  0  0  0  0  0  0  0  0  0
  1  2  1  0  0  0  0
  2  3  1  0  0  0  0
  2  4  1  0  0  0  0
  2  5  1  0  0  0  0
  5  6  2  0  0  0  0
  5  7  1  0  0  0  0
  7  8  1  0  0  0  0
  7 17  1  0  0  0  0
  8  9  1  0  0  0  0
  8 10  1  0  0  0  0
  8 11  1  0  0  0  0
 11 12  1  0  0  0  0
 11 13  1  0  0  0  0
 11 14  1  0  0  0  0
 14 15  1  0  0  0  0
 14 16  1  0  0  0  0
 14 17  1  0  0  0  0
 17 18  1  0  0  0  0
 17 19  1  0  0  0  0
 19 20  2  0  0  0  0
 19 21  1  0  0  0  0
 21 22  1  0  0  0  0
 21 23  1  0  0  0  0
 23 24  1  0  0  0  0
 23 25  1  0  0  0  0
 23 26  1  0  0  0  0
M  END
$$$$

  -OEChem-01062216093D

 26 26  0     1  0  0  0  0  0999 V2000
   -2.4955   -3.7841   -1.2321 H   0  0  0  0  0  0  0  0  0  0  0  0
   -2.4928   -2.7910   -0.7734 C   0  0  0  0  0  0  0  0  0  0  0  0
   -2.7959   -2.8933    0.2711 H   0  0  0  0  0  0  0  0  0  0  0  0
   -3.2194   -2.1690   -1.3020 H   0  0  0  0  0  0  0  0  0  0  0  0
   -1.0994   -2.1710   -0.8661 C   0  0  0  0  0  0  0  0  0  0  0  0
   -0.2185   -2.9177   -1.2553 O   0  0  0  0  0  0  0  0  0  0  0  0
   -0.8796   -0.7968   -0.7104 N   0  0  0  0  0  0  0  0  0  0  0  0
   -1.8627   -0.1840    0.1965 C   0  0  0  0  0  0  0  0  0  0  0  0
   -2.0702   -0.8298    1.0576 H   0  0  0  0  0  0  0  0  0  0  0  0
   -2.8050    0.0418   -0.3145 H   0  0  0  0  0  0  0  0  0  0  0  0
   -1.2095    1.0821    0.6907 C   0  0  0  0  0  0  0  0  0  0  0  0
   -1.5928    1.3851    1.6700 H   0  0  0  0  0  0  0  0  0  0  0  0
   -1.3928    1.8946   -0.0206 H   0  0  0  0  0  0  0  0  0  0  0  0
    0.2741    0.7628    0.7347 C   0  0  0  0  0  0  0  0  0  0  0  0
    0.5297    0.2286    1.6557 H   0  0  0  0  0  0  0  0  0  0  0  0
    0.8933    1.6638    0.6666 H   0  0  0  0  0  0  0  0  0  0  0  0
    0.4508   -0.1514   -0.4717 C   0  0  1  0  0  0  0  0  0  0  0  0
    0.4699    0.5401   -1.3212 H   0  0  0  0  0  0  0  0  0  0  0  0
    1.8815   -0.7399   -0.6347 C   0  0  0  0  0  0  0  0  0  0  0  0
    2.8032    0.0592   -0.7576 O   0  0  0  0  0  0  0  0  0  0  0  0
    2.2172   -2.0693   -0.4675 N   0  0  0  0  0  0  0  0  0  0  0  0
    1.4407   -2.7257   -0.5657 H   0  0  0  0  0  0  0  0  0  0  0  0
    3.5701   -2.5826   -0.6414 C   0  0  0  0  0  0  0  0  0  0  0  0
    4.2524   -2.1176    0.0776 H   0  0  0  0  0  0  0  0  0  0  0  0
    3.5842   -3.6646   -0.4795 H   0  0  0  0  0  0  0  0  0  0  0  0
    3.9308   -2.3784   -1.6549 H   0  0  0  0  0  0  0  0  0  0  0  0
  1  2  1  0  0  0  0
  2  3  1  0  0  0  0
  2  4  1  0  0  0  0
  2  5  1  0  0  0  0
  5  6  2  0  0  0  0
  5  7  1  0  0  0  0
  7  8  1  0  0  0  0
  7 17  1  0  0  0  0
  8  9  1  0  0  0  0
  8 10  1  0  0  0  0
  8 11  1  0  0  0  0
 11 12  1  0  0  0  0
 11 13  1  0  0  0  0
 11 14  1  0  0  0  0
 14 15  1  0  0  0  0
 14 16  1  0  0  0  0
 14 17  1  0  0  0  0
 17 18  1  0  0  0  0
 17 19  1  0  0  0  0
 19 20  2  0  0  0  0
 19 21  1  0  0  0  0
 21 22  1  0  0  0  0
 21 23  1  0  0  0  0
 23 24  1  0  0  0  0
 23 25  1  0  0  0  0
 23 26  1  0  0  0  0
M  END
$$$$

  -OEChem-01062216093D

 26 26  0     1  0  0  0  0  0999 V2000
   -1.6969   -4.0391   -1.4966 H   0  0  0  0  0  0  0  0  0  0  0  0
   -1.8339   -3.1133   -0.9300 C   0  0  0  0  0  0  0  0  0  0  0  0
   -1.8114   -3.3572    0.1345 H   0  0  0  0  0  0  0  0  0  0  0  0
   -2.8106   -2.6969   -1.1876 H   0  0  0  0  0  0  0  0  0  0  0  0
   -0.7242   -2.1193   -1.2719 C   0  0  0  0  0  0  0  0  0  0  0  0
    0.0941   -2.5045   -2.0878 O   0  0  0  0  0  0  0  0  0  0  0  0
   -0.7532   -0.7611   -0.9431 N   0  0  0  0  0  0  0  0  0  0  0  0
   -1.8080   -0.4211    0.0252 C   0  0  0  0  0  0  0  0  0  0  0  0
   -1.9084   -1.1842    0.8043 H   0  0  0  0  0  0  0  0  0  0  0  0
   -2.7774   -0.2858   -0.4664 H   0  0  0  0  0  0  0  0  0  0  0  0
   -1.3561    0.8595    0.6822 C   0  0  0  0  0  0  0  0  0  0  0  0
   -1.7790    0.9789    1.6845 H   0  0  0  0  0  0  0  0  0  0  0  0
   -1.6601    1.7167    0.0718 H   0  0  0  0  0  0  0  0  0  0  0  0
    0.1574    0.7568    0.7097 C   0  0  0  0  0  0  0  0  0  0  0  0
    0.4903    0.1564    1.5625 H   0  0  0  0  0  0  0  0  0  0  0  0
    0.6364    1.7405    0.7629 H   0  0  0  0  0  0  0  0  0  0  0  0
    0.4648    0.0359   -0.5978 C   0  0  1  0  0  0  0  0  0  0  0  0
    0.3799    0.8206   -1.3576 H   0  0  0  0  0  0  0  0  0  0  0  0
    1.9753   -0.2974   -0.7941 C   0  0  0  0  0  0  0  0  0  0  0  0
    2.7621    0.6366   -0.8505 O   0  0  0  0  0  0  0  0  0  0  0  0
    2.6026   -1.4905   -1.0682 N   0  0  0  0  0  0  0  0  0  0  0  0
    3.5662   -1.3398   -1.3531 H   0  0  0  0  0  0  0  0  0  0  0  0
    2.3666   -2.6768   -0.2547 C   0  0  0  0  0  0  0  0  0  0  0  0
    3.2244   -2.8550    0.4009 H   0  0  0  0  0  0  0  0  0  0  0  0
    1.4785   -2.5636    0.3744 H   0  0  0  0  0  0  0  0  0  0  0  0
    2.2311   -3.5536   -0.8959 H   0  0  0  0  0  0  0  0  0  0  0  0
  1  2  1  0  0  0  0
  2  3  1  0  0  0  0
  2  4  1  0  0  0  0
  2  5  1  0  0  0  0
  5  6  2  0  0  0  0
  5  7  1  0  0  0  0
  7  8  1  0  0  0  0
  7 17  1  0  0  0  0
  8  9  1  0  0  0  0
  8 10  1  0  0  0  0
  8 11  1  0  0  0  0
 11 12  1  0  0  0  0
 11 13  1  0  0  0  0
 11 14  1  0  0  0  0
 14 15  1  0  0  0  0
 14 16  1  0  0  0  0
 14 17  1  0  0  0  0
 17 18  1  0  0  0  0
 17 19  1  0  0  0  0
 19 20  2  0  0  0  0
 19 21  1  0  0  0  0
 21 22  1  0  0  0  0
 21 23  1  0  0  0  0
 23 24  1  0  0  0  0
 23 25  1  0  0  0  0
 23 26  1  0  0  0  0
M  END
$$$$

  -OEChem-01062216093D

 26 26  0     1  0  0  0  0  0999 V2000
   -2.0466   -3.9332   -1.2566 H   0  0  0  0  0  0  0  0  0  0  0  0
   -2.0259   -3.0378   -0.6283 C   0  0  0  0  0  0  0  0  0  0  0  0
   -1.7892   -3.3425    0.3937 H   0  0  0  0  0  0  0  0  0  0  0  0
   -3.0186   -2.5818   -0.6518 H   0  0  0  0  0  0  0  0  0  0  0  0
   -0.9751   -2.0559   -1.1469 C   0  0  0  0  0  0  0  0  0  0  0  0
   -0.3683   -2.4159   -2.1388 O   0  0  0  0  0  0  0  0  0  0  0  0
   -0.8792   -0.7202   -0.7456 N   0  0  0  0  0  0  0  0  0  0  0  0
   -1.7097   -0.4058    0.4279 C   0  0  0  0  0  0  0  0  0  0  0  0
   -1.6803   -1.2060    1.1750 H   0  0  0  0  0  0  0  0  0  0  0  0
   -2.7518   -0.2212    0.1458 H   0  0  0  0  0  0  0  0  0  0  0  0
   -1.0949    0.8267    1.0421 C   0  0  0  0  0  0  0  0  0  0  0  0
   -1.3077    0.9033    2.1131 H   0  0  0  0  0  0  0  0  0  0  0  0
   -1.4830    1.7222    0.5449 H   0  0  0  0  0  0  0  0  0  0  0  0
    0.3890    0.6844    0.7638 C   0  0  0  0  0  0  0  0  0  0  0  0
    0.8615    0.0312    1.5045 H   0  0  0  0  0  0  0  0  0  0  0  0
    0.9021    1.6521    0.7699 H   0  0  0  0  0  0  0  0  0  0  0  0
    0.4113    0.0261   -0.6127 C   0  0  1  0  0  0  0  0  0  0  0  0
    0.2030    0.8513   -1.3023 H   0  0  0  0  0  0  0  0  0  0  0  0
    1.8454   -0.3136   -1.1254 C   0  0  0  0  0  0  0  0  0  0  0  0
    2.6790    0.5805   -1.0972 O   0  0  0  0  0  0  0  0  0  0  0  0
    2.3205   -1.3905   -1.8341 N   0  0  0  0  0  0  0  0  0  0  0  0
    3.1811   -1.1392   -2.3124 H   0  0  0  0  0  0  0  0  0  0  0  0
    2.3531   -2.7065   -1.2075 C   0  0  0  0  0  0  0  0  0  0  0  0
    1.6502   -2.7720   -0.3710 H   0  0  0  0  0  0  0  0  0  0  0  0
    2.0951   -3.4783   -1.9398 H   0  0  0  0  0  0  0  0  0  0  0  0
    3.3569   -2.9121   -0.8231 H   0  0  0  0  0  0  0  0  0  0  0  0
  1  2  1  0  0  0  0
  2  3  1  0  0  0  0
  2  4  1  0  0  0  0
  2  5  1  0  0  0  0
  5  6  2  0  0  0  0
  5  7  1  0  0  0  0
  7  8  1  0  0  0  0
  7 17  1  0  0  0  0
  8  9  1  0  0  0  0
  8 10  1  0  0  0  0
  8 11  1  0  0  0  0
 11 12  1  0  0  0  0
 11 13  1  0  0  0  0
 11 14  1  0  0  0  0
 14 15  1  0  0  0  0
 14 16  1  0  0  0  0
 14 17  1  0  0  0  0
 17 18  1  0  0  0  0
 17 19  1  0  0  0  0
 19 20  2  0  0  0  0
 19 21  1  0  0  0  0
 21 22  1  0  0  0  0
 21 23  1  0  0  0  0
 23 24  1  0  0  0  0
 23 25  1  0  0  0  0
 23 26  1  0  0  0  0
M  END
$$$$

  -OEChem-01062216093D

 26 26  0     1  0  0  0  0  0999 V2000
   -2.6865   -3.6436   -1.3591 H   0  0  0  0  0  0  0  0  0  0  0  0
   -2.6364   -2.6660   -0.8706 C   0  0  0  0  0  0  0  0  0  0  0  0
   -2.9801   -2.7778    0.1603 H   0  0  0  0  0  0  0  0  0  0  0  0
   -3.3042   -1.9835   -1.4021 H   0  0  0  0  0  0  0  0  0  0  0  0
   -1.2045   -2.1337   -0.9005 C   0  0  0  0  0  0  0  0  0  0  0  0
   -0.3572   -2.9359   -1.2485 O   0  0  0  0  0  0  0  0  0  0  0  0
   -0.9166   -0.7783   -0.6934 N   0  0  0  0  0  0  0  0  0  0  0  0
   -1.8464   -0.1730    0.2723 C   0  0  0  0  0  0  0  0  0  0  0  0
   -2.0399   -0.8473    1.1148 H   0  0  0  0  0  0  0  0  0  0  0  0
   -2.8002    0.0992   -0.1924 H   0  0  0  0  0  0  0  0  0  0  0  0
   -1.1384    1.0536    0.7860 C   0  0  0  0  0  0  0  0  0  0  0  0
   -1.4712    1.3270    1.7922 H   0  0  0  0  0  0  0  0  0  0  0  0
   -1.3279    1.8986    0.1157 H   0  0  0  0  0  0  0  0  0  0  0  0
    0.3354    0.6922    0.7544 C   0  0  0  0  0  0  0  0  0  0  0  0
    0.6129    0.1160    1.6434 H   0  0  0  0  0  0  0  0  0  0  0  0
    0.9748    1.5797    0.6980 H   0  0  0  0  0  0  0  0  0  0  0  0
    0.4446   -0.1815   -0.4937 C   0  0  1  0  0  0  0  0  0  0  0  0
    0.4505    0.5432   -1.3143 H   0  0  0  0  0  0  0  0  0  0  0  0
    1.8540   -0.7941   -0.7569 C   0  0  0  0  0  0  0  0  0  0  0  0
    2.8232   -0.2019   -0.2947 O   0  0  0  0  0  0  0  0  0  0  0  0
    2.1165   -1.9236   -1.5062 N   0  0  0  0  0  0  0  0  0  0  0  0
    1.3042   -2.4947   -1.7465 H   0  0  0  0  0  0  0  0  0  0  0  0
    3.4430   -2.5063   -1.6633 C   0  0  0  0  0  0  0  0  0  0  0  0
    3.8546   -2.7905   -0.6894 H   0  0  0  0  0  0  0  0  0  0  0  0
    3.3877   -3.4007   -2.2912 H   0  0  0  0  0  0  0  0  0  0  0  0
    4.1218   -1.7917   -2.1401 H   0  0  0  0  0  0  0  0  0  0  0  0
  1  2  1  0  0  0  0
  2  3  1  0  0  0  0
  2  4  1  0  0  0  0
  2  5  1  0  0  0  0
  5  6  2  0  0  0  0
  5  7  1  0  0  0  0
  7  8  1  0  0  0  0
  7 17  1  0  0  0  0
  8  9  1  0  0  0  0
  8 10  1  0  0  0  0
  8 11  1  0  0  0  0
 11 12  1  0  0  0  0
 11 13  1  0  0  0  0
 11 14  1  0  0  0  0
 14 15  1  0  0  0  0
 14 16  1  0  0  0  0
 14 17  1  0  0  0  0
 17 18  1  0  0  0  0
 17 19  1  0  0  0  0
 19 20  2  0  0  0  0
 19 21  1  0  0  0  0
 21 22  1  0  0  0  0
 21 23  1  0  0  0  0
 23 24  1  0  0  0  0
 23 25  1  0  0  0  0
 23 26  1  0  0  0  0
M  END
$$$$

  -OEChem-01062216093D

 26 26  0     1  0  0  0  0  0999 V2000
   -2.5873   -3.6729   -1.3782 H   0  0  0  0  0  0  0  0  0  0  0  0
   -2.5575   -2.7096   -0.8607 C   0  0  0  0  0  0  0  0  0  0  0  0
   -2.8562   -2.8670    0.1783 H   0  0  0  0  0  0  0  0  0  0  0  0
   -3.2718   -2.0390   -1.3444 H   0  0  0  0  0  0  0  0  0  0  0  0
   -1.1498   -2.1198   -0.9266 C   0  0  0  0  0  0  0  0  0  0  0  0
   -0.2829   -2.8760   -1.3275 O   0  0  0  0  0  0  0  0  0  0  0  0
   -0.9047   -0.7582   -0.7052 N   0  0  0  0  0  0  0  0  0  0  0  0
   -1.8396   -0.1884    0.2766 C   0  0  0  0  0  0  0  0  0  0  0  0
   -2.0195   -0.8819    1.1062 H   0  0  0  0  0  0  0  0  0  0  0  0
   -2.7992    0.0780   -0.1792 H   0  0  0  0  0  0  0  0  0  0  0  0
   -1.1468    1.0385    0.8118 C   0  0  0  0  0  0  0  0  0  0  0  0
   -1.4782    1.2863    1.8250 H   0  0  0  0  0  0  0  0  0  0  0  0
   -1.3530    1.8942    0.1601 H   0  0  0  0  0  0  0  0  0  0  0  0
    0.3328    0.7010    0.7661 C   0  0  0  0  0  0  0  0  0  0  0  0
    0.6226    0.1109    1.6421 H   0  0  0  0  0  0  0  0  0  0  0  0
    0.9599    1.5979    0.7246 H   0  0  0  0  0  0  0  0  0  0  0  0
    0.4465   -0.1452   -0.5001 C   0  0  1  0  0  0  0  0  0  0  0  0
    0.4468    0.5974   -1.3044 H   0  0  0  0  0  0  0  0  0  0  0  0
    1.8461   -0.7655   -0.7835 C   0  0  0  0  0  0  0  0  0  0  0  0
    2.8090   -0.3318   -0.1605 O   0  0  0  0  0  0  0  0  0  0  0  0
    2.0950   -1.6950   -1.7746 N   0  0  0  0  0  0  0  0  0  0  0  0
    1.2707   -2.2138   -2.0842 H   0  0  0  0  0  0  0  0  0  0  0  0
    3.4002   -2.3087   -1.9843 C   0  0  0  0  0  0  0  0  0  0  0  0
    3.7119   -2.8620   -1.0924 H   0  0  0  0  0  0  0  0  0  0  0  0
    3.3566   -3.0045   -2.8275 H   0  0  0  0  0  0  0  0  0  0  0  0
    4.1523   -1.5451   -2.2076 H   0  0  0  0  0  0  0  0  0  0  0  0
  1  2  1  0  0  0  0
  2  3  1  0  0  0  0
  2  4  1  0  0  0  0
  2  5  1  0  0  0  0
  5  6  2  0  0  0  0
  5  7  1  0  0  0  0
  7  8  1  0  0  0  0
  7 17  1  0  0  0  0
  8  9  1  0  0  0  0
  8 10  1  0  0  0  0
  8 11  1  0  0  0  0
 11 12  1  0  0  0  0
 11 13  1  0  0  0  0
 11 14  1  0  0  0  0
 14 15  1  0  0  0  0
 14 16  1  0  0  0  0
 14 17  1  0  0  0  0
 17 18  1  0  0  0  0
 17 19  1  0  0  0  0
 19 20  2  0  0  0  0
 19 21  1  0  0  0  0
 21 22  1  0  0  0  0
 21 23  1  0  0  0  0
 23 24  1  0  0  0  0
 23 25  1  0  0  0  0
 23 26  1  0  0  0  0
M  END
$$$$

  -OEChem-01062216093D

 26 26  0     1  0  0  0  0  0999 V2000
   -2.4663   -3.7130   -1.3666 H   0  0  0  0  0  0  0  0  0  0  0  0
   -2.4542   -2.7618   -0.8265 C   0  0  0  0  0  0  0  0  0  0  0  0
   -2.6764   -2.9598    0.2247 H   0  0  0  0  0  0  0  0  0  0  0  0
   -3.2325   -2.1202   -1.2466 H   0  0  0  0  0  0  0  0  0  0  0  0
   -1.0860   -2.0959   -0.9639 C   0  0  0  0  0  0  0  0  0  0  0  0
   -0.2103   -2.7861   -1.4570 O   0  0  0  0  0  0  0  0  0  0  0  0
   -0.8912   -0.7270   -0.7370 N   0  0  0  0  0  0  0  0  0  0  0  0
   -1.8342   -0.1881    0.2549 C   0  0  0  0  0  0  0  0  0  0  0  0
   -2.0058   -0.8967    1.0733 H   0  0  0  0  0  0  0  0  0  0  0  0
   -2.7968    0.0732   -0.1974 H   0  0  0  0  0  0  0  0  0  0  0  0
   -1.1569    1.0375    0.8150 C   0  0  0  0  0  0  0  0  0  0  0  0
   -1.4938    1.2627    1.8317 H   0  0  0  0  0  0  0  0  0  0  0  0
   -1.3710    1.9028    0.1789 H   0  0  0  0  0  0  0  0  0  0  0  0
    0.3269    0.7173    0.7671 C   0  0  0  0  0  0  0  0  0  0  0  0
    0.6190    0.1134    1.6329 H   0  0  0  0  0  0  0  0  0  0  0  0
    0.9468    1.6197    0.7433 H   0  0  0  0  0  0  0  0  0  0  0  0
    0.4498   -0.1030   -0.5145 C   0  0  1  0  0  0  0  0  0  0  0  0
    0.4594    0.6551   -1.3040 H   0  0  0  0  0  0  0  0  0  0  0  0
    1.8341   -0.7497   -0.7977 C   0  0  0  0  0  0  0  0  0  0  0  0
    2.7669   -0.5061   -0.0402 O   0  0  0  0  0  0  0  0  0  0  0  0
    2.1025   -1.4379   -1.9660 N   0  0  0  0  0  0  0  0  0  0  0  0
    1.2768   -1.8791   -2.3748 H   0  0  0  0  0  0  0  0  0  0  0  0
    3.3906   -2.0703   -2.2217 C   0  0  0  0  0  0  0  0  0  0  0  0
    3.5996   -2.8333   -1.4646 H   0  0  0  0  0  0  0  0  0  0  0  0
    3.3854   -2.5485   -3.2057 H   0  0  0  0  0  0  0  0  0  0  0  0
    4.1945   -1.3271   -2.2055 H   0  0  0  0  0  0  0  0  0  0  0  0
  1  2  1  0  0  0  0
  2  3  1  0  0  0  0
  2  4  1  0  0  0  0
  2  5  1  0  0  0  0
  5  6  2  0  0  0  0
  5  7  1  0  0  0  0
  7  8  1  0  0  0  0
  7 17  1  0  0  0  0
  8  9  1  0  0  0  0
  8 10  1  0  0  0  0
  8 11  1  0  0  0  0
 11 12  1  0  0  0  0
 11 13  1  0  0  0  0
 11 14  1  0  0  0  0
 14 15  1  0  0  0  0
 14 16  1  0  0  0  0
 14 17  1  0  0  0  0
 17 18  1  0  0  0  0
 17 19  1  0  0  0  0
 19 20  2  0  0  0  0
 19 21  1  0  0  0  0
 21 22  1  0  0  0  0
 21 23  1  0  0  0  0
 23 24  1  0  0  0  0
 23 25  1  0  0  0  0
 23 26  1  0  0  0  0
M  END
$$$$

  -OEChem-01062216093D

 26 26  0     1  0  0  0  0  0999 V2000
   -2.3283   -3.7540   -1.3551 H   0  0  0  0  0  0  0  0  0  0  0  0
   -2.3406   -2.8080   -0.8060 C   0  0  0  0  0  0  0  0  0  0  0  0
   -2.4904   -3.0274    0.2537 H   0  0  0  0  0  0  0  0  0  0  0  0
   -3.1774   -2.2095   -1.1740 H   0  0  0  0  0  0  0  0  0  0  0  0
   -1.0227   -2.0631   -1.0117 C   0  0  0  0  0  0  0  0  0  0  0  0
   -0.1486   -2.6824   -1.5962 O   0  0  0  0  0  0  0  0  0  0  0  0
   -0.8786   -0.6895   -0.7745 N   0  0  0  0  0  0  0  0  0  0  0  0
   -1.8329   -0.1844    0.2242 C   0  0  0  0  0  0  0  0  0  0  0  0
   -2.0026   -0.9110    1.0266 H   0  0  0  0  0  0  0  0  0  0  0  0
   -2.7953    0.0760   -0.2291 H   0  0  0  0  0  0  0  0  0  0  0  0
   -1.1707    1.0342    0.8184 C   0  0  0  0  0  0  0  0  0  0  0  0
   -1.5180    1.2329    1.8371 H   0  0  0  0  0  0  0  0  0  0  0  0
   -1.3875    1.9116    0.2000 H   0  0  0  0  0  0  0  0  0  0  0  0
    0.3166    0.7280    0.7755 C   0  0  0  0  0  0  0  0  0  0  0  0
    0.6057    0.1060    1.6295 H   0  0  0  0  0  0  0  0  0  0  0  0
    0.9301    1.6347    0.7779 H   0  0  0  0  0  0  0  0  0  0  0  0
    0.4519   -0.0600   -0.5243 C   0  0  1  0  0  0  0  0  0  0  0  0
    0.4770    0.7181   -1.2937 H   0  0  0  0  0  0  0  0  0  0  0  0
    1.8178   -0.7398   -0.8033 C   0  0  0  0  0  0  0  0  0  0  0  0
    2.6823   -0.7315    0.0660 O   0  0  0  0  0  0  0  0  0  0  0  0
    2.1564   -1.1509   -2.0795 N   0  0  0  0  0  0  0  0  0  0  0  0
    1.3517   -1.4357   -2.6371 H   0  0  0  0  0  0  0  0  0  0  0  0
    3.4271   -1.8038   -2.3679 C   0  0  0  0  0  0  0  0  0  0  0  0
    3.5124   -2.7397   -1.8056 H   0  0  0  0  0  0  0  0  0  0  0  0
    3.4992   -2.0313   -3.4357 H   0  0  0  0  0  0  0  0  0  0  0  0
    4.2651   -1.1524   -2.0982 H   0  0  0  0  0  0  0  0  0  0  0  0
  1  2  1  0  0  0  0
  2  3  1  0  0  0  0
  2  4  1  0  0  0  0
  2  5  1  0  0  0  0
  5  6  2  0  0  0  0
  5  7  1  0  0  0  0
  7  8  1  0  0  0  0
  7 17  1  0  0  0  0
  8  9  1  0  0  0  0
  8 10  1  0  0  0  0
  8 11  1  0  0  0  0
 11 12  1  0  0  0  0
 11 13  1  0  0  0  0
 11 14  1  0  0  0  0
 14 15  1  0  0  0  0
 14 16  1  0  0  0  0
 14 17  1  0  0  0  0
 17 18  1  0  0  0  0
 17 19  1  0  0  0  0
 19 20  2  0  0  0  0
 19 21  1  0  0  0  0
 21 22  1  0  0  0  0
 21 23  1  0  0  0  0
 23 24  1  0  0  0  0
 23 25  1  0  0  0  0
 23 26  1  0  0  0  0
M  END
$$$$

  -OEChem-01062216093D

 26 26  0     1  0  0  0  0  0999 V2000
   -2.2215   -3.7804   -1.3492 H   0  0  0  0  0  0  0  0  0  0  0  0
   -2.2511   -2.8410   -0.7896 C   0  0  0  0  0  0  0  0  0  0  0  0
   -2.3497   -3.0768    0.2726 H   0  0  0  0  0  0  0  0  0  0  0  0
   -3.1252   -2.2737   -1.1184 H   0  0  0  0  0  0  0  0  0  0  0  0
   -0.9728   -2.0420   -1.0374 C   0  0  0  0  0  0  0  0  0  0  0  0
   -0.1009   -2.6160   -1.6709 O   0  0  0  0  0  0  0  0  0  0  0  0
   -0.8702   -0.6642   -0.8004 N   0  0  0  0  0  0  0  0  0  0  0  0
   -1.8297   -0.1851    0.2062 C   0  0  0  0  0  0  0  0  0  0  0  0
   -1.9910   -0.9233    0.9996 H   0  0  0  0  0  0  0  0  0  0  0  0
   -2.7951    0.0700   -0.2435 H   0  0  0  0  0  0  0  0  0  0  0  0
   -1.1808    1.0324    0.8181 C   0  0  0  0  0  0  0  0  0  0  0  0
   -1.5305    1.2125    1.8394 H   0  0  0  0  0  0  0  0  0  0  0  0
   -1.4074    1.9163    0.2127 H   0  0  0  0  0  0  0  0  0  0  0  0
    0.3101    0.7436    0.7717 C   0  0  0  0  0  0  0  0  0  0  0  0
    0.6042    0.1126    1.6177 H   0  0  0  0  0  0  0  0  0  0  0  0
    0.9146    1.6563    0.7871 H   0  0  0  0  0  0  0  0  0  0  0  0
    0.4508   -0.0239   -0.5390 C   0  0  1  0  0  0  0  0  0  0  0  0
    0.4777    0.7669   -1.2954 H   0  0  0  0  0  0  0  0  0  0  0  0
    1.8049   -0.7223   -0.8186 C   0  0  0  0  0  0  0  0  0  0  0  0
    2.5649   -0.9663    0.1119 O   0  0  0  0  0  0  0  0  0  0  0  0
    2.2623   -0.8554   -2.1176 N   0  0  0  0  0  0  0  0  0  0  0  0
    1.5262   -0.8877   -2.8187 H   0  0  0  0  0  0  0  0  0  0  0  0
    3.5131   -1.5355   -2.4281 C   0  0  0  0  0  0  0  0  0  0  0  0
    3.4706   -2.5799   -2.1015 H   0  0  0  0  0  0  0  0  0  0  0  0
    3.6948   -1.5148   -3.5068 H   0  0  0  0  0  0  0  0  0  0  0  0
    4.3540   -1.0429   -1.9287 H   0  0  0  0  0  0  0  0  0  0  0  0
  1  2  1  0  0  0  0
  2  3  1  0  0  0  0
  2  4  1  0  0  0  0
  2  5  1  0  0  0  0
  5  6  2  0  0  0  0
  5  7  1  0  0  0  0
  7  8  1  0  0  0  0
  7 17  1  0  0  0  0
  8  9  1  0  0  0  0
  8 10  1  0  0  0  0
  8 11  1  0  0  0  0
 11 12  1  0  0  0  0
 11 13  1  0  0  0  0
 11 14  1  0  0  0  0
 14 15  1  0  0  0  0
 14 16  1  0  0  0  0
 14 17  1  0  0  0  0
 17 18  1  0  0  0  0
 17 19  1  0  0  0  0
 19 20  2  0  0  0  0
 19 21  1  0  0  0  0
 21 22  1  0  0  0  0
 21 23  1  0  0  0  0
 23 24  1  0  0  0  0
 23 25  1  0  0  0  0
 23 26  1  0  0  0  0
M  END
$$$$

  -OEChem-01062216093D

 26 26  0     1  0  0  0  0  0999 V2000
   -2.1573   -3.8002   -1.3389 H   0  0  0  0  0  0  0  0  0  0  0  0
   -2.1942   -2.8636   -0.7749 C   0  0  0  0  0  0  0  0  0  0  0  0
   -2.2441   -3.1052    0.2893 H   0  0  0  0  0  0  0  0  0  0  0  0
   -3.0972   -2.3227   -1.0675 H   0  0  0  0  0  0  0  0  0  0  0  0
   -0.9509   -2.0254   -1.0681 C   0  0  0  0  0  0  0  0  0  0  0  0
   -0.0949   -2.5646   -1.7530 O   0  0  0  0  0  0  0  0  0  0  0  0
   -0.8728   -0.6460   -0.8270 N   0  0  0  0  0  0  0  0  0  0  0  0
   -1.8311   -0.1863    0.1904 C   0  0  0  0  0  0  0  0  0  0  0  0
   -1.9857   -0.9342    0.9758 H   0  0  0  0  0  0  0  0  0  0  0  0
   -2.7999    0.0680   -0.2522 H   0  0  0  0  0  0  0  0  0  0  0  0
   -1.1872    1.0269    0.8168 C   0  0  0  0  0  0  0  0  0  0  0  0
   -1.5345    1.1898    1.8420 H   0  0  0  0  0  0  0  0  0  0  0  0
   -1.4214    1.9182    0.2251 H   0  0  0  0  0  0  0  0  0  0  0  0
    0.3054    0.7467    0.7615 C   0  0  0  0  0  0  0  0  0  0  0  0
    0.6054    0.1052    1.5972 H   0  0  0  0  0  0  0  0  0  0  0  0
    0.9051    1.6621    0.7873 H   0  0  0  0  0  0  0  0  0  0  0  0
    0.4440   -0.0018   -0.5597 C   0  0  1  0  0  0  0  0  0  0  0  0
    0.4679    0.7987   -1.3055 H   0  0  0  0  0  0  0  0  0  0  0  0
    1.7929   -0.7079   -0.8426 C   0  0  0  0  0  0  0  0  0  0  0  0
    2.4265   -1.1893    0.0900 O   0  0  0  0  0  0  0  0  0  0  0  0
    2.4051   -0.5787   -2.0774 N   0  0  0  0  0  0  0  0  0  0  0  0
    1.7834   -0.3530   -2.8486 H   0  0  0  0  0  0  0  0  0  0  0  0
    3.6586   -1.2532   -2.3919 C   0  0  0  0  0  0  0  0  0  0  0  0
    3.5376   -2.3388   -2.3129 H   0  0  0  0  0  0  0  0  0  0  0  0
    3.9725   -1.0114   -3.4118 H   0  0  0  0  0  0  0  0  0  0  0  0
    4.4500   -0.9356   -1.7049 H   0  0  0  0  0  0  0  0  0  0  0  0
  1  2  1  0  0  0  0
  2  3  1  0  0  0  0
  2  4  1  0  0  0  0
  2  5  1  0  0  0  0
  5  6  2  0  0  0  0
  5  7  1  0  0  0  0
  7  8  1  0  0  0  0
  7 17  1  0  0  0  0
  8  9  1  0  0  0  0
  8 10  1  0  0  0  0
  8 11  1  0  0  0  0
 11 12  1  0  0  0  0
 11 13  1  0  0  0  0
 11 14  1  0  0  0  0
 14 15  1  0  0  0  0
 14 16  1  0  0  0  0
 14 17  1  0  0  0  0
 17 18  1  0  0  0  0
 17 19  1  0  0  0  0
 19 20  2  0  0  0  0
 19 21  1  0  0  0  0
 21 22  1  0  0  0  0
 21 23  1  0  0  0  0
 23 24  1  0  0  0  0
 23 25  1  0  0  0  0
 23 26  1  0  0  0  0
M  END
$$$$

  -OEChem-01062216093D

 26 26  0     1  0  0  0  0  0999 V2000
   -2.1231   -3.8175   -1.3215 H   0  0  0  0  0  0  0  0  0  0  0  0
   -2.1586   -2.8814   -0.7566 C   0  0  0  0  0  0  0  0  0  0  0  0
   -2.1605   -3.1234    0.3088 H   0  0  0  0  0  0  0  0  0  0  0  0
   -3.0842   -2.3612   -1.0133 H   0  0  0  0  0  0  0  0  0  0  0  0
   -0.9468   -2.0159   -1.0984 C   0  0  0  0  0  0  0  0  0  0  0  0
   -0.1210   -2.5250   -1.8414 O   0  0  0  0  0  0  0  0  0  0  0  0
   -0.8787   -0.6372   -0.8514 N   0  0  0  0  0  0  0  0  0  0  0  0
   -1.8305   -0.1860    0.1762 C   0  0  0  0  0  0  0  0  0  0  0  0
   -1.9797   -0.9387    0.9578 H   0  0  0  0  0  0  0  0  0  0  0  0
   -2.8025    0.0704   -0.2587 H   0  0  0  0  0  0  0  0  0  0  0  0
   -1.1840    1.0229    0.8091 C   0  0  0  0  0  0  0  0  0  0  0  0
   -1.5277    1.1800    1.8364 H   0  0  0  0  0  0  0  0  0  0  0  0
   -1.4197    1.9180    0.2239 H   0  0  0  0  0  0  0  0  0  0  0  0
    0.3080    0.7417    0.7454 C   0  0  0  0  0  0  0  0  0  0  0  0
    0.6121    0.0927    1.5741 H   0  0  0  0  0  0  0  0  0  0  0  0
    0.9085    1.6564    0.7756 H   0  0  0  0  0  0  0  0  0  0  0  0
    0.4380    0.0038   -0.5816 C   0  0  1  0  0  0  0  0  0  0  0  0
    0.4575    0.8085   -1.3228 H   0  0  0  0  0  0  0  0  0  0  0  0
    1.7843   -0.7047   -0.8691 C   0  0  0  0  0  0  0  0  0  0  0  0
    2.2942   -1.3931    0.0079 O   0  0  0  0  0  0  0  0  0  0  0  0
    2.5502   -0.3404   -1.9636 N   0  0  0  0  0  0  0  0  0  0  0  0
    2.0541    0.1177   -2.7219 H   0  0  0  0  0  0  0  0  0  0  0  0
    3.8287   -0.9729   -2.2644 C   0  0  0  0  0  0  0  0  0  0  0  0
    3.6944   -2.0480   -2.4236 H   0  0  0  0  0  0  0  0  0  0  0  0
    4.2614   -0.5385   -3.1706 H   0  0  0  0  0  0  0  0  0  0  0  0
    4.5349   -0.8237   -1.4410 H   0  0  0  0  0  0  0  0  0  0  0  0
  1  2  1  0  0  0  0
  2  3  1  0  0  0  0
  2  4  1  0  0  0  0
  2  5  1  0  0  0  0
  5  6  2  0  0  0  0
  5  7  1  0  0  0  0
  7  8  1  0  0  0  0
  7 17  1  0  0  0  0
  8  9  1  0  0  0  0
  8 10  1  0  0  0  0
  8 11  1  0  0  0  0
 11 12  1  0  0  0  0
 11 13  1  0  0  0  0
 11 14  1  0  0  0  0
 14 15  1  0  0  0  0
 14 16  1  0  0  0  0
 14 17  1  0  0  0  0
 17 18  1  0  0  0  0
 17 19  1  0  0  0  0
 19 20  2  0  0  0  0
 19 21  1  0  0  0  0
 21 22  1  0  0  0  0
 21 23  1  0  0  0  0
 23 24  1  0  0  0  0
 23 25  1  0  0  0  0
 23 26  1  0  0  0  0
M  END
$$$$

  -OEChem-01062216093D

 26 26  0     1  0  0  0  0  0999 V2000
   -2.0877   -3.8333   -1.2986 H   0  0  0  0  0  0  0  0  0  0  0  0
   -2.1205   -2.8967   -0.7343 C   0  0  0  0  0  0  0  0  0  0  0  0
   -2.0629   -3.1359    0.3301 H   0  0  0  0  0  0  0  0  0  0  0  0
   -3.0712   -2.4018   -0.9458 H   0  0  0  0  0  0  0  0  0  0  0  0
   -0.9502   -2.0008   -1.1373 C   0  0  0  0  0  0  0  0  0  0  0  0
   -0.1693   -2.4752   -1.9492 O   0  0  0  0  0  0  0  0  0  0  0  0
   -0.8869   -0.6237   -0.8817 N   0  0  0  0  0  0  0  0  0  0  0  0
   -1.8305   -0.1795    0.1568 C   0  0  0  0  0  0  0  0  0  0  0  0
   -1.9787   -0.9376    0.9331 H   0  0  0  0  0  0  0  0  0  0  0  0
   -2.8038    0.0844   -0.2702 H   0  0  0  0  0  0  0  0  0  0  0  0
   -1.1759    1.0206    0.7987 C   0  0  0  0  0  0  0  0  0  0  0  0
   -1.5137    1.1686    1.8292 H   0  0  0  0  0  0  0  0  0  0  0  0
   -1.4109    1.9220    0.2229 H   0  0  0  0  0  0  0  0  0  0  0  0
    0.3142    0.7331    0.7248 C   0  0  0  0  0  0  0  0  0  0  0  0
    0.6198    0.0729    1.5438 H   0  0  0  0  0  0  0  0  0  0  0  0
    0.9190    1.6448    0.7616 H   0  0  0  0  0  0  0  0  0  0  0  0
    0.4330    0.0088   -0.6095 C   0  0  1  0  0  0  0  0  0  0  0  0
    0.4510    0.8171   -1.3464 H   0  0  0  0  0  0  0  0  0  0  0  0
    1.7768   -0.7018   -0.9018 C   0  0  0  0  0  0  0  0  0  0  0  0
    2.1742   -1.5604   -0.1222 O   0  0  0  0  0  0  0  0  0  0  0  0
    2.6842   -0.1461   -1.7887 N   0  0  0  0  0  0  0  0  0  0  0  0
    2.3119    0.5100   -2.4680 H   0  0  0  0  0  0  0  0  0  0  0  0
    3.9932   -0.7353   -2.0431 C   0  0  0  0  0  0  0  0  0  0  0  0
    3.8853   -1.7564   -2.4242 H   0  0  0  0  0  0  0  0  0  0  0  0
    4.5363   -0.1430   -2.7856 H   0  0  0  0  0  0  0  0  0  0  0  0
    4.5877   -0.7631   -1.1240 H   0  0  0  0  0  0  0  0  0  0  0  0
  1  2  1  0  0  0  0
  2  3  1  0  0  0  0
  2  4  1  0  0  0  0
  2  5  1  0  0  0  0
  5  6  2  0  0  0  0
  5  7  1  0  0  0  0
  7  8  1  0  0  0  0
  7 17  1  0  0  0  0
  8  9  1  0  0  0  0
  8 10  1  0  0  0  0
  8 11  1  0  0  0  0
 11 12  1  0  0  0  0
 11 13  1  0  0  0  0
 11 14  1  0  0  0  0
 14 15  1  0  0  0  0
 14 16  1  0  0  0  0
 14 17  1  0  0  0  0
 17 18  1  0  0  0  0
 17 19  1  0  0  0  0
 19 20  2  0  0  0  0
 19 21  1  0  0  0  0
 21 22  1  0  0  0  0
 21 23  1  0  0  0  0
 23 24  1  0  0  0  0
 23 25  1  0  0  0  0
 23 26  1  0  0  0  0
M  END
$$$$

  -OEChem-01062216093D

 26 26  0     1  0  0  0  0  0999 V2000
   -2.0624   -3.8456   -1.2742 H   0  0  0  0  0  0  0  0  0  0  0  0
   -2.0882   -2.9074   -0.7127 C   0  0  0  0  0  0  0  0  0  0  0  0
   -1.9666   -3.1403    0.3476 H   0  0  0  0  0  0  0  0  0  0  0  0
   -3.0608   -2.4368   -0.8744 H   0  0  0  0  0  0  0  0  0  0  0  0
   -0.9637   -1.9851   -1.1814 C   0  0  0  0  0  0  0  0  0  0  0  0
   -0.2446   -2.4231   -2.0677 O   0  0  0  0  0  0  0  0  0  0  0  0
   -0.8949   -0.6114   -0.9120 N   0  0  0  0  0  0  0  0  0  0  0  0
   -1.8249   -0.1716    0.1408 C   0  0  0  0  0  0  0  0  0  0  0  0
   -1.9717   -0.9349    0.9119 H   0  0  0  0  0  0  0  0  0  0  0  0
   -2.8005    0.1026   -0.2744 H   0  0  0  0  0  0  0  0  0  0  0  0
   -1.1573    1.0172    0.7902 C   0  0  0  0  0  0  0  0  0  0  0  0
   -1.4863    1.1573    1.8247 H   0  0  0  0  0  0  0  0  0  0  0  0
   -1.3894    1.9262    0.2254 H   0  0  0  0  0  0  0  0  0  0  0  0
    0.3293    0.7180    0.7013 C   0  0  0  0  0  0  0  0  0  0  0  0
    0.6370    0.0464    1.5102 H   0  0  0  0  0  0  0  0  0  0  0  0
    0.9413    1.6246    0.7424 H   0  0  0  0  0  0  0  0  0  0  0  0
    0.4316    0.0073   -0.6410 C   0  0  1  0  0  0  0  0  0  0  0  0
    0.4493    0.8191   -1.3742 H   0  0  0  0  0  0  0  0  0  0  0  0
    1.7737   -0.7023   -0.9443 C   0  0  0  0  0  0  0  0  0  0  0  0
    2.0785   -1.7003   -0.3011 O   0  0  0  0  0  0  0  0  0  0  0  0
    2.7938   -0.0045   -1.5702 N   0  0  0  0  0  0  0  0  0  0  0  0
    2.5306    0.8181   -2.1032 H   0  0  0  0  0  0  0  0  0  0  0  0
    4.1356   -0.5478   -1.7458 C   0  0  0  0  0  0  0  0  0  0  0  0
    4.0988   -1.4799   -2.3193 H   0  0  0  0  0  0  0  0  0  0  0  0
    4.7647    0.1666   -2.2853 H   0  0  0  0  0  0  0  0  0  0  0  0
    4.5989   -0.7491   -0.7742 H   0  0  0  0  0  0  0  0  0  0  0  0
  1  2  1  0  0  0  0
  2  3  1  0  0  0  0
  2  4  1  0  0  0  0
  2  5  1  0  0  0  0
  5  6  2  0  0  0  0
  5  7  1  0  0  0  0
  7  8  1  0  0  0  0
  7 17  1  0  0  0  0
  8  9  1  0  0  0  0
  8 10  1  0  0  0  0
  8 11  1  0  0  0  0
 11 12  1  0  0  0  0
 11 13  1  0  0  0  0
 11 14  1  0  0  0  0
 14 15  1  0  0  0  0
 14 16  1  0  0  0  0
 14 17  1  0  0  0  0
 17 18  1  0  0  0  0
 17 19  1  0  0  0  0
 19 20  2  0  0  0  0
 19 21  1  0  0  0  0
 21 22  1  0  0  0  0
 21 23  1  0  0  0  0
 23 24  1  0  0  0  0
 23 25  1  0  0  0  0
 23 26  1  0  0  0  0
M  END
$$$$

  -OEChem-01062216093D

 26 26  0     1  0  0  0  0  0999 V2000
   -1.9960   -3.8634   -1.2315 H   0  0  0  0  0  0  0  0  0  0  0  0
   -2.0213   -2.9213   -0.6764 C   0  0  0  0  0  0  0  0  0  0  0  0
   -1.8100   -3.1375    0.3733 H   0  0  0  0  0  0  0  0  0  0  0  0
   -3.0227   -2.4943   -0.7680 H   0  0  0  0  0  0  0  0  0  0  0  0
   -0.9758   -1.9574   -1.2345 C   0  0  0  0  0  0  0  0  0  0  0  0
   -0.3416   -2.3497   -2.2032 O   0  0  0  0  0  0  0  0  0  0  0  0
   -0.9027   -0.5882   -0.9480 N   0  0  0  0  0  0  0  0  0  0  0  0
   -1.8225   -0.1547    0.1169 C   0  0  0  0  0  0  0  0  0  0  0  0
   -1.9709   -0.9236    0.8816 H   0  0  0  0  0  0  0  0  0  0  0  0
   -2.7988    0.1302   -0.2895 H   0  0  0  0  0  0  0  0  0  0  0  0
   -1.1438    1.0213    0.7777 C   0  0  0  0  0  0  0  0  0  0  0  0
   -1.4667    1.1509    1.8154 H   0  0  0  0  0  0  0  0  0  0  0  0
   -1.3718    1.9386    0.2250 H   0  0  0  0  0  0  0  0  0  0  0  0
    0.3392    0.7105    0.6772 C   0  0  0  0  0  0  0  0  0  0  0  0
    0.6453    0.0253    1.4753 H   0  0  0  0  0  0  0  0  0  0  0  0
    0.9586    1.6115    0.7279 H   0  0  0  0  0  0  0  0  0  0  0  0
    0.4303    0.0158   -0.6745 C   0  0  1  0  0  0  0  0  0  0  0  0
    0.4513    0.8331   -1.4018 H   0  0  0  0  0  0  0  0  0  0  0  0
    1.7732   -0.6901   -0.9868 C   0  0  0  0  0  0  0  0  0  0  0  0
    1.9971   -1.8017   -0.5221 O   0  0  0  0  0  0  0  0  0  0  0  0
    2.8770    0.0839   -1.3084 N   0  0  0  0  0  0  0  0  0  0  0  0
    2.7031    1.0244   -1.6480 H   0  0  0  0  0  0  0  0  0  0  0  0
    4.2314   -0.4508   -1.3948 C   0  0  0  0  0  0  0  0  0  0  0  0
    4.2726   -1.2753   -2.1143 H   0  0  0  0  0  0  0  0  0  0  0  0
    4.9261    0.3286   -1.7220 H   0  0  0  0  0  0  0  0  0  0  0  0
    4.5613   -0.8188   -0.4175 H   0  0  0  0  0  0  0  0  0  0  0  0
  1  2  1  0  0  0  0
  2  3  1  0  0  0  0
  2  4  1  0  0  0  0
  2  5  1  0  0  0  0
  5  6  2  0  0  0  0
  5  7  1  0  0  0  0
  7  8  1  0  0  0  0
  7 17  1  0  0  0  0
  8  9  1  0  0  0  0
  8 10  1  0  0  0  0
  8 11  1  0  0  0  0
 11 12  1  0  0  0  0
 11 13  1  0  0  0  0
 11 14  1  0  0  0  0
 14 15  1  0  0  0  0
 14 16  1  0  0  0  0
 14 17  1  0  0  0  0
 17 18  1  0  0  0  0
 17 19  1  0  0  0  0
 19 20  2  0  0  0  0
 19 21  1  0  0  0  0
 21 22  1  0  0  0  0
 21 23  1  0  0  0  0
 23 24  1  0  0  0  0
 23 25  1  0  0  0  0
 23 26  1  0  0  0  0
M  END
$$$$

  -OEChem-01062216093D

 26 26  0     1  0  0  0  0  0999 V2000
   -1.8990   -3.8869   -1.1535 H   0  0  0  0  0  0  0  0  0  0  0  0
   -1.9340   -2.9341   -0.6176 C   0  0  0  0  0  0  0  0  0  0  0  0
   -1.6272   -3.1119    0.4157 H   0  0  0  0  0  0  0  0  0  0  0  0
   -2.9619   -2.5648   -0.6367 H   0  0  0  0  0  0  0  0  0  0  0  0
   -0.9921   -1.9299   -1.2784 C   0  0  0  0  0  0  0  0  0  0  0  0
   -0.4672   -2.2824   -2.3246 O   0  0  0  0  0  0  0  0  0  0  0  0
   -0.9064   -0.5651   -0.9794 N   0  0  0  0  0  0  0  0  0  0  0  0
   -1.8230   -0.1268    0.0862 C   0  0  0  0  0  0  0  0  0  0  0  0
   -1.9823   -0.8944    0.8493 H   0  0  0  0  0  0  0  0  0  0  0  0
   -2.7953    0.1686   -0.3220 H   0  0  0  0  0  0  0  0  0  0  0  0
   -1.1360    1.0406    0.7523 C   0  0  0  0  0  0  0  0  0  0  0  0
   -1.4595    1.1692    1.7900 H   0  0  0  0  0  0  0  0  0  0  0  0
   -1.3547    1.9621    0.2025 H   0  0  0  0  0  0  0  0  0  0  0  0
    0.3434    0.7155    0.6527 C   0  0  0  0  0  0  0  0  0  0  0  0
    0.6412    0.0243    1.4488 H   0  0  0  0  0  0  0  0  0  0  0  0
    0.9692    1.6117    0.7102 H   0  0  0  0  0  0  0  0  0  0  0  0
    0.4333    0.0242   -0.7022 C   0  0  1  0  0  0  0  0  0  0  0  0
    0.4613    0.8429   -1.4280 H   0  0  0  0  0  0  0  0  0  0  0  0
    1.7834   -0.6730   -1.0145 C   0  0  0  0  0  0  0  0  0  0  0  0
    1.9438   -1.8667   -0.7942 O   0  0  0  0  0  0  0  0  0  0  0  0
    2.9322    0.1029   -1.0092 N   0  0  0  0  0  0  0  0  0  0  0  0
    2.8182    1.1064   -1.1093 H   0  0  0  0  0  0  0  0  0  0  0  0
    4.2815   -0.4520   -1.0254 C   0  0  0  0  0  0  0  0  0  0  0  0
    4.4088   -1.1280   -1.8776 H   0  0  0  0  0  0  0  0  0  0  0  0
    5.0196    0.3514   -1.1091 H   0  0  0  0  0  0  0  0  0  0  0  0
    4.4782   -1.0075   -0.1024 H   0  0  0  0  0  0  0  0  0  0  0  0
  1  2  1  0  0  0  0
  2  3  1  0  0  0  0
  2  4  1  0  0  0  0
  2  5  1  0  0  0  0
  5  6  2  0  0  0  0
  5  7  1  0  0  0  0
  7  8  1  0  0  0  0
  7 17  1  0  0  0  0
  8  9  1  0  0  0  0
  8 10  1  0  0  0  0
  8 11  1  0  0  0  0
 11 12  1  0  0  0  0
 11 13  1  0  0  0  0
 11 14  1  0  0  0  0
 14 15  1  0  0  0  0
 14 16  1  0  0  0  0
 14 17  1  0  0  0  0
 17 18  1  0  0  0  0
 17 19  1  0  0  0  0
 19 20  2  0  0  0  0
 19 21  1  0  0  0  0
 21 22  1  0  0  0  0
 21 23  1  0  0  0  0
 23 24  1  0  0  0  0
 23 25  1  0  0  0  0
 23 26  1  0  0  0  0
M  END
$$$$

  -OEChem-01062216093D

 26 26  0     1  0  0  0  0  0999 V2000
   -1.4194   -4.0089   -1.0938 H   0  0  0  0  0  0  0  0  0  0  0  0
   -1.4888   -2.9657   -1.4131 C   0  0  0  0  0  0  0  0  0  0  0  0
   -2.5313   -2.7302   -1.6373 H   0  0  0  0  0  0  0  0  0  0  0  0
   -0.8902   -2.8341   -2.3180 H   0  0  0  0  0  0  0  0  0  0  0  0
   -0.9723   -2.0464   -0.3208 C   0  0  0  0  0  0  0  0  0  0  0  0
   -0.5586   -2.5269    0.7304 O   0  0  0  0  0  0  0  0  0  0  0  0
   -1.0003   -0.6650   -0.5164 N   0  0  0  0  0  0  0  0  0  0  0  0
   -1.8586   -0.0583    0.5224 C   0  0  0  0  0  0  0  0  0  0  0  0
   -2.0039   -0.6941    1.4041 H   0  0  0  0  0  0  0  0  0  0  0  0
   -2.8476    0.1798    0.1174 H   0  0  0  0  0  0  0  0  0  0  0  0
   -1.1374    1.1978    0.9380 C   0  0  0  0  0  0  0  0  0  0  0  0
   -1.3845    1.4849    1.9650 H   0  0  0  0  0  0  0  0  0  0  0  0
   -1.4180    2.0202    0.2717 H   0  0  0  0  0  0  0  0  0  0  0  0
    0.3413    0.8857    0.7781 C   0  0  0  0  0  0  0  0  0  0  0  0
    0.7139    0.3341    1.6482 H   0  0  0  0  0  0  0  0  0  0  0  0
    0.9435    1.7893    0.6408 H   0  0  0  0  0  0  0  0  0  0  0  0
    0.3360   -0.0136   -0.4507 C   0  0  1  0  0  0  0  0  0  0  0  0
    0.2708    0.6978   -1.2803 H   0  0  0  0  0  0  0  0  0  0  0  0
    1.6480   -0.7398   -0.8506 C   0  0  0  0  0  0  0  0  0  0  0  0
    1.6434   -1.7818   -1.4944 O   0  0  0  0  0  0  0  0  0  0  0  0
    2.8485   -0.0558   -0.7542 N   0  0  0  0  0  0  0  0  0  0  0  0
    2.8471    0.8249   -0.2497 H   0  0  0  0  0  0  0  0  0  0  0  0
    4.1210   -0.5957   -1.2199 C   0  0  0  0  0  0  0  0  0  0  0  0
    4.0855   -0.7873   -2.2975 H   0  0  0  0  0  0  0  0  0  0  0  0
    4.9282    0.1161   -1.0229 H   0  0  0  0  0  0  0  0  0  0  0  0
    4.3517   -1.5329   -0.7023 H   0  0  0  0  0  0  0  0  0  0  0  0
  1  2  1  0  0  0  0
  2  3  1  0  0  0  0
  2  4  1  0  0  0  0
  2  5  1  0  0  0  0
  5  6  2  0  0  0  0
  5  7  1  0  0  0  0
  7  8  1  0  0  0  0
  7 17  1  0  0  0  0
  8  9  1  0  0  0  0
  8 10  1  0  0  0  0
  8 11  1  0  0  0  0
 11 12  1  0  0  0  0
 11 13  1  0  0  0  0
 11 14  1  0  0  0  0
 14 15  1  0  0  0  0
 14 16  1  0  0  0  0
 14 17  1  0  0  0  0
 17 18  1  0  0  0  0
 17 19  1  0  0  0  0
 19 20  2  0  0  0  0
 19 21  1  0  0  0  0
 21 22  1  0  0  0  0
 21 23  1  0  0  0  0
 23 24  1  0  0  0  0
 23 25  1  0  0  0  0
 23 26  1  0  0  0  0
M  END
$$$$

  -OEChem-01062216093D

 26 26  0     1  0  0  0  0  0999 V2000
   -1.4948   -3.9960   -1.0446 H   0  0  0  0  0  0  0  0  0  0  0  0
   -1.5430   -2.9587   -1.3864 C   0  0  0  0  0  0  0  0  0  0  0  0
   -2.5882   -2.6832   -1.5428 H   0  0  0  0  0  0  0  0  0  0  0  0
   -1.0053   -2.8738   -2.3340 H   0  0  0  0  0  0  0  0  0  0  0  0
   -0.9108   -2.0368   -0.3598 C   0  0  0  0  0  0  0  0  0  0  0  0
   -0.3901   -2.5114    0.6455 O   0  0  0  0  0  0  0  0  0  0  0  0
   -0.9699   -0.6560   -0.5467 N   0  0  0  0  0  0  0  0  0  0  0  0
   -1.8505   -0.0918    0.4950 C   0  0  0  0  0  0  0  0  0  0  0  0
   -1.9804   -0.7499    1.3633 H   0  0  0  0  0  0  0  0  0  0  0  0
   -2.8434    0.1261    0.0881 H   0  0  0  0  0  0  0  0  0  0  0  0
   -1.1650    1.1755    0.9379 C   0  0  0  0  0  0  0  0  0  0  0  0
   -1.4273    1.4390    1.9673 H   0  0  0  0  0  0  0  0  0  0  0  0
   -1.4616    2.0014    0.2829 H   0  0  0  0  0  0  0  0  0  0  0  0
    0.3227    0.9042    0.7844 C   0  0  0  0  0  0  0  0  0  0  0  0
    0.7024    0.3475    1.6482 H   0  0  0  0  0  0  0  0  0  0  0  0
    0.9029    1.8247    0.6659 H   0  0  0  0  0  0  0  0  0  0  0  0
    0.3484    0.0264   -0.4602 C   0  0  1  0  0  0  0  0  0  0  0  0
    0.2857    0.7506   -1.2788 H   0  0  0  0  0  0  0  0  0  0  0  0
    1.6626   -0.6946   -0.8558 C   0  0  0  0  0  0  0  0  0  0  0  0
    1.6637   -1.5869   -1.6960 O   0  0  0  0  0  0  0  0  0  0  0  0
    2.8804   -0.1577   -0.4740 N   0  0  0  0  0  0  0  0  0  0  0  0
    2.8677    0.5696    0.2339 H   0  0  0  0  0  0  0  0  0  0  0  0
    4.1637   -0.7199   -0.8783 C   0  0  0  0  0  0  0  0  0  0  0  0
    4.2630   -0.7059   -1.9688 H   0  0  0  0  0  0  0  0  0  0  0  0
    4.9837   -0.1353   -0.4507 H   0  0  0  0  0  0  0  0  0  0  0  0
    4.2559   -1.7537   -0.5290 H   0  0  0  0  0  0  0  0  0  0  0  0
  1  2  1  0  0  0  0
  2  3  1  0  0  0  0
  2  4  1  0  0  0  0
  2  5  1  0  0  0  0
  5  6  2  0  0  0  0
  5  7  1  0  0  0  0
  7  8  1  0  0  0  0
  7 17  1  0  0  0  0
  8  9  1  0  0  0  0
  8 10  1  0  0  0  0
  8 11  1  0  0  0  0
 11 12  1  0  0  0  0
 11 13  1  0  0  0  0
 11 14  1  0  0  0  0
 14 15  1  0  0  0  0
 14 16  1  0  0  0  0
 14 17  1  0  0  0  0
 17 18  1  0  0  0  0
 17 19  1  0  0  0  0
 19 20  2  0  0  0  0
 19 21  1  0  0  0  0
 21 22  1  0  0  0  0
 21 23  1  0  0  0  0
 23 24  1  0  0  0  0
 23 25  1  0  0  0  0
 23 26  1  0  0  0  0
M  END
$$$$

  -OEChem-01062216093D

 26 26  0     1  0  0  0  0  0999 V2000
   -1.5414   -3.9716   -1.0059 H   0  0  0  0  0  0  0  0  0  0  0  0
   -1.5393   -2.9453   -1.3826 C   0  0  0  0  0  0  0  0  0  0  0  0
   -2.5704   -2.6275   -1.5524 H   0  0  0  0  0  0  0  0  0  0  0  0
   -0.9961   -2.9164   -2.3306 H   0  0  0  0  0  0  0  0  0  0  0  0
   -0.8669   -2.0198   -0.3855 C   0  0  0  0  0  0  0  0  0  0  0  0
   -0.2869   -2.4924    0.5879 O   0  0  0  0  0  0  0  0  0  0  0  0
   -0.9525   -0.6391   -0.5614 N   0  0  0  0  0  0  0  0  0  0  0  0
   -1.8481   -0.1082    0.4844 C   0  0  0  0  0  0  0  0  0  0  0  0
   -1.9650   -0.7823    1.3423 H   0  0  0  0  0  0  0  0  0  0  0  0
   -2.8446    0.0947    0.0783 H   0  0  0  0  0  0  0  0  0  0  0  0
   -1.1896    1.1666    0.9474 C   0  0  0  0  0  0  0  0  0  0  0  0
   -1.4609    1.4105    1.9794 H   0  0  0  0  0  0  0  0  0  0  0  0
   -1.4997    1.9955    0.3025 H   0  0  0  0  0  0  0  0  0  0  0  0
    0.3040    0.9275    0.7955 C   0  0  0  0  0  0  0  0  0  0  0  0
    0.6897    0.3670    1.6539 H   0  0  0  0  0  0  0  0  0  0  0  0
    0.8675    1.8602    0.6910 H   0  0  0  0  0  0  0  0  0  0  0  0
    0.3510    0.0679   -0.4612 C   0  0  1  0  0  0  0  0  0  0  0  0
    0.2847    0.8027   -1.2702 H   0  0  0  0  0  0  0  0  0  0  0  0
    1.6669   -0.6458   -0.8598 C   0  0  0  0  0  0  0  0  0  0  0  0
    1.6963   -1.3867   -1.8357 O   0  0  0  0  0  0  0  0  0  0  0  0
    2.8592   -0.3132   -0.2405 N   0  0  0  0  0  0  0  0  0  0  0  0
    2.7994    0.2403    0.6082 H   0  0  0  0  0  0  0  0  0  0  0  0
    4.1306   -0.9440   -0.5742 C   0  0  0  0  0  0  0  0  0  0  0  0
    4.3637   -0.8023   -1.6347 H   0  0  0  0  0  0  0  0  0  0  0  0
    4.9384   -0.5018    0.0166 H   0  0  0  0  0  0  0  0  0  0  0  0
    4.0921   -2.0177   -0.3621 H   0  0  0  0  0  0  0  0  0  0  0  0
  1  2  1  0  0  0  0
  2  3  1  0  0  0  0
  2  4  1  0  0  0  0
  2  5  1  0  0  0  0
  5  6  2  0  0  0  0
  5  7  1  0  0  0  0
  7  8  1  0  0  0  0
  7 17  1  0  0  0  0
  8  9  1  0  0  0  0
  8 10  1  0  0  0  0
  8 11  1  0  0  0  0
 11 12  1  0  0  0  0
 11 13  1  0  0  0  0
 11 14  1  0  0  0  0
 14 15  1  0  0  0  0
 14 16  1  0  0  0  0
 14 17  1  0  0  0  0
 17 18  1  0  0  0  0
 17 19  1  0  0  0  0
 19 20  2  0  0  0  0
 19 21  1  0  0  0  0
 21 22  1  0  0  0  0
 21 23  1  0  0  0  0
 23 24  1  0  0  0  0
 23 25  1  0  0  0  0
 23 26  1  0  0  0  0
M  END
$$$$

  -OEChem-01062216093D

 26 26  0     1  0  0  0  0  0999 V2000
   -1.5372   -3.9666   -1.0106 H   0  0  0  0  0  0  0  0  0  0  0  0
   -1.6422   -2.9266   -1.3309 C   0  0  0  0  0  0  0  0  0  0  0  0
   -2.6945   -2.6405   -1.2694 H   0  0  0  0  0  0  0  0  0  0  0  0
   -1.3095   -2.8411   -2.3684 H   0  0  0  0  0  0  0  0  0  0  0  0
   -0.8023   -2.0176   -0.4516 C   0  0  0  0  0  0  0  0  0  0  0  0
   -0.1344   -2.5034    0.4561 O   0  0  0  0  0  0  0  0  0  0  0  0
   -0.8947   -0.6351   -0.6056 N   0  0  0  0  0  0  0  0  0  0  0  0
   -1.8276   -0.1440    0.4252 C   0  0  0  0  0  0  0  0  0  0  0  0
   -1.9419   -0.8368    1.2689 H   0  0  0  0  0  0  0  0  0  0  0  0
   -2.8202    0.0400    0.0010 H   0  0  0  0  0  0  0  0  0  0  0  0
   -1.2113    1.1389    0.9240 C   0  0  0  0  0  0  0  0  0  0  0  0
   -1.5131    1.3605    1.9523 H   0  0  0  0  0  0  0  0  0  0  0  0
   -1.5256    1.9705    0.2842 H   0  0  0  0  0  0  0  0  0  0  0  0
    0.2913    0.9379    0.8052 C   0  0  0  0  0  0  0  0  0  0  0  0
    0.6675    0.3745    1.6656 H   0  0  0  0  0  0  0  0  0  0  0  0
    0.8367    1.8841    0.7287 H   0  0  0  0  0  0  0  0  0  0  0  0
    0.3886    0.1001   -0.4637 C   0  0  1  0  0  0  0  0  0  0  0  0
    0.3264    0.8471   -1.2620 H   0  0  0  0  0  0  0  0  0  0  0  0
    1.7216   -0.5889   -0.8444 C   0  0  0  0  0  0  0  0  0  0  0  0
    1.8308   -1.1415   -1.9328 O   0  0  0  0  0  0  0  0  0  0  0  0
    2.8293   -0.4955   -0.0203 N   0  0  0  0  0  0  0  0  0  0  0  0
    2.6660   -0.1593    0.9235 H   0  0  0  0  0  0  0  0  0  0  0  0
    4.0800   -1.1889   -0.3025 C   0  0  0  0  0  0  0  0  0  0  0  0
    4.4789   -0.8815   -1.2750 H   0  0  0  0  0  0  0  0  0  0  0  0
    4.8244   -0.9530    0.4638 H   0  0  0  0  0  0  0  0  0  0  0  0
    3.9222   -2.2726   -0.3126 H   0  0  0  0  0  0  0  0  0  0  0  0
  1  2  1  0  0  0  0
  2  3  1  0  0  0  0
  2  4  1  0  0  0  0
  2  5  1  0  0  0  0
  5  6  2  0  0  0  0
  5  7  1  0  0  0  0
  7  8  1  0  0  0  0
  7 17  1  0  0  0  0
  8  9  1  0  0  0  0
  8 10  1  0  0  0  0
  8 11  1  0  0  0  0
 11 12  1  0  0  0  0
 11 13  1  0  0  0  0
 11 14  1  0  0  0  0
 14 15  1  0  0  0  0
 14 16  1  0  0  0  0
 14 17  1  0  0  0  0
 17 18  1  0  0  0  0
 17 19  1  0  0  0  0
 19 20  2  0  0  0  0
 19 21  1  0  0  0  0
 21 22  1  0  0  0  0
 21 23  1  0  0  0  0
 23 24  1  0  0  0  0
 23 25  1  0  0  0  0
 23 26  1  0  0  0  0
M  END
$$$$

  -OEChem-01062216093D

 26 26  0     1  0  0  0  0  0999 V2000
   -1.4688   -3.9677   -1.1006 H   0  0  0  0  0  0  0  0  0  0  0  0
   -1.7166   -2.9159   -1.2673 C   0  0  0  0  0  0  0  0  0  0  0  0
   -2.7467   -2.7386   -0.9501 H   0  0  0  0  0  0  0  0  0  0  0  0
   -1.6301   -2.6996   -2.3349 H   0  0  0  0  0  0  0  0  0  0  0  0
   -0.7681   -2.0225   -0.4872 C   0  0  0  0  0  0  0  0  0  0  0  0
   -0.0400   -2.5220    0.3644 O   0  0  0  0  0  0  0  0  0  0  0  0
   -0.8485   -0.6386   -0.6368 N   0  0  0  0  0  0  0  0  0  0  0  0
   -1.8144   -0.1557    0.3661 C   0  0  0  0  0  0  0  0  0  0  0  0
   -1.9400   -0.8486    1.2085 H   0  0  0  0  0  0  0  0  0  0  0  0
   -2.7976    0.0159   -0.0845 H   0  0  0  0  0  0  0  0  0  0  0  0
   -1.2247    1.1348    0.8782 C   0  0  0  0  0  0  0  0  0  0  0  0
   -1.5571    1.3565    1.8971 H   0  0  0  0  0  0  0  0  0  0  0  0
   -1.5297    1.9611    0.2274 H   0  0  0  0  0  0  0  0  0  0  0  0
    0.2831    0.9499    0.8016 C   0  0  0  0  0  0  0  0  0  0  0  0
    0.6424    0.3952    1.6745 H   0  0  0  0  0  0  0  0  0  0  0  0
    0.8200    1.9017    0.7356 H   0  0  0  0  0  0  0  0  0  0  0  0
    0.4225    0.1103   -0.4618 C   0  0  1  0  0  0  0  0  0  0  0  0
    0.3704    0.8575   -1.2609 H   0  0  0  0  0  0  0  0  0  0  0  0
    1.7715   -0.5626   -0.8100 C   0  0  0  0  0  0  0  0  0  0  0  0
    1.9973   -0.9034   -1.9650 O   0  0  0  0  0  0  0  0  0  0  0  0
    2.7504   -0.7272    0.1536 N   0  0  0  0  0  0  0  0  0  0  0  0
    2.4396   -0.6377    1.1162 H   0  0  0  0  0  0  0  0  0  0  0  0
    3.9766   -1.4722   -0.1017 C   0  0  0  0  0  0  0  0  0  0  0  0
    4.5283   -1.0304   -0.9381 H   0  0  0  0  0  0  0  0  0  0  0  0
    4.6206   -1.4532    0.7826 H   0  0  0  0  0  0  0  0  0  0  0  0
    3.7462   -2.5153   -0.3427 H   0  0  0  0  0  0  0  0  0  0  0  0
  1  2  1  0  0  0  0
  2  3  1  0  0  0  0
  2  4  1  0  0  0  0
  2  5  1  0  0  0  0
  5  6  2  0  0  0  0
  5  7  1  0  0  0  0
  7  8  1  0  0  0  0
  7 17  1  0  0  0  0
  8  9  1  0  0  0  0
  8 10  1  0  0  0  0
  8 11  1  0  0  0  0
 11 12  1  0  0  0  0
 11 13  1  0  0  0  0
 11 14  1  0  0  0  0
 14 15  1  0  0  0  0
 14 16  1  0  0  0  0
 14 17  1  0  0  0  0
 17 18  1  0  0  0  0
 17 19  1  0  0  0  0
 19 20  2  0  0  0  0
 19 21  1  0  0  0  0
 21 22  1  0  0  0  0
 21 23  1  0  0  0  0
 23 24  1  0  0  0  0
 23 25  1  0  0  0  0
 23 26  1  0  0  0  0
M  END
$$$$

  -OEChem-01062216093D

 26 26  0     1  0  0  0  0  0999 V2000
   -1.5292   -3.9585   -1.1323 H   0  0  0  0  0  0  0  0  0  0  0  0
   -1.8053   -2.9036   -1.2131 C   0  0  0  0  0  0  0  0  0  0  0  0
   -2.7937   -2.7598   -0.7708 H   0  0  0  0  0  0  0  0  0  0  0  0
   -1.8458   -2.6320   -2.2708 H   0  0  0  0  0  0  0  0  0  0  0  0
   -0.7809   -2.0372   -0.4996 C   0  0  0  0  0  0  0  0  0  0  0  0
   -0.0216   -2.5602    0.3086 O   0  0  0  0  0  0  0  0  0  0  0  0
   -0.8266   -0.6519   -0.6499 N   0  0  0  0  0  0  0  0  0  0  0  0
   -1.8098   -0.1537    0.3286 C   0  0  0  0  0  0  0  0  0  0  0  0
   -1.9562   -0.8394    1.1735 H   0  0  0  0  0  0  0  0  0  0  0  0
   -2.7827    0.0224   -0.1422 H   0  0  0  0  0  0  0  0  0  0  0  0
   -1.2208    1.1359    0.8438 C   0  0  0  0  0  0  0  0  0  0  0  0
   -1.5725    1.3679    1.8539 H   0  0  0  0  0  0  0  0  0  0  0  0
   -1.5053    1.9601    0.1810 H   0  0  0  0  0  0  0  0  0  0  0  0
    0.2872    0.9398    0.8006 C   0  0  0  0  0  0  0  0  0  0  0  0
    0.6267    0.3900    1.6844 H   0  0  0  0  0  0  0  0  0  0  0  0
    0.8328    1.8871    0.7375 H   0  0  0  0  0  0  0  0  0  0  0  0
    0.4460    0.0903   -0.4528 C   0  0  1  0  0  0  0  0  0  0  0  0
    0.4060    0.8343   -1.2560 H   0  0  0  0  0  0  0  0  0  0  0  0
    1.8065   -0.5767   -0.7683 C   0  0  0  0  0  0  0  0  0  0  0  0
    2.1861   -0.6636   -1.9300 O   0  0  0  0  0  0  0  0  0  0  0  0
    2.6302   -1.0126    0.2537 N   0  0  0  0  0  0  0  0  0  0  0  0
    2.1567   -1.1853    1.1369 H   0  0  0  0  0  0  0  0  0  0  0  0
    3.8660   -1.7409   -0.0039 C   0  0  0  0  0  0  0  0  0  0  0  0
    4.5455   -1.1399   -0.6174 H   0  0  0  0  0  0  0  0  0  0  0  0
    4.3699   -1.9734    0.9391 H   0  0  0  0  0  0  0  0  0  0  0  0
    3.6548   -2.6796   -0.5268 H   0  0  0  0  0  0  0  0  0  0  0  0
  1  2  1  0  0  0  0
  2  3  1  0  0  0  0
  2  4  1  0  0  0  0
  2  5  1  0  0  0  0
  5  6  2  0  0  0  0
  5  7  1  0  0  0  0
  7  8  1  0  0  0  0
  7 17  1  0  0  0  0
  8  9  1  0  0  0  0
  8 10  1  0  0  0  0
  8 11  1  0  0  0  0
 11 12  1  0  0  0  0
 11 13  1  0  0  0  0
 11 14  1  0  0  0  0
 14 15  1  0  0  0  0
 14 16  1  0  0  0  0
 14 17  1  0  0  0  0
 17 18  1  0  0  0  0
 17 19  1  0  0  0  0
 19 20  2  0  0  0  0
 19 21  1  0  0  0  0
 21 22  1  0  0  0  0
 21 23  1  0  0  0  0
 23 24  1  0  0  0  0
 23 25  1  0  0  0  0
 23 26  1  0  0  0  0
M  END
$$$$

  -OEChem-01062216093D

 26 26  0     1  0  0  0  0  0999 V2000
   -1.6160   -3.9361   -1.2271 H   0  0  0  0  0  0  0  0  0  0  0  0
   -1.9097   -2.8838   -1.1832 C   0  0  0  0  0  0  0  0  0  0  0  0
   -2.8440   -2.7981   -0.6234 H   0  0  0  0  0  0  0  0  0  0  0  0
   -2.0712   -2.5229   -2.2021 H   0  0  0  0  0  0  0  0  0  0  0  0
   -0.8193   -2.0640   -0.5129 C   0  0  0  0  0  0  0  0  0  0  0  0
   -0.0473   -2.6276    0.2534 O   0  0  0  0  0  0  0  0  0  0  0  0
   -0.8153   -0.6773   -0.6562 N   0  0  0  0  0  0  0  0  0  0  0  0
   -1.8113   -0.1579    0.2983 C   0  0  0  0  0  0  0  0  0  0  0  0
   -1.9807   -0.8345    1.1464 H   0  0  0  0  0  0  0  0  0  0  0  0
   -2.7730    0.0260   -0.1924 H   0  0  0  0  0  0  0  0  0  0  0  0
   -1.2168    1.1285    0.8145 C   0  0  0  0  0  0  0  0  0  0  0  0
   -1.5858    1.3732    1.8156 H   0  0  0  0  0  0  0  0  0  0  0  0
   -1.4783    1.9503    0.1393 H   0  0  0  0  0  0  0  0  0  0  0  0
    0.2894    0.9148    0.8032 C   0  0  0  0  0  0  0  0  0  0  0  0
    0.6093    0.3689    1.6966 H   0  0  0  0  0  0  0  0  0  0  0  0
    0.8462    1.8555    0.7420 H   0  0  0  0  0  0  0  0  0  0  0  0
    0.4625    0.0533   -0.4387 C   0  0  1  0  0  0  0  0  0  0  0  0
    0.4315    0.7922   -1.2474 H   0  0  0  0  0  0  0  0  0  0  0  0
    1.8371   -0.6011   -0.7236 C   0  0  0  0  0  0  0  0  0  0  0  0
    2.3916   -0.4123   -1.7998 O   0  0  0  0  0  0  0  0  0  0  0  0
    2.4986   -1.3022    0.2673 N   0  0  0  0  0  0  0  0  0  0  0  0
    1.8770   -1.7009    0.9706 H   0  0  0  0  0  0  0  0  0  0  0  0
    3.7593   -1.9905    0.0213 C   0  0  0  0  0  0  0  0  0  0  0  0
    4.5169   -1.2886   -0.3425 H   0  0  0  0  0  0  0  0  0  0  0  0
    4.1278   -2.4424    0.9470 H   0  0  0  0  0  0  0  0  0  0  0  0
    3.6243   -2.7813   -0.7238 H   0  0  0  0  0  0  0  0  0  0  0  0
  1  2  1  0  0  0  0
  2  3  1  0  0  0  0
  2  4  1  0  0  0  0
  2  5  1  0  0  0  0
  5  6  2  0  0  0  0
  5  7  1  0  0  0  0
  7  8  1  0  0  0  0
  7 17  1  0  0  0  0
  8  9  1  0  0  0  0
  8 10  1  0  0  0  0
  8 11  1  0  0  0  0
 11 12  1  0  0  0  0
 11 13  1  0  0  0  0
 11 14  1  0  0  0  0
 14 15  1  0  0  0  0
 14 16  1  0  0  0  0
 14 17  1  0  0  0  0
 17 18  1  0  0  0  0
 17 19  1  0  0  0  0
 19 20  2  0  0  0  0
 19 21  1  0  0  0  0
 21 22  1  0  0  0  0
 21 23  1  0  0  0  0
 23 24  1  0  0  0  0
 23 25  1  0  0  0  0
 23 26  1  0  0  0  0
M  END
$$$$

  -OEChem-01062216093D

 26 26  0     1  0  0  0  0  0999 V2000
   -1.9811   -3.8308   -1.3832 H   0  0  0  0  0  0  0  0  0  0  0  0
   -2.1928   -2.8143   -1.0401 C   0  0  0  0  0  0  0  0  0  0  0  0
   -2.8882   -2.8630   -0.1989 H   0  0  0  0  0  0  0  0  0  0  0  0
   -2.6600   -2.2617   -1.8593 H   0  0  0  0  0  0  0  0  0  0  0  0
   -0.9006   -2.1274   -0.6172 C   0  0  0  0  0  0  0  0  0  0  0  0
    0.0072   -2.8399   -0.2172 O   0  0  0  0  0  0  0  0  0  0  0  0
   -0.7876   -0.7366   -0.6874 N   0  0  0  0  0  0  0  0  0  0  0  0
   -1.8221   -0.1721    0.1972 C   0  0  0  0  0  0  0  0  0  0  0  0
   -2.0547   -0.8334    1.0417 H   0  0  0  0  0  0  0  0  0  0  0  0
   -2.7485    0.0360   -0.3487 H   0  0  0  0  0  0  0  0  0  0  0  0
   -1.2163    1.1012    0.7318 C   0  0  0  0  0  0  0  0  0  0  0  0
   -1.6342    1.3718    1.7064 H   0  0  0  0  0  0  0  0  0  0  0  0
   -1.4121    1.9218    0.0333 H   0  0  0  0  0  0  0  0  0  0  0  0
    0.2819    0.8439    0.8111 C   0  0  0  0  0  0  0  0  0  0  0  0
    0.5375    0.3008    1.7269 H   0  0  0  0  0  0  0  0  0  0  0  0
    0.8686    1.7676    0.7692 H   0  0  0  0  0  0  0  0  0  0  0  0
    0.5003   -0.0387   -0.4067 C   0  0  1  0  0  0  0  0  0  0  0  0
    0.4895    0.6937   -1.2222 H   0  0  0  0  0  0  0  0  0  0  0  0
    1.9134   -0.6326   -0.6464 C   0  0  0  0  0  0  0  0  0  0  0  0
    2.6534   -0.1123   -1.4742 O   0  0  0  0  0  0  0  0  0  0  0  0
    2.4369   -1.5925    0.1989 N   0  0  0  0  0  0  0  0  0  0  0  0
    1.7235   -2.1866    0.6250 H   0  0  0  0  0  0  0  0  0  0  0  0
    3.7570   -2.1748   -0.0057 C   0  0  0  0  0  0  0  0  0  0  0  0
    4.5306   -1.4017    0.0470 H   0  0  0  0  0  0  0  0  0  0  0  0
    3.9628   -2.9205    0.7681 H   0  0  0  0  0  0  0  0  0  0  0  0
    3.8122   -2.6639   -0.9838 H   0  0  0  0  0  0  0  0  0  0  0  0
  1  2  1  0  0  0  0
  2  3  1  0  0  0  0
  2  4  1  0  0  0  0
  2  5  1  0  0  0  0
  5  6  2  0  0  0  0
  5  7  1  0  0  0  0
  7  8  1  0  0  0  0
  7 17  1  0  0  0  0
  8  9  1  0  0  0  0
  8 10  1  0  0  0  0
  8 11  1  0  0  0  0
 11 12  1  0  0  0  0
 11 13  1  0  0  0  0
 11 14  1  0  0  0  0
 14 15  1  0  0  0  0
 14 16  1  0  0  0  0
 14 17  1  0  0  0  0
 17 18  1  0  0  0  0
 17 19  1  0  0  0  0
 19 20  2  0  0  0  0
 19 21  1  0  0  0  0
 21 22  1  0  0  0  0
 21 23  1  0  0  0  0
 23 24  1  0  0  0  0
 23 25  1  0  0  0  0
 23 26  1  0  0  0  0
M  END
$$$$

  -OEChem-01062216093D

 26 26  0     1  0  0  0  0  0999 V2000
   -2.2236   -3.7886   -1.3512 H   0  0  0  0  0  0  0  0  0  0  0  0
   -2.3483   -2.7710   -0.9705 C   0  0  0  0  0  0  0  0  0  0  0  0
   -2.9644   -2.8072   -0.0690 H   0  0  0  0  0  0  0  0  0  0  0  0
   -2.8611   -2.1782   -1.7320 H   0  0  0  0  0  0  0  0  0  0  0  0
   -0.9868   -2.1579   -0.6581 C   0  0  0  0  0  0  0  0  0  0  0  0
   -0.0700   -2.9385   -0.4639 O   0  0  0  0  0  0  0  0  0  0  0  0
   -0.8033   -0.7715   -0.6894 N   0  0  0  0  0  0  0  0  0  0  0  0
   -1.8384   -0.1607    0.1646 C   0  0  0  0  0  0  0  0  0  0  0  0
   -2.1052   -0.8037    1.0129 H   0  0  0  0  0  0  0  0  0  0  0  0
   -2.7473    0.0683   -0.4023 H   0  0  0  0  0  0  0  0  0  0  0  0
   -1.2085    1.1009    0.6975 C   0  0  0  0  0  0  0  0  0  0  0  0
   -1.6418    1.3969    1.6580 H   0  0  0  0  0  0  0  0  0  0  0  0
   -1.3617    1.9177   -0.0158 H   0  0  0  0  0  0  0  0  0  0  0  0
    0.2775    0.7975    0.8178 C   0  0  0  0  0  0  0  0  0  0  0  0
    0.4954    0.2606    1.7469 H   0  0  0  0  0  0  0  0  0  0  0  0
    0.8927    1.7026    0.7770 H   0  0  0  0  0  0  0  0  0  0  0  0
    0.5001   -0.1083   -0.3819 C   0  0  1  0  0  0  0  0  0  0  0  0
    0.5090    0.6112   -1.2089 H   0  0  0  0  0  0  0  0  0  0  0  0
    1.9291   -0.6780   -0.5956 C   0  0  0  0  0  0  0  0  0  0  0  0
    2.7631    0.0241   -1.1572 O   0  0  0  0  0  0  0  0  0  0  0  0
    2.3663   -1.8363    0.0173 N   0  0  0  0  0  0  0  0  0  0  0  0
    1.6176   -2.4920    0.2508 H   0  0  0  0  0  0  0  0  0  0  0  0
    3.7057   -2.3773   -0.1737 C   0  0  0  0  0  0  0  0  0  0  0  0
    4.4613   -1.6626    0.1689 H   0  0  0  0  0  0  0  0  0  0  0  0
    3.8223   -3.3019    0.3997 H   0  0  0  0  0  0  0  0  0  0  0  0
    3.8821   -2.5988   -1.2314 H   0  0  0  0  0  0  0  0  0  0  0  0
  1  2  1  0  0  0  0
  2  3  1  0  0  0  0
  2  4  1  0  0  0  0
  2  5  1  0  0  0  0
  5  6  2  0  0  0  0
  5  7  1  0  0  0  0
  7  8  1  0  0  0  0
  7 17  1  0  0  0  0
  8  9  1  0  0  0  0
  8 10  1  0  0  0  0
  8 11  1  0  0  0  0
 11 12  1  0  0  0  0
 11 13  1  0  0  0  0
 11 14  1  0  0  0  0
 14 15  1  0  0  0  0
 14 16  1  0  0  0  0
 14 17  1  0  0  0  0
 17 18  1  0  0  0  0
 17 19  1  0  0  0  0
 19 20  2  0  0  0  0
 19 21  1  0  0  0  0
 21 22  1  0  0  0  0
 21 23  1  0  0  0  0
 23 24  1  0  0  0  0
 23 25  1  0  0  0  0
 23 26  1  0  0  0  0
M  END
$$$$

  -OEChem-01062216093D

 26 26  0     1  0  0  0  0  0999 V2000
   -2.3981   -3.7559   -1.3270 H   0  0  0  0  0  0  0  0  0  0  0  0
   -2.4681   -2.7375   -0.9340 C   0  0  0  0  0  0  0  0  0  0  0  0
   -3.0482   -2.7602   -0.0085 H   0  0  0  0  0  0  0  0  0  0  0  0
   -2.9889   -2.1198   -1.6699 H   0  0  0  0  0  0  0  0  0  0  0  0
   -1.0721   -2.1785   -0.6721 C   0  0  0  0  0  0  0  0  0  0  0  0
   -0.1774   -2.9997   -0.5707 O   0  0  0  0  0  0  0  0  0  0  0  0
   -0.8348   -0.7993   -0.6785 N   0  0  0  0  0  0  0  0  0  0  0  0
   -1.8594   -0.1524    0.1616 C   0  0  0  0  0  0  0  0  0  0  0  0
   -2.1486   -0.7813    1.0128 H   0  0  0  0  0  0  0  0  0  0  0  0
   -2.7574    0.0965   -0.4141 H   0  0  0  0  0  0  0  0  0  0  0  0
   -1.2027    1.0967    0.6899 C   0  0  0  0  0  0  0  0  0  0  0  0
   -1.6372    1.4126    1.6436 H   0  0  0  0  0  0  0  0  0  0  0  0
   -1.3269    1.9108   -0.0322 H   0  0  0  0  0  0  0  0  0  0  0  0
    0.2724    0.7536    0.8263 C   0  0  0  0  0  0  0  0  0  0  0  0
    0.4666    0.2186    1.7616 H   0  0  0  0  0  0  0  0  0  0  0  0
    0.9118    1.6418    0.7852 H   0  0  0  0  0  0  0  0  0  0  0  0
    0.4855   -0.1686   -0.3637 C   0  0  1  0  0  0  0  0  0  0  0  0
    0.5096    0.5414   -1.1985 H   0  0  0  0  0  0  0  0  0  0  0  0
    1.9218   -0.7280   -0.5699 C   0  0  0  0  0  0  0  0  0  0  0  0
    2.8017    0.0653   -0.8866 O   0  0  0  0  0  0  0  0  0  0  0  0
    2.3146   -2.0109   -0.2435 N   0  0  0  0  0  0  0  0  0  0  0  0
    1.5545   -2.6843   -0.1276 H   0  0  0  0  0  0  0  0  0  0  0  0
    3.6649   -2.5194   -0.4471 C   0  0  0  0  0  0  0  0  0  0  0  0
    4.3832   -1.9489    0.1506 H   0  0  0  0  0  0  0  0  0  0  0  0
    3.7206   -3.5691   -0.1435 H   0  0  0  0  0  0  0  0  0  0  0  0
    3.9469   -2.4478   -1.5026 H   0  0  0  0  0  0  0  0  0  0  0  0
  1  2  1  0  0  0  0
  2  3  1  0  0  0  0
  2  4  1  0  0  0  0
  2  5  1  0  0  0  0
  5  6  2  0  0  0  0
  5  7  1  0  0  0  0
  7  8  1  0  0  0  0
  7 17  1  0  0  0  0
  8  9  1  0  0  0  0
  8 10  1  0  0  0  0
  8 11  1  0  0  0  0
 11 12  1  0  0  0  0
 11 13  1  0  0  0  0
 11 14  1  0  0  0  0
 14 15  1  0  0  0  0
 14 16  1  0  0  0  0
 14 17  1  0  0  0  0
 17 18  1  0  0  0  0
 17 19  1  0  0  0  0
 19 20  2  0  0  0  0
 19 21  1  0  0  0  0
 21 22  1  0  0  0  0
 21 23  1  0  0  0  0
 23 24  1  0  0  0  0
 23 25  1  0  0  0  0
 23 26  1  0  0  0  0
M  END
$$$$

  -OEChem-01062216093D

 26 26  0     1  0  0  0  0  0999 V2000
   -2.4647   -3.8210   -1.1744 H   0  0  0  0  0  0  0  0  0  0  0  0
   -2.5276   -2.7848   -0.8303 C   0  0  0  0  0  0  0  0  0  0  0  0
   -3.1164   -2.7570    0.0894 H   0  0  0  0  0  0  0  0  0  0  0  0
   -3.0348   -2.1965   -1.5991 H   0  0  0  0  0  0  0  0  0  0  0  0
   -1.1287   -2.2276   -0.5820 C   0  0  0  0  0  0  0  0  0  0  0  0
   -0.2436   -3.0488   -0.4188 O   0  0  0  0  0  0  0  0  0  0  0  0
   -0.8886   -0.8508   -0.6423 N   0  0  0  0  0  0  0  0  0  0  0  0
   -1.8775   -0.1832    0.2237 C   0  0  0  0  0  0  0  0  0  0  0  0
   -2.1209   -0.7862    1.1075 H   0  0  0  0  0  0  0  0  0  0  0  0
   -2.8041    0.0401   -0.3161 H   0  0  0  0  0  0  0  0  0  0  0  0
   -1.2080    1.0870    0.6786 C   0  0  0  0  0  0  0  0  0  0  0  0
   -1.5987    1.4303    1.6415 H   0  0  0  0  0  0  0  0  0  0  0  0
   -1.3738    1.8764   -0.0624 H   0  0  0  0  0  0  0  0  0  0  0  0
    0.2742    0.7584    0.7544 C   0  0  0  0  0  0  0  0  0  0  0  0
    0.5172    0.2561    1.6964 H   0  0  0  0  0  0  0  0  0  0  0  0
    0.9027    1.6500    0.6560 H   0  0  0  0  0  0  0  0  0  0  0  0
    0.4421   -0.2020   -0.4141 C   0  0  1  0  0  0  0  0  0  0  0  0
    0.4226    0.4775   -1.2738 H   0  0  0  0  0  0  0  0  0  0  0  0
    1.8782   -0.7442   -0.6685 C   0  0  0  0  0  0  0  0  0  0  0  0
    2.7652    0.0832   -0.8471 O   0  0  0  0  0  0  0  0  0  0  0  0
    2.2628   -2.0682   -0.6076 N   0  0  0  0  0  0  0  0  0  0  0  0
    1.5170   -2.7524   -0.4671 H   0  0  0  0  0  0  0  0  0  0  0  0
    3.6261   -2.5410   -0.8090 C   0  0  0  0  0  0  0  0  0  0  0  0
    4.2911   -2.1284   -0.0433 H   0  0  0  0  0  0  0  0  0  0  0  0
    3.6582   -3.6327   -0.7435 H   0  0  0  0  0  0  0  0  0  0  0  0
    3.9939   -2.2425   -1.7962 H   0  0  0  0  0  0  0  0  0  0  0  0
  1  2  1  0  0  0  0
  2  3  1  0  0  0  0
  2  4  1  0  0  0  0
  2  5  1  0  0  0  0
  5  6  2  0  0  0  0
  5  7  1  0  0  0  0
  7  8  1  0  0  0  0
  7 17  1  0  0  0  0
  8  9  1  0  0  0  0
  8 10  1  0  0  0  0
  8 11  1  0  0  0  0
 11 12  1  0  0  0  0
 11 13  1  0  0  0  0
 11 14  1  0  0  0  0
 14 15  1  0  0  0  0
 14 16  1  0  0  0  0
 14 17  1  0  0  0  0
 17 18  1  0  0  0  0
 17 19  1  0  0  0  0
 19 20  2  0  0  0  0
 19 21  1  0  0  0  0
 21 22  1  0  0  0  0
 21 23  1  0  0  0  0
 23 24  1  0  0  0  0
 23 25  1  0  0  0  0
 23 26  1  0  0  0  0
M  END
$$$$

  -OEChem-01062216093D

 26 26  0     1  0  0  0  0  0999 V2000
   -2.0113   -3.9975   -1.4907 H   0  0  0  0  0  0  0  0  0  0  0  0
   -2.1222   -3.0488   -0.9571 C   0  0  0  0  0  0  0  0  0  0  0  0
   -2.3576   -3.2685    0.0866 H   0  0  0  0  0  0  0  0  0  0  0  0
   -2.9520   -2.5002   -1.4092 H   0  0  0  0  0  0  0  0  0  0  0  0
   -0.8294   -2.2357   -1.0534 C   0  0  0  0  0  0  0  0  0  0  0  0
    0.1087   -2.8296   -1.5463 O   0  0  0  0  0  0  0  0  0  0  0  0
   -0.7815   -0.8480   -0.8692 N   0  0  0  0  0  0  0  0  0  0  0  0
   -1.8428   -0.4232    0.0641 C   0  0  0  0  0  0  0  0  0  0  0  0
   -2.0015   -1.1549    0.8645 H   0  0  0  0  0  0  0  0  0  0  0  0
   -2.7925   -0.2523   -0.4544 H   0  0  0  0  0  0  0  0  0  0  0  0
   -1.3453    0.8505    0.6939 C   0  0  0  0  0  0  0  0  0  0  0  0
   -1.7833    1.0156    1.6833 H   0  0  0  0  0  0  0  0  0  0  0  0
   -1.6016    1.7027    0.0553 H   0  0  0  0  0  0  0  0  0  0  0  0
    0.1630    0.6931    0.7601 C   0  0  0  0  0  0  0  0  0  0  0  0
    0.4595    0.1059    1.6352 H   0  0  0  0  0  0  0  0  0  0  0  0
    0.6760    1.6604    0.7920 H   0  0  0  0  0  0  0  0  0  0  0  0
    0.4570   -0.0789   -0.5196 C   0  0  1  0  0  0  0  0  0  0  0  0
    0.3361    0.6960   -1.2851 H   0  0  0  0  0  0  0  0  0  0  0  0
    1.9692   -0.3225   -0.8180 C   0  0  0  0  0  0  0  0  0  0  0  0
    2.7036    0.6548   -0.8599 O   0  0  0  0  0  0  0  0  0  0  0  0
    2.6329   -1.4449   -1.2502 N   0  0  0  0  0  0  0  0  0  0  0  0
    3.5225   -1.1846   -1.6662 H   0  0  0  0  0  0  0  0  0  0  0  0
    2.7073   -2.6066   -0.3720 C   0  0  0  0  0  0  0  0  0  0  0  0
    3.6536   -2.6004    0.1779 H   0  0  0  0  0  0  0  0  0  0  0  0
    1.8903   -2.6124    0.3571 H   0  0  0  0  0  0  0  0  0  0  0  0
    2.6518   -3.5275   -0.9613 H   0  0  0  0  0  0  0  0  0  0  0  0
  1  2  1  0  0  0  0
  2  3  1  0  0  0  0
  2  4  1  0  0  0  0
  2  5  1  0  0  0  0
  5  6  2  0  0  0  0
  5  7  1  0  0  0  0
  7  8  1  0  0  0  0
  7 17  1  0  0  0  0
  8  9  1  0  0  0  0
  8 10  1  0  0  0  0
  8 11  1  0  0  0  0
 11 12  1  0  0  0  0
 11 13  1  0  0  0  0
 11 14  1  0  0  0  0
 14 15  1  0  0  0  0
 14 16  1  0  0  0  0
 14 17  1  0  0  0  0
 17 18  1  0  0  0  0
 17 19  1  0  0  0  0
 19 20  2  0  0  0  0
 19 21  1  0  0  0  0
 21 22  1  0  0  0  0
 21 23  1  0  0  0  0
 23 24  1  0  0  0  0
 23 25  1  0  0  0  0
 23 26  1  0  0  0  0
M  END
$$$$

  -OEChem-01062216093D

 26 26  0     1  0  0  0  0  0999 V2000
   -1.2440   -4.0340   -1.4123 H   0  0  0  0  0  0  0  0  0  0  0  0
   -1.4508   -2.9661   -1.5219 C   0  0  0  0  0  0  0  0  0  0  0  0
   -2.5325   -2.8170   -1.5592 H   0  0  0  0  0  0  0  0  0  0  0  0
   -1.0123   -2.6148   -2.4590 H   0  0  0  0  0  0  0  0  0  0  0  0
   -0.8648   -2.1912   -0.3545 C   0  0  0  0  0  0  0  0  0  0  0  0
   -0.2968   -2.8032    0.5430 O   0  0  0  0  0  0  0  0  0  0  0  0
   -1.0256   -0.8104   -0.3267 N   0  0  0  0  0  0  0  0  0  0  0  0
   -1.6384   -0.4124    0.9604 C   0  0  0  0  0  0  0  0  0  0  0  0
   -1.4670   -1.1254    1.7750 H   0  0  0  0  0  0  0  0  0  0  0  0
   -2.7205   -0.2864    0.8510 H   0  0  0  0  0  0  0  0  0  0  0  0
   -0.9861    0.8962    1.3245 C   0  0  0  0  0  0  0  0  0  0  0  0
   -0.9879    1.0646    2.4060 H   0  0  0  0  0  0  0  0  0  0  0  0
   -1.5218    1.7219    0.8443 H   0  0  0  0  0  0  0  0  0  0  0  0
    0.4231    0.8041    0.7681 C   0  0  0  0  0  0  0  0  0  0  0  0
    1.0736    0.2456    1.4492 H   0  0  0  0  0  0  0  0  0  0  0  0
    0.8641    1.7892    0.5827 H   0  0  0  0  0  0  0  0  0  0  0  0
    0.2002    0.0146   -0.5131 C   0  0  1  0  0  0  0  0  0  0  0  0
   -0.1937    0.7733   -1.1983 H   0  0  0  0  0  0  0  0  0  0  0  0
    1.4644   -0.3757   -1.3296 C   0  0  0  0  0  0  0  0  0  0  0  0
    2.2186    0.5171   -1.6834 O   0  0  0  0  0  0  0  0  0  0  0  0
    1.7018   -1.5382   -2.0287 N   0  0  0  0  0  0  0  0  0  0  0  0
    2.3233   -1.3272   -2.8064 H   0  0  0  0  0  0  0  0  0  0  0  0
    2.1101   -2.7322   -1.2967 C   0  0  0  0  0  0  0  0  0  0  0  0
    2.1718   -2.5430   -0.2194 H   0  0  0  0  0  0  0  0  0  0  0  0
    1.4086   -3.5529   -1.4732 H   0  0  0  0  0  0  0  0  0  0  0  0
    3.1007   -3.0515   -1.6348 H   0  0  0  0  0  0  0  0  0  0  0  0
  1  2  1  0  0  0  0
  2  3  1  0  0  0  0
  2  4  1  0  0  0  0
  2  5  1  0  0  0  0
  5  6  2  0  0  0  0
  5  7  1  0  0  0  0
  7  8  1  0  0  0  0
  7 17  1  0  0  0  0
  8  9  1  0  0  0  0
  8 10  1  0  0  0  0
  8 11  1  0  0  0  0
 11 12  1  0  0  0  0
 11 13  1  0  0  0  0
 11 14  1  0  0  0  0
 14 15  1  0  0  0  0
 14 16  1  0  0  0  0
 14 17  1  0  0  0  0
 17 18  1  0  0  0  0
 17 19  1  0  0  0  0
 19 20  2  0  0  0  0
 19 21  1  0  0  0  0
 21 22  1  0  0  0  0
 21 23  1  0  0  0  0
 23 24  1  0  0  0  0
 23 25  1  0  0  0  0
 23 26  1  0  0  0  0
M  END
$$$$

  -OEChem-01062216093D

 26 26  0     1  0  0  0  0  0999 V2000
   -2.5341   -3.7186   -1.2862 H   0  0  0  0  0  0  0  0  0  0  0  0
   -2.5642   -2.7052   -0.8757 C   0  0  0  0  0  0  0  0  0  0  0  0
   -3.0791   -2.7355    0.0875 H   0  0  0  0  0  0  0  0  0  0  0  0
   -3.1276   -2.0708   -1.5646 H   0  0  0  0  0  0  0  0  0  0  0  0
   -1.1464   -2.1653   -0.7038 C   0  0  0  0  0  0  0  0  0  0  0  0
   -0.2518   -2.9936   -0.7105 O   0  0  0  0  0  0  0  0  0  0  0  0
   -0.8924   -0.7888   -0.6819 N   0  0  0  0  0  0  0  0  0  0  0  0
   -1.8590   -0.1475    0.2275 C   0  0  0  0  0  0  0  0  0  0  0  0
   -2.1211   -0.7967    1.0720 H   0  0  0  0  0  0  0  0  0  0  0  0
   -2.7779    0.1401   -0.2949 H   0  0  0  0  0  0  0  0  0  0  0  0
   -1.1461    1.0671    0.7617 C   0  0  0  0  0  0  0  0  0  0  0  0
   -1.5232    1.3598    1.7465 H   0  0  0  0  0  0  0  0  0  0  0  0
   -1.2864    1.9085    0.0748 H   0  0  0  0  0  0  0  0  0  0  0  0
    0.3247    0.6848    0.8107 C   0  0  0  0  0  0  0  0  0  0  0  0
    0.5525    0.1137    1.7167 H   0  0  0  0  0  0  0  0  0  0  0  0
    0.9822    1.5596    0.7703 H   0  0  0  0  0  0  0  0  0  0  0  0
    0.4597   -0.2036   -0.4199 C   0  0  1  0  0  0  0  0  0  0  0  0
    0.4781    0.5338   -1.2291 H   0  0  0  0  0  0  0  0  0  0  0  0
    1.8571   -0.8080   -0.7331 C   0  0  0  0  0  0  0  0  0  0  0  0
    2.8439   -0.2455   -0.2723 O   0  0  0  0  0  0  0  0  0  0  0  0
    2.0619   -1.8772   -1.5838 N   0  0  0  0  0  0  0  0  0  0  0  0
    1.2424   -2.4736   -1.7125 H   0  0  0  0  0  0  0  0  0  0  0  0
    3.3739   -2.4704   -1.8099 C   0  0  0  0  0  0  0  0  0  0  0  0
    3.7842   -2.8618   -0.8732 H   0  0  0  0  0  0  0  0  0  0  0  0
    3.2955   -3.2937   -2.5262 H   0  0  0  0  0  0  0  0  0  0  0  0
    4.0672   -1.7263   -2.2158 H   0  0  0  0  0  0  0  0  0  0  0  0
  1  2  1  0  0  0  0
  2  3  1  0  0  0  0
  2  4  1  0  0  0  0
  2  5  1  0  0  0  0
  5  6  2  0  0  0  0
  5  7  1  0  0  0  0
  7  8  1  0  0  0  0
  7 17  1  0  0  0  0
  8  9  1  0  0  0  0
  8 10  1  0  0  0  0
  8 11  1  0  0  0  0
 11 12  1  0  0  0  0
 11 13  1  0  0  0  0
 11 14  1  0  0  0  0
 14 15  1  0  0  0  0
 14 16  1  0  0  0  0
 14 17  1  0  0  0  0
 17 18  1  0  0  0  0
 17 19  1  0  0  0  0
 19 20  2  0  0  0  0
 19 21  1  0  0  0  0
 21 22  1  0  0  0  0
 21 23  1  0  0  0  0
 23 24  1  0  0  0  0
 23 25  1  0  0  0  0
 23 26  1  0  0  0  0
M  END
$$$$

  -OEChem-01062216093D

 26 26  0     1  0  0  0  0  0999 V2000
   -2.4705   -3.7481   -1.2568 H   0  0  0  0  0  0  0  0  0  0  0  0
   -2.5065   -2.7456   -0.8208 C   0  0  0  0  0  0  0  0  0  0  0  0
   -2.9500   -2.8168    0.1751 H   0  0  0  0  0  0  0  0  0  0  0  0
   -3.1396   -2.1183   -1.4533 H   0  0  0  0  0  0  0  0  0  0  0  0
   -1.0990   -2.1584   -0.7357 C   0  0  0  0  0  0  0  0  0  0  0  0
   -0.1810   -2.9498   -0.8700 O   0  0  0  0  0  0  0  0  0  0  0  0
   -0.8803   -0.7751   -0.7072 N   0  0  0  0  0  0  0  0  0  0  0  0
   -1.8510   -0.1543    0.2125 C   0  0  0  0  0  0  0  0  0  0  0  0
   -2.1058   -0.8152    1.0497 H   0  0  0  0  0  0  0  0  0  0  0  0
   -2.7731    0.1318   -0.3048 H   0  0  0  0  0  0  0  0  0  0  0  0
   -1.1478    1.0589    0.7641 C   0  0  0  0  0  0  0  0  0  0  0  0
   -1.5280    1.3356    1.7525 H   0  0  0  0  0  0  0  0  0  0  0  0
   -1.2935    1.9082    0.0883 H   0  0  0  0  0  0  0  0  0  0  0  0
    0.3257    0.6866    0.8096 C   0  0  0  0  0  0  0  0  0  0  0  0
    0.5565    0.1042    1.7076 H   0  0  0  0  0  0  0  0  0  0  0  0
    0.9785    1.5653    0.7812 H   0  0  0  0  0  0  0  0  0  0  0  0
    0.4647   -0.1831   -0.4331 C   0  0  1  0  0  0  0  0  0  0  0  0
    0.4882    0.5676   -1.2299 H   0  0  0  0  0  0  0  0  0  0  0  0
    1.8500   -0.8040   -0.7542 C   0  0  0  0  0  0  0  0  0  0  0  0
    2.8300   -0.4050   -0.1353 O   0  0  0  0  0  0  0  0  0  0  0  0
    2.0471   -1.6554   -1.8252 N   0  0  0  0  0  0  0  0  0  0  0  0
    1.2140   -2.1879   -2.0791 H   0  0  0  0  0  0  0  0  0  0  0  0
    3.3411   -2.2609   -2.1126 C   0  0  0  0  0  0  0  0  0  0  0  0
    3.6715   -2.8770   -1.2699 H   0  0  0  0  0  0  0  0  0  0  0  0
    3.2699   -2.8955   -3.0010 H   0  0  0  0  0  0  0  0  0  0  0  0
    4.0932   -1.4879   -2.3017 H   0  0  0  0  0  0  0  0  0  0  0  0
  1  2  1  0  0  0  0
  2  3  1  0  0  0  0
  2  4  1  0  0  0  0
  2  5  1  0  0  0  0
  5  6  2  0  0  0  0
  5  7  1  0  0  0  0
  7  8  1  0  0  0  0
  7 17  1  0  0  0  0
  8  9  1  0  0  0  0
  8 10  1  0  0  0  0
  8 11  1  0  0  0  0
 11 12  1  0  0  0  0
 11 13  1  0  0  0  0
 11 14  1  0  0  0  0
 14 15  1  0  0  0  0
 14 16  1  0  0  0  0
 14 17  1  0  0  0  0
 17 18  1  0  0  0  0
 17 19  1  0  0  0  0
 19 20  2  0  0  0  0
 19 21  1  0  0  0  0
 21 22  1  0  0  0  0
 21 23  1  0  0  0  0
 23 24  1  0  0  0  0
 23 25  1  0  0  0  0
 23 26  1  0  0  0  0
M  END
$$$$

  -OEChem-01062216093D

 26 26  0     1  0  0  0  0  0999 V2000
   -2.3857   -3.7784   -1.2425 H   0  0  0  0  0  0  0  0  0  0  0  0
   -2.4332   -2.7877   -0.7810 C   0  0  0  0  0  0  0  0  0  0  0  0
   -2.8122   -2.8985    0.2375 H   0  0  0  0  0  0  0  0  0  0  0  0
   -3.1272   -2.1729   -1.3595 H   0  0  0  0  0  0  0  0  0  0  0  0
   -1.0457   -2.1482   -0.7654 C   0  0  0  0  0  0  0  0  0  0  0  0
   -0.1112   -2.8977   -0.9956 O   0  0  0  0  0  0  0  0  0  0  0  0
   -0.8679   -0.7583   -0.7375 N   0  0  0  0  0  0  0  0  0  0  0  0
   -1.8437   -0.1632    0.1949 C   0  0  0  0  0  0  0  0  0  0  0  0
   -2.0883   -0.8377    1.0243 H   0  0  0  0  0  0  0  0  0  0  0  0
   -2.7707    0.1192   -0.3156 H   0  0  0  0  0  0  0  0  0  0  0  0
   -1.1534    1.0492    0.7647 C   0  0  0  0  0  0  0  0  0  0  0  0
   -1.5351    1.3056    1.7579 H   0  0  0  0  0  0  0  0  0  0  0  0
   -1.3100    1.9074    0.1027 H   0  0  0  0  0  0  0  0  0  0  0  0
    0.3247    0.6933    0.8032 C   0  0  0  0  0  0  0  0  0  0  0  0
    0.5623    0.0980    1.6913 H   0  0  0  0  0  0  0  0  0  0  0  0
    0.9695    1.5783    0.7878 H   0  0  0  0  0  0  0  0  0  0  0  0
    0.4680   -0.1544   -0.4531 C   0  0  1  0  0  0  0  0  0  0  0  0
    0.4938    0.6113   -1.2355 H   0  0  0  0  0  0  0  0  0  0  0  0
    1.8405   -0.7941   -0.7802 C   0  0  0  0  0  0  0  0  0  0  0  0
    2.7871   -0.5928   -0.0279 O   0  0  0  0  0  0  0  0  0  0  0  0
    2.0738   -1.3875   -2.0075 N   0  0  0  0  0  0  0  0  0  0  0  0
    1.2382   -1.7887   -2.4298 H   0  0  0  0  0  0  0  0  0  0  0  0
    3.3509   -2.0090   -2.3341 C   0  0  0  0  0  0  0  0  0  0  0  0
    3.5659   -2.8284   -1.6401 H   0  0  0  0  0  0  0  0  0  0  0  0
    3.3246   -2.4115   -3.3511 H   0  0  0  0  0  0  0  0  0  0  0  0
    4.1618   -1.2753   -2.2759 H   0  0  0  0  0  0  0  0  0  0  0  0
  1  2  1  0  0  0  0
  2  3  1  0  0  0  0
  2  4  1  0  0  0  0
  2  5  1  0  0  0  0
  5  6  2  0  0  0  0
  5  7  1  0  0  0  0
  7  8  1  0  0  0  0
  7 17  1  0  0  0  0
  8  9  1  0  0  0  0
  8 10  1  0  0  0  0
  8 11  1  0  0  0  0
 11 12  1  0  0  0  0
 11 13  1  0  0  0  0
 11 14  1  0  0  0  0
 14 15  1  0  0  0  0
 14 16  1  0  0  0  0
 14 17  1  0  0  0  0
 17 18  1  0  0  0  0
 17 19  1  0  0  0  0
 19 20  2  0  0  0  0
 19 21  1  0  0  0  0
 21 22  1  0  0  0  0
 21 23  1  0  0  0  0
 23 24  1  0  0  0  0
 23 25  1  0  0  0  0
 23 26  1  0  0  0  0
M  END
$$$$

  -OEChem-01062216093D

 26 26  0     1  0  0  0  0  0999 V2000
   -2.3144   -3.7979   -1.2499 H   0  0  0  0  0  0  0  0  0  0  0  0
   -2.3678   -2.8229   -0.7567 C   0  0  0  0  0  0  0  0  0  0  0  0
   -2.6847   -2.9759    0.2775 H   0  0  0  0  0  0  0  0  0  0  0  0
   -3.1129   -2.2165   -1.2773 H   0  0  0  0  0  0  0  0  0  0  0  0
   -1.0018   -2.1387   -0.7978 C   0  0  0  0  0  0  0  0  0  0  0  0
   -0.0601   -2.8569   -1.0922 O   0  0  0  0  0  0  0  0  0  0  0  0
   -0.8581   -0.7435   -0.7681 N   0  0  0  0  0  0  0  0  0  0  0  0
   -1.8401   -0.1716    0.1732 C   0  0  0  0  0  0  0  0  0  0  0  0
   -2.0810   -0.8583    0.9933 H   0  0  0  0  0  0  0  0  0  0  0  0
   -2.7684    0.1106   -0.3348 H   0  0  0  0  0  0  0  0  0  0  0  0
   -1.1610    1.0379    0.7623 C   0  0  0  0  0  0  0  0  0  0  0  0
   -1.5455    1.2748    1.7594 H   0  0  0  0  0  0  0  0  0  0  0  0
   -1.3259    1.9051    0.1142 H   0  0  0  0  0  0  0  0  0  0  0  0
    0.3207    0.6962    0.7964 C   0  0  0  0  0  0  0  0  0  0  0  0
    0.5631    0.0895    1.6755 H   0  0  0  0  0  0  0  0  0  0  0  0
    0.9576    1.5867    0.7950 H   0  0  0  0  0  0  0  0  0  0  0  0
    0.4698   -0.1301   -0.4728 C   0  0  1  0  0  0  0  0  0  0  0  0
    0.4971    0.6509   -1.2397 H   0  0  0  0  0  0  0  0  0  0  0  0
    1.8329   -0.7832   -0.8043 C   0  0  0  0  0  0  0  0  0  0  0  0
    2.7106   -0.8114    0.0508 O   0  0  0  0  0  0  0  0  0  0  0  0
    2.1553   -1.0929   -2.1138 N   0  0  0  0  0  0  0  0  0  0  0  0
    1.3544   -1.2689   -2.7147 H   0  0  0  0  0  0  0  0  0  0  0  0
    3.4177   -1.7294   -2.4681 C   0  0  0  0  0  0  0  0  0  0  0  0
    3.5029   -2.7060   -1.9800 H   0  0  0  0  0  0  0  0  0  0  0  0
    3.4761   -1.8746   -3.5510 H   0  0  0  0  0  0  0  0  0  0  0  0
    4.2632   -1.1058   -2.1595 H   0  0  0  0  0  0  0  0  0  0  0  0
  1  2  1  0  0  0  0
  2  3  1  0  0  0  0
  2  4  1  0  0  0  0
  2  5  1  0  0  0  0
  5  6  2  0  0  0  0
  5  7  1  0  0  0  0
  7  8  1  0  0  0  0
  7 17  1  0  0  0  0
  8  9  1  0  0  0  0
  8 10  1  0  0  0  0
  8 11  1  0  0  0  0
 11 12  1  0  0  0  0
 11 13  1  0  0  0  0
 11 14  1  0  0  0  0
 14 15  1  0  0  0  0
 14 16  1  0  0  0  0
 14 17  1  0  0  0  0
 17 18  1  0  0  0  0
 17 19  1  0  0  0  0
 19 20  2  0  0  0  0
 19 21  1  0  0  0  0
 21 22  1  0  0  0  0
 21 23  1  0  0  0  0
 23 24  1  0  0  0  0
 23 25  1  0  0  0  0
 23 26  1  0  0  0  0
M  END
$$$$

  -OEChem-01062216093D

 26 26  0     1  0  0  0  0  0999 V2000
   -2.2898   -3.8207   -1.2211 H   0  0  0  0  0  0  0  0  0  0  0  0
   -2.3412   -2.8441   -0.7311 C   0  0  0  0  0  0  0  0  0  0  0  0
   -2.6169   -2.9980    0.3147 H   0  0  0  0  0  0  0  0  0  0  0  0
   -3.1149   -2.2530   -1.2268 H   0  0  0  0  0  0  0  0  0  0  0  0
   -0.9886   -2.1377   -0.8255 C   0  0  0  0  0  0  0  0  0  0  0  0
   -0.0544   -2.8361   -1.1849 O   0  0  0  0  0  0  0  0  0  0  0  0
   -0.8587   -0.7407   -0.7919 N   0  0  0  0  0  0  0  0  0  0  0  0
   -1.8355   -0.1787    0.1613 C   0  0  0  0  0  0  0  0  0  0  0  0
   -2.0682   -0.8707    0.9791 H   0  0  0  0  0  0  0  0  0  0  0  0
   -2.7686    0.1035   -0.3381 H   0  0  0  0  0  0  0  0  0  0  0  0
   -1.1564    1.0283    0.7561 C   0  0  0  0  0  0  0  0  0  0  0  0
   -1.5366    1.2565    1.7569 H   0  0  0  0  0  0  0  0  0  0  0  0
   -1.3269    1.9000    0.1153 H   0  0  0  0  0  0  0  0  0  0  0  0
    0.3263    0.6896    0.7796 C   0  0  0  0  0  0  0  0  0  0  0  0
    0.5736    0.0758    1.6525 H   0  0  0  0  0  0  0  0  0  0  0  0
    0.9620    1.5811    0.7817 H   0  0  0  0  0  0  0  0  0  0  0  0
    0.4679   -0.1260   -0.4969 C   0  0  1  0  0  0  0  0  0  0  0  0
    0.4887    0.6645   -1.2540 H   0  0  0  0  0  0  0  0  0  0  0  0
    1.8257   -0.7849   -0.8382 C   0  0  0  0  0  0  0  0  0  0  0  0
    2.6126   -1.0407    0.0659 O   0  0  0  0  0  0  0  0  0  0  0  0
    2.2753   -0.8112   -2.1474 N   0  0  0  0  0  0  0  0  0  0  0  0
    1.5507   -0.7548   -2.8570 H   0  0  0  0  0  0  0  0  0  0  0  0
    3.5493   -1.4133   -2.5194 C   0  0  0  0  0  0  0  0  0  0  0  0
    3.5559   -2.4789   -2.2668 H   0  0  0  0  0  0  0  0  0  0  0  0
    3.7157   -1.3093   -3.5957 H   0  0  0  0  0  0  0  0  0  0  0  0
    4.3754   -0.9212   -1.9953 H   0  0  0  0  0  0  0  0  0  0  0  0
  1  2  1  0  0  0  0
  2  3  1  0  0  0  0
  2  4  1  0  0  0  0
  2  5  1  0  0  0  0
  5  6  2  0  0  0  0
  5  7  1  0  0  0  0
  7  8  1  0  0  0  0
  7 17  1  0  0  0  0
  8  9  1  0  0  0  0
  8 10  1  0  0  0  0
  8 11  1  0  0  0  0
 11 12  1  0  0  0  0
 11 13  1  0  0  0  0
 11 14  1  0  0  0  0
 14 15  1  0  0  0  0
 14 16  1  0  0  0  0
 14 17  1  0  0  0  0
 17 18  1  0  0  0  0
 17 19  1  0  0  0  0
 19 20  2  0  0  0  0
 19 21  1  0  0  0  0
 21 22  1  0  0  0  0
 21 23  1  0  0  0  0
 23 24  1  0  0  0  0
 23 25  1  0  0  0  0
 23 26  1  0  0  0  0
M  END
$$$$

  -OEChem-01062216093D

 26 26  0     1  0  0  0  0  0999 V2000
   -2.2870   -3.8299   -1.2192 H   0  0  0  0  0  0  0  0  0  0  0  0
   -2.3292   -2.8583   -0.7182 C   0  0  0  0  0  0  0  0  0  0  0  0
   -2.5645   -3.0248    0.3355 H   0  0  0  0  0  0  0  0  0  0  0  0
   -3.1264   -2.2703   -1.1793 H   0  0  0  0  0  0  0  0  0  0  0  0
   -0.9872   -2.1383   -0.8558 C   0  0  0  0  0  0  0  0  0  0  0  0
   -0.0672   -2.8217   -1.2755 O   0  0  0  0  0  0  0  0  0  0  0  0
   -0.8643   -0.7406   -0.8151 N   0  0  0  0  0  0  0  0  0  0  0  0
   -1.8299   -0.1884    0.1557 C   0  0  0  0  0  0  0  0  0  0  0  0
   -2.0499   -0.8867    0.9714 H   0  0  0  0  0  0  0  0  0  0  0  0
   -2.7703    0.0950   -0.3290 H   0  0  0  0  0  0  0  0  0  0  0  0
   -1.1468    1.0150    0.7533 C   0  0  0  0  0  0  0  0  0  0  0  0
   -1.5163    1.2342    1.7600 H   0  0  0  0  0  0  0  0  0  0  0  0
   -1.3257    1.8916    0.1217 H   0  0  0  0  0  0  0  0  0  0  0  0
    0.3363    0.6777    0.7577 C   0  0  0  0  0  0  0  0  0  0  0  0
    0.5938    0.0564    1.6222 H   0  0  0  0  0  0  0  0  0  0  0  0
    0.9707    1.5699    0.7608 H   0  0  0  0  0  0  0  0  0  0  0  0
    0.4634   -0.1264   -0.5270 C   0  0  1  0  0  0  0  0  0  0  0  0
    0.4703    0.6705   -1.2772 H   0  0  0  0  0  0  0  0  0  0  0  0
    1.8203   -0.7814   -0.8824 C   0  0  0  0  0  0  0  0  0  0  0  0
    2.5068   -1.2500    0.0183 O   0  0  0  0  0  0  0  0  0  0  0  0
    2.4142   -0.5414   -2.1106 N   0  0  0  0  0  0  0  0  0  0  0  0
    1.7899   -0.2592   -2.8599 H   0  0  0  0  0  0  0  0  0  0  0  0
    3.7152   -1.0920   -2.4701 C   0  0  0  0  0  0  0  0  0  0  0  0
    3.6882   -2.1865   -2.4411 H   0  0  0  0  0  0  0  0  0  0  0  0
    3.9922   -0.7774   -3.4807 H   0  0  0  0  0  0  0  0  0  0  0  0
    4.4866   -0.7397   -1.7772 H   0  0  0  0  0  0  0  0  0  0  0  0
  1  2  1  0  0  0  0
  2  3  1  0  0  0  0
  2  4  1  0  0  0  0
  2  5  1  0  0  0  0
  5  6  2  0  0  0  0
  5  7  1  0  0  0  0
  7  8  1  0  0  0  0
  7 17  1  0  0  0  0
  8  9  1  0  0  0  0
  8 10  1  0  0  0  0
  8 11  1  0  0  0  0
 11 12  1  0  0  0  0
 11 13  1  0  0  0  0
 11 14  1  0  0  0  0
 14 15  1  0  0  0  0
 14 16  1  0  0  0  0
 14 17  1  0  0  0  0
 17 18  1  0  0  0  0
 17 19  1  0  0  0  0
 19 20  2  0  0  0  0
 19 21  1  0  0  0  0
 21 22  1  0  0  0  0
 21 23  1  0  0  0  0
 23 24  1  0  0  0  0
 23 25  1  0  0  0  0
 23 26  1  0  0  0  0
M  END
$$$$

  -OEChem-01062216093D

 26 26  0     1  0  0  0  0  0999 V2000
   -2.2827   -3.8405   -1.1885 H   0  0  0  0  0  0  0  0  0  0  0  0
   -2.3048   -2.8726   -0.6793 C   0  0  0  0  0  0  0  0  0  0  0  0
   -2.4530   -3.0503    0.3883 H   0  0  0  0  0  0  0  0  0  0  0  0
   -3.1472   -2.2987   -1.0726 H   0  0  0  0  0  0  0  0  0  0  0  0
   -0.9911   -2.1253   -0.9155 C   0  0  0  0  0  0  0  0  0  0  0  0
   -0.1099   -2.7785   -1.4509 O   0  0  0  0  0  0  0  0  0  0  0  0
   -0.8719   -0.7276   -0.8563 N   0  0  0  0  0  0  0  0  0  0  0  0
   -1.8279   -0.1819    0.1283 C   0  0  0  0  0  0  0  0  0  0  0  0
   -2.0451   -0.8859    0.9393 H   0  0  0  0  0  0  0  0  0  0  0  0
   -2.7705    0.1103   -0.3466 H   0  0  0  0  0  0  0  0  0  0  0  0
   -1.1369    1.0112    0.7373 C   0  0  0  0  0  0  0  0  0  0  0  0
   -1.5016    1.2203    1.7479 H   0  0  0  0  0  0  0  0  0  0  0  0
   -1.3135    1.8959    0.1163 H   0  0  0  0  0  0  0  0  0  0  0  0
    0.3438    0.6647    0.7318 C   0  0  0  0  0  0  0  0  0  0  0  0
    0.6011    0.0302    1.5868 H   0  0  0  0  0  0  0  0  0  0  0  0
    0.9838    1.5528    0.7434 H   0  0  0  0  0  0  0  0  0  0  0  0
    0.4591   -0.1242   -0.5625 C   0  0  1  0  0  0  0  0  0  0  0  0
    0.4609    0.6798   -1.3050 H   0  0  0  0  0  0  0  0  0  0  0  0
    1.8156   -0.7757   -0.9273 C   0  0  0  0  0  0  0  0  0  0  0  0
    2.3863   -1.4560   -0.0826 O   0  0  0  0  0  0  0  0  0  0  0  0
    2.5625   -0.2991   -1.9930 N   0  0  0  0  0  0  0  0  0  0  0  0
    2.0537    0.2030   -2.7138 H   0  0  0  0  0  0  0  0  0  0  0  0
    3.8891   -0.8124   -2.3135 C   0  0  0  0  0  0  0  0  0  0  0  0
    3.8415   -1.8848   -2.5302 H   0  0  0  0  0  0  0  0  0  0  0  0
    4.2918   -0.2976   -3.1909 H   0  0  0  0  0  0  0  0  0  0  0  0
    4.5764   -0.6523   -1.4761 H   0  0  0  0  0  0  0  0  0  0  0  0
  1  2  1  0  0  0  0
  2  3  1  0  0  0  0
  2  4  1  0  0  0  0
  2  5  1  0  0  0  0
  5  6  2  0  0  0  0
  5  7  1  0  0  0  0
  7  8  1  0  0  0  0
  7 17  1  0  0  0  0
  8  9  1  0  0  0  0
  8 10  1  0  0  0  0
  8 11  1  0  0  0  0
 11 12  1  0  0  0  0
 11 13  1  0  0  0  0
 11 14  1  0  0  0  0
 14 15  1  0  0  0  0
 14 16  1  0  0  0  0
 14 17  1  0  0  0  0
 17 18  1  0  0  0  0
 17 19  1  0  0  0  0
 19 20  2  0  0  0  0
 19 21  1  0  0  0  0
 21 22  1  0  0  0  0
 21 23  1  0  0  0  0
 23 24  1  0  0  0  0
 23 25  1  0  0  0  0
 23 26  1  0  0  0  0
M  END
$$$$

  -OEChem-01062216093D

 26 26  0     1  0  0  0  0  0999 V2000
   -2.2635   -3.8496   -1.1761 H   0  0  0  0  0  0  0  0  0  0  0  0
   -2.2639   -2.8901   -0.6506 C   0  0  0  0  0  0  0  0  0  0  0  0
   -2.3080   -3.0882    0.4228 H   0  0  0  0  0  0  0  0  0  0  0  0
   -3.1536   -2.3345   -0.9559 H   0  0  0  0  0  0  0  0  0  0  0  0
   -0.9962   -2.1043   -0.9918 C   0  0  0  0  0  0  0  0  0  0  0  0
   -0.1737   -2.7107   -1.6596 O   0  0  0  0  0  0  0  0  0  0  0  0
   -0.8795   -0.7085   -0.8982 N   0  0  0  0  0  0  0  0  0  0  0  0
   -1.8259   -0.1745    0.1024 C   0  0  0  0  0  0  0  0  0  0  0  0
   -2.0448   -0.8894    0.9029 H   0  0  0  0  0  0  0  0  0  0  0  0
   -2.7686    0.1326   -0.3630 H   0  0  0  0  0  0  0  0  0  0  0  0
   -1.1246    1.0023    0.7316 C   0  0  0  0  0  0  0  0  0  0  0  0
   -1.4856    1.1962    1.7465 H   0  0  0  0  0  0  0  0  0  0  0  0
   -1.2956    1.8991    0.1267 H   0  0  0  0  0  0  0  0  0  0  0  0
    0.3528    0.6431    0.7152 C   0  0  0  0  0  0  0  0  0  0  0  0
    0.6081   -0.0097    1.5569 H   0  0  0  0  0  0  0  0  0  0  0  0
    1.0000    1.5256    0.7408 H   0  0  0  0  0  0  0  0  0  0  0  0
    0.4562   -0.1217   -0.5936 C   0  0  1  0  0  0  0  0  0  0  0  0
    0.4552    0.6925   -1.3247 H   0  0  0  0  0  0  0  0  0  0  0  0
    1.8124   -0.7644   -0.9751 C   0  0  0  0  0  0  0  0  0  0  0  0
    2.2728   -1.6390   -0.2509 O   0  0  0  0  0  0  0  0  0  0  0  0
    2.6959   -0.0914   -1.8049 N   0  0  0  0  0  0  0  0  0  0  0  0
    2.3037    0.6197   -2.4138 H   0  0  0  0  0  0  0  0  0  0  0  0
    4.0472   -0.5688   -2.0753 C   0  0  0  0  0  0  0  0  0  0  0  0
    4.0172   -1.5665   -2.5258 H   0  0  0  0  0  0  0  0  0  0  0  0
    4.5560    0.1093   -2.7667 H   0  0  0  0  0  0  0  0  0  0  0  0
    4.6303   -0.6172   -1.1495 H   0  0  0  0  0  0  0  0  0  0  0  0
  1  2  1  0  0  0  0
  2  3  1  0  0  0  0
  2  4  1  0  0  0  0
  2  5  1  0  0  0  0
  5  6  2  0  0  0  0
  5  7  1  0  0  0  0
  7  8  1  0  0  0  0
  7 17  1  0  0  0  0
  8  9  1  0  0  0  0
  8 10  1  0  0  0  0
  8 11  1  0  0  0  0
 11 12  1  0  0  0  0
 11 13  1  0  0  0  0
 11 14  1  0  0  0  0
 14 15  1  0  0  0  0
 14 16  1  0  0  0  0
 14 17  1  0  0  0  0
 17 18  1  0  0  0  0
 17 19  1  0  0  0  0
 19 20  2  0  0  0  0
 19 21  1  0  0  0  0
 21 22  1  0  0  0  0
 21 23  1  0  0  0  0
 23 24  1  0  0  0  0
 23 25  1  0  0  0  0
 23 26  1  0  0  0  0
M  END
$$$$

  -OEChem-01062216093D

 26 26  0     1  0  0  0  0  0999 V2000
   -2.2269   -3.8622   -1.1462 H   0  0  0  0  0  0  0  0  0  0  0  0
   -2.2160   -2.9009   -0.6241 C   0  0  0  0  0  0  0  0  0  0  0  0
   -2.1714   -3.0967    0.4498 H   0  0  0  0  0  0  0  0  0  0  0  0
   -3.1430   -2.3738   -0.8615 H   0  0  0  0  0  0  0  0  0  0  0  0
   -1.0020   -2.0793   -1.0627 C   0  0  0  0  0  0  0  0  0  0  0  0
   -0.2532   -2.6390   -1.8477 O   0  0  0  0  0  0  0  0  0  0  0  0
   -0.8826   -0.6864   -0.9390 N   0  0  0  0  0  0  0  0  0  0  0  0
   -1.8204   -0.1613    0.0748 C   0  0  0  0  0  0  0  0  0  0  0  0
   -2.0392   -0.8839    0.8676 H   0  0  0  0  0  0  0  0  0  0  0  0
   -2.7642    0.1562   -0.3814 H   0  0  0  0  0  0  0  0  0  0  0  0
   -1.1112    1.0025    0.7197 C   0  0  0  0  0  0  0  0  0  0  0  0
   -1.4690    1.1840    1.7381 H   0  0  0  0  0  0  0  0  0  0  0  0
   -1.2773    1.9091    0.1283 H   0  0  0  0  0  0  0  0  0  0  0  0
    0.3626    0.6317    0.6946 C   0  0  0  0  0  0  0  0  0  0  0  0
    0.6145   -0.0356    1.5259 H   0  0  0  0  0  0  0  0  0  0  0  0
    1.0163    1.5090    0.7323 H   0  0  0  0  0  0  0  0  0  0  0  0
    0.4574   -0.1145   -0.6254 C   0  0  1  0  0  0  0  0  0  0  0  0
    0.4583    0.7068   -1.3489 H   0  0  0  0  0  0  0  0  0  0  0  0
    1.8158   -0.7455   -1.0179 C   0  0  0  0  0  0  0  0  0  0  0  0
    2.1795   -1.7735   -0.4602 O   0  0  0  0  0  0  0  0  0  0  0  0
    2.8101    0.0561   -1.5583 N   0  0  0  0  0  0  0  0  0  0  0  0
    2.5190    0.9247   -1.9954 H   0  0  0  0  0  0  0  0  0  0  0  0
    4.1796   -0.4027   -1.7647 C   0  0  0  0  0  0  0  0  0  0  0  0
    4.1940   -1.2816   -2.4178 H   0  0  0  0  0  0  0  0  0  0  0  0
    4.7768    0.3863   -2.2316 H   0  0  0  0  0  0  0  0  0  0  0  0
    4.6446   -0.6662   -0.8088 H   0  0  0  0  0  0  0  0  0  0  0  0
  1  2  1  0  0  0  0
  2  3  1  0  0  0  0
  2  4  1  0  0  0  0
  2  5  1  0  0  0  0
  5  6  2  0  0  0  0
  5  7  1  0  0  0  0
  7  8  1  0  0  0  0
  7 17  1  0  0  0  0
  8  9  1  0  0  0  0
  8 10  1  0  0  0  0
  8 11  1  0  0  0  0
 11 12  1  0  0  0  0
 11 13  1  0  0  0  0
 11 14  1  0  0  0  0
 14 15  1  0  0  0  0
 14 16  1  0  0  0  0
 14 17  1  0  0  0  0
 17 18  1  0  0  0  0
 17 19  1  0  0  0  0
 19 20  2  0  0  0  0
 19 21  1  0  0  0  0
 21 22  1  0  0  0  0
 21 23  1  0  0  0  0
 23 24  1  0  0  0  0
 23 25  1  0  0  0  0
 23 26  1  0  0  0  0
M  END
$$$$

  -OEChem-01062216093D

 26 26  0     1  0  0  0  0  0999 V2000
   -2.1142   -3.8935   -1.0724 H   0  0  0  0  0  0  0  0  0  0  0  0
   -2.1146   -2.9199   -0.5735 C   0  0  0  0  0  0  0  0  0  0  0  0
   -1.9439   -3.0845    0.4929 H   0  0  0  0  0  0  0  0  0  0  0  0
   -3.0947   -2.4603   -0.7218 H   0  0  0  0  0  0  0  0  0  0  0  0
   -1.0120   -2.0328   -1.1543 C   0  0  0  0  0  0  0  0  0  0  0  0
   -0.3835   -2.5200   -2.0810 O   0  0  0  0  0  0  0  0  0  0  0  0
   -0.8916   -0.6454   -0.9877 N   0  0  0  0  0  0  0  0  0  0  0  0
   -1.8246   -0.1315    0.0368 C   0  0  0  0  0  0  0  0  0  0  0  0
   -2.0544   -0.8626    0.8173 H   0  0  0  0  0  0  0  0  0  0  0  0
   -2.7641    0.2040   -0.4151 H   0  0  0  0  0  0  0  0  0  0  0  0
   -1.1058    1.0122    0.7068 C   0  0  0  0  0  0  0  0  0  0  0  0
   -1.4647    1.1780    1.7276 H   0  0  0  0  0  0  0  0  0  0  0  0
   -1.2601    1.9317    0.1323 H   0  0  0  0  0  0  0  0  0  0  0  0
    0.3627    0.6247    0.6784 C   0  0  0  0  0  0  0  0  0  0  0  0
    0.6045   -0.0617    1.4969 H   0  0  0  0  0  0  0  0  0  0  0  0
    1.0247    1.4945    0.7363 H   0  0  0  0  0  0  0  0  0  0  0  0
    0.4535   -0.0961   -0.6568 C   0  0  1  0  0  0  0  0  0  0  0  0
    0.4632    0.7377   -1.3663 H   0  0  0  0  0  0  0  0  0  0  0  0
    1.8151   -0.7137   -1.0623 C   0  0  0  0  0  0  0  0  0  0  0  0
    2.0867   -1.8661   -0.7520 O   0  0  0  0  0  0  0  0  0  0  0  0
    2.8934    0.1339   -1.2667 N   0  0  0  0  0  0  0  0  0  0  0  0
    2.6906    1.1106   -1.4538 H   0  0  0  0  0  0  0  0  0  0  0  0
    4.2686   -0.3332   -1.4056 C   0  0  0  0  0  0  0  0  0  0  0  0
    4.3441   -1.0688   -2.2134 H   0  0  0  0  0  0  0  0  0  0  0  0
    4.9310    0.5057   -1.6393 H   0  0  0  0  0  0  0  0  0  0  0  0
    4.6122   -0.7955   -0.4743 H   0  0  0  0  0  0  0  0  0  0  0  0
  1  2  1  0  0  0  0
  2  3  1  0  0  0  0
  2  4  1  0  0  0  0
  2  5  1  0  0  0  0
  5  6  2  0  0  0  0
  5  7  1  0  0  0  0
  7  8  1  0  0  0  0
  7 17  1  0  0  0  0
  8  9  1  0  0  0  0
  8 10  1  0  0  0  0
  8 11  1  0  0  0  0
 11 12  1  0  0  0  0
 11 13  1  0  0  0  0
 11 14  1  0  0  0  0
 14 15  1  0  0  0  0
 14 16  1  0  0  0  0
 14 17  1  0  0  0  0
 17 18  1  0  0  0  0
 17 19  1  0  0  0  0
 19 20  2  0  0  0  0
 19 21  1  0  0  0  0
 21 22  1  0  0  0  0
 21 23  1  0  0  0  0
 23 24  1  0  0  0  0
 23 25  1  0  0  0  0
 23 26  1  0  0  0  0
M  END
$$$$

  -OEChem-01062216093D

 26 26  0     1  0  0  0  0  0999 V2000
   -0.2431   -3.5843   -1.0115 H   0  0  0  0  0  0  0  0  0  0  0  0
   -0.8744   -2.8929   -0.4478 C   0  0  0  0  0  0  0  0  0  0  0  0
   -0.3109   -2.5076    0.4040 H   0  0  0  0  0  0  0  0  0  0  0  0
   -1.7393   -3.4421   -0.0667 H   0  0  0  0  0  0  0  0  0  0  0  0
   -1.3406   -1.7598   -1.3579 C   0  0  0  0  0  0  0  0  0  0  0  0
   -2.3575   -1.9796   -2.0038 O   0  0  0  0  0  0  0  0  0  0  0  0
   -1.0038   -0.4171   -1.1558 N   0  0  0  0  0  0  0  0  0  0  0  0
   -2.0310    0.1530   -0.2648 C   0  0  0  0  0  0  0  0  0  0  0  0
   -2.4610   -0.5942    0.4142 H   0  0  0  0  0  0  0  0  0  0  0  0
   -2.8471    0.6058   -0.8384 H   0  0  0  0  0  0  0  0  0  0  0  0
   -1.2962    1.1908    0.5443 C   0  0  0  0  0  0  0  0  0  0  0  0
   -1.7692    1.3537    1.5178 H   0  0  0  0  0  0  0  0  0  0  0  0
   -1.2915    2.1412    0.0001 H   0  0  0  0  0  0  0  0  0  0  0  0
    0.1277    0.6706    0.6859 C   0  0  0  0  0  0  0  0  0  0  0  0
    0.1958   -0.0588    1.4999 H   0  0  0  0  0  0  0  0  0  0  0  0
    0.8455    1.4765    0.8685 H   0  0  0  0  0  0  0  0  0  0  0  0
    0.3377   -0.0131   -0.6581 C   0  0  1  0  0  0  0  0  0  0  0  0
    0.5350    0.8311   -1.3272 H   0  0  0  0  0  0  0  0  0  0  0  0
    1.6563   -0.7882   -0.9037 C   0  0  0  0  0  0  0  0  0  0  0  0
    1.6888   -1.8960   -1.4172 O   0  0  0  0  0  0  0  0  0  0  0  0
    2.8620   -0.1533   -0.6583 N   0  0  0  0  0  0  0  0  0  0  0  0
    2.8308    0.8000   -0.3098 H   0  0  0  0  0  0  0  0  0  0  0  0
    4.1598   -0.7453   -0.9635 C   0  0  0  0  0  0  0  0  0  0  0  0
    4.2454   -0.9487   -2.0362 H   0  0  0  0  0  0  0  0  0  0  0  0
    4.9643   -0.0616   -0.6760 H   0  0  0  0  0  0  0  0  0  0  0  0
    4.2920   -1.6837   -0.4147 H   0  0  0  0  0  0  0  0  0  0  0  0
  1  2  1  0  0  0  0
  2  3  1  0  0  0  0
  2  4  1  0  0  0  0
  2  5  1  0  0  0  0
  5  6  2  0  0  0  0
  5  7  1  0  0  0  0
  7  8  1  0  0  0  0
  7 17  1  0  0  0  0
  8  9  1  0  0  0  0
  8 10  1  0  0  0  0
  8 11  1  0  0  0  0
 11 12  1  0  0  0  0
 11 13  1  0  0  0  0
 11 14  1  0  0  0  0
 14 15  1  0  0  0  0
 14 16  1  0  0  0  0
 14 17  1  0  0  0  0
 17 18  1  0  0  0  0
 17 19  1  0  0  0  0
 19 20  2  0  0  0  0
 19 21  1  0  0  0  0
 21 22  1  0  0  0  0
 21 23  1  0  0  0  0
 23 24  1  0  0  0  0
 23 25  1  0  0  0  0
 23 26  1  0  0  0  0
M  END
$$$$

  -OEChem-01062216093D

 26 26  0     1  0  0  0  0  0999 V2000
   -1.6518   -3.9944   -0.8636 H   0  0  0  0  0  0  0  0  0  0  0  0
   -1.6780   -2.9785   -1.2668 C   0  0  0  0  0  0  0  0  0  0  0  0
   -2.7181   -2.6584   -1.3585 H   0  0  0  0  0  0  0  0  0  0  0  0
   -1.2160   -2.9795   -2.2572 H   0  0  0  0  0  0  0  0  0  0  0  0
   -0.9199   -2.0309   -0.3551 C   0  0  0  0  0  0  0  0  0  0  0  0
   -0.3596   -2.4738    0.6442 O   0  0  0  0  0  0  0  0  0  0  0  0
   -0.9259   -0.6629   -0.6342 N   0  0  0  0  0  0  0  0  0  0  0  0
   -1.8574   -0.0747    0.3556 C   0  0  0  0  0  0  0  0  0  0  0  0
   -2.0966   -0.7361    1.1989 H   0  0  0  0  0  0  0  0  0  0  0  0
   -2.8011    0.2074   -0.1225 H   0  0  0  0  0  0  0  0  0  0  0  0
   -1.1425    1.1425    0.8810 C   0  0  0  0  0  0  0  0  0  0  0  0
   -1.4667    1.3913    1.8964 H   0  0  0  0  0  0  0  0  0  0  0  0
   -1.3557    1.9990    0.2328 H   0  0  0  0  0  0  0  0  0  0  0  0
    0.3442    0.8170    0.8303 C   0  0  0  0  0  0  0  0  0  0  0  0
    0.6456    0.2235    1.7003 H   0  0  0  0  0  0  0  0  0  0  0  0
    0.9659    1.7159    0.7726 H   0  0  0  0  0  0  0  0  0  0  0  0
    0.4017   -0.0286   -0.4315 C   0  0  1  0  0  0  0  0  0  0  0  0
    0.3526    0.7491   -1.2010 H   0  0  0  0  0  0  0  0  0  0  0  0
    1.7146   -0.6783   -0.9321 C   0  0  0  0  0  0  0  0  0  0  0  0
    1.6992   -1.6270   -1.7075 O   0  0  0  0  0  0  0  0  0  0  0  0
    2.9209   -0.0367   -0.7085 N   0  0  0  0  0  0  0  0  0  0  0  0
    2.9229    0.7393   -0.0543 H   0  0  0  0  0  0  0  0  0  0  0  0
    4.1962   -0.5364   -1.2087 C   0  0  0  0  0  0  0  0  0  0  0  0
    4.1840   -0.5930   -2.3023 H   0  0  0  0  0  0  0  0  0  0  0  0
    5.0085    0.1320   -0.9079 H   0  0  0  0  0  0  0  0  0  0  0  0
    4.4009   -1.5341   -0.8062 H   0  0  0  0  0  0  0  0  0  0  0  0
  1  2  1  0  0  0  0
  2  3  1  0  0  0  0
  2  4  1  0  0  0  0
  2  5  1  0  0  0  0
  5  6  2  0  0  0  0
  5  7  1  0  0  0  0
  7  8  1  0  0  0  0
  7 17  1  0  0  0  0
  8  9  1  0  0  0  0
  8 10  1  0  0  0  0
  8 11  1  0  0  0  0
 11 12  1  0  0  0  0
 11 13  1  0  0  0  0
 11 14  1  0  0  0  0
 14 15  1  0  0  0  0
 14 16  1  0  0  0  0
 14 17  1  0  0  0  0
 17 18  1  0  0  0  0
 17 19  1  0  0  0  0
 19 20  2  0  0  0  0
 19 21  1  0  0  0  0
 21 22  1  0  0  0  0
 21 23  1  0  0  0  0
 23 24  1  0  0  0  0
 23 25  1  0  0  0  0
 23 26  1  0  0  0  0
M  END
$$$$

  -OEChem-01062216093D

 26 26  0     1  0  0  0  0  0999 V2000
   -1.6321   -3.9860   -0.8698 H   0  0  0  0  0  0  0  0  0  0  0  0
   -1.7396   -2.9572   -1.2238 C   0  0  0  0  0  0  0  0  0  0  0  0
   -2.7868   -2.6590   -1.1367 H   0  0  0  0  0  0  0  0  0  0  0  0
   -1.4422   -2.9133   -2.2745 H   0  0  0  0  0  0  0  0  0  0  0  0
   -0.8610   -2.0254   -0.4078 C   0  0  0  0  0  0  0  0  0  0  0  0
   -0.2115   -2.4808    0.5295 O   0  0  0  0  0  0  0  0  0  0  0  0
   -0.8852   -0.6545   -0.6711 N   0  0  0  0  0  0  0  0  0  0  0  0
   -1.8483   -0.1055    0.3100 C   0  0  0  0  0  0  0  0  0  0  0  0
   -2.0779   -0.7857    1.1413 H   0  0  0  0  0  0  0  0  0  0  0  0
   -2.7929    0.1566   -0.1778 H   0  0  0  0  0  0  0  0  0  0  0  0
   -1.1745    1.1231    0.8634 C   0  0  0  0  0  0  0  0  0  0  0  0
   -1.5220    1.3504    1.8760 H   0  0  0  0  0  0  0  0  0  0  0  0
   -1.3988    1.9824    0.2223 H   0  0  0  0  0  0  0  0  0  0  0  0
    0.3213    0.8374    0.8335 C   0  0  0  0  0  0  0  0  0  0  0  0
    0.6223    0.2395    1.7005 H   0  0  0  0  0  0  0  0  0  0  0  0
    0.9217    1.7518    0.7977 H   0  0  0  0  0  0  0  0  0  0  0  0
    0.4215    0.0111   -0.4382 C   0  0  1  0  0  0  0  0  0  0  0  0
    0.3719    0.7989   -1.1974 H   0  0  0  0  0  0  0  0  0  0  0  0
    1.7494   -0.6140   -0.9263 C   0  0  0  0  0  0  0  0  0  0  0  0
    1.7631   -1.4010   -1.8658 O   0  0  0  0  0  0  0  0  0  0  0  0
    2.9548   -0.1453   -0.4331 N   0  0  0  0  0  0  0  0  0  0  0  0
    2.9177    0.4568    0.3831 H   0  0  0  0  0  0  0  0  0  0  0  0
    4.2459   -0.6785   -0.8510 C   0  0  0  0  0  0  0  0  0  0  0  0
    4.3740   -0.5720   -1.9335 H   0  0  0  0  0  0  0  0  0  0  0  0
    5.0570   -0.1373   -0.3545 H   0  0  0  0  0  0  0  0  0  0  0  0
    4.3244   -1.7391   -0.5893 H   0  0  0  0  0  0  0  0  0  0  0  0
  1  2  1  0  0  0  0
  2  3  1  0  0  0  0
  2  4  1  0  0  0  0
  2  5  1  0  0  0  0
  5  6  2  0  0  0  0
  5  7  1  0  0  0  0
  7  8  1  0  0  0  0
  7 17  1  0  0  0  0
  8  9  1  0  0  0  0
  8 10  1  0  0  0  0
  8 11  1  0  0  0  0
 11 12  1  0  0  0  0
 11 13  1  0  0  0  0
 11 14  1  0  0  0  0
 14 15  1  0  0  0  0
 14 16  1  0  0  0  0
 14 17  1  0  0  0  0
 17 18  1  0  0  0  0
 17 19  1  0  0  0  0
 19 20  2  0  0  0  0
 19 21  1  0  0  0  0
 21 22  1  0  0  0  0
 21 23  1  0  0  0  0
 23 24  1  0  0  0  0
 23 25  1  0  0  0  0
 23 26  1  0  0  0  0
M  END
$$$$

  -OEChem-01062216093D

 26 26  0     1  0  0  0  0  0999 V2000
   -1.6126   -3.9778   -0.8555 H   0  0  0  0  0  0  0  0  0  0  0  0
   -1.7445   -2.9466   -1.1947 C   0  0  0  0  0  0  0  0  0  0  0  0
   -2.7857   -2.6534   -1.0426 H   0  0  0  0  0  0  0  0  0  0  0  0
   -1.5122   -2.8945   -2.2613 H   0  0  0  0  0  0  0  0  0  0  0  0
   -0.8199   -2.0169   -0.4270 C   0  0  0  0  0  0  0  0  0  0  0  0
   -0.1156   -2.4784    0.4662 O   0  0  0  0  0  0  0  0  0  0  0  0
   -0.8572   -0.6450   -0.6837 N   0  0  0  0  0  0  0  0  0  0  0  0
   -1.8474   -0.1202    0.2829 C   0  0  0  0  0  0  0  0  0  0  0  0
   -2.0762   -0.8093    1.1074 H   0  0  0  0  0  0  0  0  0  0  0  0
   -2.7888    0.1264   -0.2194 H   0  0  0  0  0  0  0  0  0  0  0  0
   -1.2063    1.1186    0.8527 C   0  0  0  0  0  0  0  0  0  0  0  0
   -1.5747    1.3348    1.8605 H   0  0  0  0  0  0  0  0  0  0  0  0
   -1.4367    1.9762    0.2118 H   0  0  0  0  0  0  0  0  0  0  0  0
    0.2955    0.8637    0.8461 C   0  0  0  0  0  0  0  0  0  0  0  0
    0.5936    0.2689    1.7160 H   0  0  0  0  0  0  0  0  0  0  0  0
    0.8787    1.7900    0.8234 H   0  0  0  0  0  0  0  0  0  0  0  0
    0.4319    0.0458   -0.4278 C   0  0  1  0  0  0  0  0  0  0  0  0
    0.3815    0.8377   -1.1828 H   0  0  0  0  0  0  0  0  0  0  0  0
    1.7727   -0.5610   -0.9003 C   0  0  0  0  0  0  0  0  0  0  0  0
    1.8353   -1.1721   -1.9606 O   0  0  0  0  0  0  0  0  0  0  0  0
    2.9364   -0.3164   -0.1927 N   0  0  0  0  0  0  0  0  0  0  0  0
    2.8335    0.0903    0.7317 H   0  0  0  0  0  0  0  0  0  0  0  0
    4.2219   -0.8977   -0.5593 C   0  0  0  0  0  0  0  0  0  0  0  0
    4.4927   -0.6175   -1.5827 H   0  0  0  0  0  0  0  0  0  0  0  0
    5.0052   -0.5369    0.1140 H   0  0  0  0  0  0  0  0  0  0  0  0
    4.1808   -1.9900   -0.4918 H   0  0  0  0  0  0  0  0  0  0  0  0
  1  2  1  0  0  0  0
  2  3  1  0  0  0  0
  2  4  1  0  0  0  0
  2  5  1  0  0  0  0
  5  6  2  0  0  0  0
  5  7  1  0  0  0  0
  7  8  1  0  0  0  0
  7 17  1  0  0  0  0
  8  9  1  0  0  0  0
  8 10  1  0  0  0  0
  8 11  1  0  0  0  0
 11 12  1  0  0  0  0
 11 13  1  0  0  0  0
 11 14  1  0  0  0  0
 14 15  1  0  0  0  0
 14 16  1  0  0  0  0
 14 17  1  0  0  0  0
 17 18  1  0  0  0  0
 17 19  1  0  0  0  0
 19 20  2  0  0  0  0
 19 21  1  0  0  0  0
 21 22  1  0  0  0  0
 21 23  1  0  0  0  0
 23 24  1  0  0  0  0
 23 25  1  0  0  0  0
 23 26  1  0  0  0  0
M  END
$$$$

  -OEChem-01062216093D

 26 26  0     1  0  0  0  0  0999 V2000
   -1.5348   -3.9777   -0.9256 H   0  0  0  0  0  0  0  0  0  0  0  0
   -1.7573   -2.9336   -1.1623 C   0  0  0  0  0  0  0  0  0  0  0  0
   -2.7817   -2.7112   -0.8554 H   0  0  0  0  0  0  0  0  0  0  0  0
   -1.6704   -2.7920   -2.2424 H   0  0  0  0  0  0  0  0  0  0  0  0
   -0.7820   -2.0129   -0.4469 C   0  0  0  0  0  0  0  0  0  0  0  0
   -0.0264   -2.4874    0.3957 O   0  0  0  0  0  0  0  0  0  0  0  0
   -0.8239   -0.6396   -0.6954 N   0  0  0  0  0  0  0  0  0  0  0  0
   -1.8433   -0.1329    0.2498 C   0  0  0  0  0  0  0  0  0  0  0  0
   -2.0747   -0.8268    1.0697 H   0  0  0  0  0  0  0  0  0  0  0  0
   -2.7786    0.0978   -0.2709 H   0  0  0  0  0  0  0  0  0  0  0  0
   -1.2352    1.1155    0.8344 C   0  0  0  0  0  0  0  0  0  0  0  0
   -1.6287    1.3250    1.8339 H   0  0  0  0  0  0  0  0  0  0  0  0
   -1.4661    1.9697    0.1891 H   0  0  0  0  0  0  0  0  0  0  0  0
    0.2708    0.8861    0.8600 C   0  0  0  0  0  0  0  0  0  0  0  0
    0.5600    0.2965    1.7362 H   0  0  0  0  0  0  0  0  0  0  0  0
    0.8394    1.8216    0.8496 H   0  0  0  0  0  0  0  0  0  0  0  0
    0.4473    0.0725   -0.4113 C   0  0  1  0  0  0  0  0  0  0  0  0
    0.3977    0.8666   -1.1643 H   0  0  0  0  0  0  0  0  0  0  0  0
    1.8057   -0.5117   -0.8597 C   0  0  0  0  0  0  0  0  0  0  0  0
    1.9520   -0.9184   -2.0063 O   0  0  0  0  0  0  0  0  0  0  0  0
    2.8824   -0.5220    0.0090 N   0  0  0  0  0  0  0  0  0  0  0  0
    2.6700   -0.3505    0.9869 H   0  0  0  0  0  0  0  0  0  0  0  0
    4.1476   -1.1675   -0.3185 C   0  0  0  0  0  0  0  0  0  0  0  0
    4.5589   -0.7607   -1.2485 H   0  0  0  0  0  0  0  0  0  0  0  0
    4.8756   -0.9986    0.4807 H   0  0  0  0  0  0  0  0  0  0  0  0
    4.0051   -2.2467   -0.4385 H   0  0  0  0  0  0  0  0  0  0  0  0
  1  2  1  0  0  0  0
  2  3  1  0  0  0  0
  2  4  1  0  0  0  0
  2  5  1  0  0  0  0
  5  6  2  0  0  0  0
  5  7  1  0  0  0  0
  7  8  1  0  0  0  0
  7 17  1  0  0  0  0
  8  9  1  0  0  0  0
  8 10  1  0  0  0  0
  8 11  1  0  0  0  0
 11 12  1  0  0  0  0
 11 13  1  0  0  0  0
 11 14  1  0  0  0  0
 14 15  1  0  0  0  0
 14 16  1  0  0  0  0
 14 17  1  0  0  0  0
 17 18  1  0  0  0  0
 17 19  1  0  0  0  0
 19 20  2  0  0  0  0
 19 21  1  0  0  0  0
 21 22  1  0  0  0  0
 21 23  1  0  0  0  0
 23 24  1  0  0  0  0
 23 25  1  0  0  0  0
 23 26  1  0  0  0  0
M  END
$$$$

  -OEChem-01062216093D

 26 26  0     1  0  0  0  0  0999 V2000
   -1.5206   -3.9751   -0.9565 H   0  0  0  0  0  0  0  0  0  0  0  0
   -1.7964   -2.9272   -1.1031 C   0  0  0  0  0  0  0  0  0  0  0  0
   -2.7863   -2.7576   -0.6735 H   0  0  0  0  0  0  0  0  0  0  0  0
   -1.8338   -2.7217   -2.1759 H   0  0  0  0  0  0  0  0  0  0  0  0
   -0.7722   -2.0182   -0.4423 C   0  0  0  0  0  0  0  0  0  0  0  0
    0.0146   -2.5037    0.3640 O   0  0  0  0  0  0  0  0  0  0  0  0
   -0.7968   -0.6463   -0.7019 N   0  0  0  0  0  0  0  0  0  0  0  0
   -1.8411   -0.1280    0.2092 C   0  0  0  0  0  0  0  0  0  0  0  0
   -2.0918   -0.8110    1.0324 H   0  0  0  0  0  0  0  0  0  0  0  0
   -2.7630    0.0950   -0.3383 H   0  0  0  0  0  0  0  0  0  0  0  0
   -1.2485    1.1281    0.7928 C   0  0  0  0  0  0  0  0  0  0  0  0
   -1.6680    1.3499    1.7792 H   0  0  0  0  0  0  0  0  0  0  0  0
   -1.4636    1.9737    0.1309 H   0  0  0  0  0  0  0  0  0  0  0  0
    0.2570    0.9018    0.8599 C   0  0  0  0  0  0  0  0  0  0  0  0
    0.5259    0.3255    1.7512 H   0  0  0  0  0  0  0  0  0  0  0  0
    0.8249    1.8379    0.8502 H   0  0  0  0  0  0  0  0  0  0  0  0
    0.4661    0.0721   -0.3956 C   0  0  1  0  0  0  0  0  0  0  0  0
    0.4283    0.8589   -1.1576 H   0  0  0  0  0  0  0  0  0  0  0  0
    1.8389   -0.5092   -0.8031 C   0  0  0  0  0  0  0  0  0  0  0  0
    2.1077   -0.6856   -1.9857 O   0  0  0  0  0  0  0  0  0  0  0  0
    2.7884   -0.7900    0.1624 N   0  0  0  0  0  0  0  0  0  0  0  0
    2.4354   -0.8638    1.1123 H   0  0  0  0  0  0  0  0  0  0  0  0
    4.0475   -1.4538   -0.1519 C   0  0  0  0  0  0  0  0  0  0  0  0
    4.6086   -0.8811   -0.8979 H   0  0  0  0  0  0  0  0  0  0  0  0
    4.6635   -1.5401    0.7482 H   0  0  0  0  0  0  0  0  0  0  0  0
    3.8619   -2.4588   -0.5453 H   0  0  0  0  0  0  0  0  0  0  0  0
  1  2  1  0  0  0  0
  2  3  1  0  0  0  0
  2  4  1  0  0  0  0
  2  5  1  0  0  0  0
  5  6  2  0  0  0  0
  5  7  1  0  0  0  0
  7  8  1  0  0  0  0
  7 17  1  0  0  0  0
  8  9  1  0  0  0  0
  8 10  1  0  0  0  0
  8 11  1  0  0  0  0
 11 12  1  0  0  0  0
 11 13  1  0  0  0  0
 11 14  1  0  0  0  0
 14 15  1  0  0  0  0
 14 16  1  0  0  0  0
 14 17  1  0  0  0  0
 17 18  1  0  0  0  0
 17 19  1  0  0  0  0
 19 20  2  0  0  0  0
 19 21  1  0  0  0  0
 21 22  1  0  0  0  0
 21 23  1  0  0  0  0
 23 24  1  0  0  0  0
 23 25  1  0  0  0  0
 23 26  1  0  0  0  0
M  END
$$$$

  -OEChem-01062216093D

 26 26  0     1  0  0  0  0  0999 V2000
   -1.5177   -3.9621   -1.0534 H   0  0  0  0  0  0  0  0  0  0  0  0
   -1.8421   -2.9181   -1.0701 C   0  0  0  0  0  0  0  0  0  0  0  0
   -2.7834   -2.8298   -0.5231 H   0  0  0  0  0  0  0  0  0  0  0  0
   -2.0042   -2.6191   -2.1088 H   0  0  0  0  0  0  0  0  0  0  0  0
   -0.7811   -2.0308   -0.4374 C   0  0  0  0  0  0  0  0  0  0  0  0
    0.0140   -2.5360    0.3478 O   0  0  0  0  0  0  0  0  0  0  0  0
   -0.7780   -0.6596   -0.7019 N   0  0  0  0  0  0  0  0  0  0  0  0
   -1.8393   -0.1247    0.1799 C   0  0  0  0  0  0  0  0  0  0  0  0
   -2.1077   -0.7956    1.0076 H   0  0  0  0  0  0  0  0  0  0  0  0
   -2.7493    0.0935   -0.3889 H   0  0  0  0  0  0  0  0  0  0  0  0
   -1.2546    1.1366    0.7607 C   0  0  0  0  0  0  0  0  0  0  0  0
   -1.6952    1.3738    1.7341 H   0  0  0  0  0  0  0  0  0  0  0  0
   -1.4499    1.9747    0.0831 H   0  0  0  0  0  0  0  0  0  0  0  0
    0.2478    0.9037    0.8656 C   0  0  0  0  0  0  0  0  0  0  0  0
    0.4956    0.3389    1.7700 H   0  0  0  0  0  0  0  0  0  0  0  0
    0.8208    1.8365    0.8553 H   0  0  0  0  0  0  0  0  0  0  0  0
    0.4806    0.0574   -0.3733 C   0  0  1  0  0  0  0  0  0  0  0  0
    0.4534    0.8369   -1.1438 H   0  0  0  0  0  0  0  0  0  0  0  0
    1.8662   -0.5221   -0.7414 C   0  0  0  0  0  0  0  0  0  0  0  0
    2.2893   -0.4423   -1.8890 O   0  0  0  0  0  0  0  0  0  0  0  0
    2.6618   -1.0777    0.2431 N   0  0  0  0  0  0  0  0  0  0  0  0
    2.1521   -1.3896    1.0673 H   0  0  0  0  0  0  0  0  0  0  0  0
    3.9231   -1.7412   -0.0613 C   0  0  0  0  0  0  0  0  0  0  0  0
    4.6006   -1.0584   -0.5846 H   0  0  0  0  0  0  0  0  0  0  0  0
    4.4107   -2.0664    0.8626 H   0  0  0  0  0  0  0  0  0  0  0  0
    3.7503   -2.6191   -0.6925 H   0  0  0  0  0  0  0  0  0  0  0  0
  1  2  1  0  0  0  0
  2  3  1  0  0  0  0
  2  4  1  0  0  0  0
  2  5  1  0  0  0  0
  5  6  2  0  0  0  0
  5  7  1  0  0  0  0
  7  8  1  0  0  0  0
  7 17  1  0  0  0  0
  8  9  1  0  0  0  0
  8 10  1  0  0  0  0
  8 11  1  0  0  0  0
 11 12  1  0  0  0  0
 11 13  1  0  0  0  0
 11 14  1  0  0  0  0
 14 15  1  0  0  0  0
 14 16  1  0  0  0  0
 14 17  1  0  0  0  0
 17 18  1  0  0  0  0
 17 19  1  0  0  0  0
 19 20  2  0  0  0  0
 19 21  1  0  0  0  0
 21 22  1  0  0  0  0
 21 23  1  0  0  0  0
 23 24  1  0  0  0  0
 23 25  1  0  0  0  0
 23 26  1  0  0  0  0
M  END
$$$$

  -OEChem-01062216093D

 26 26  0     1  0  0  0  0  0999 V2000
   -1.6216   -3.9634   -1.0310 H   0  0  0  0  0  0  0  0  0  0  0  0
   -1.9135   -2.9098   -1.0531 C   0  0  0  0  0  0  0  0  0  0  0  0
   -2.8549   -2.7912   -0.5118 H   0  0  0  0  0  0  0  0  0  0  0  0
   -2.0609   -2.6098   -2.0938 H   0  0  0  0  0  0  0  0  0  0  0  0
   -0.8291   -2.0533   -0.4175 C   0  0  0  0  0  0  0  0  0  0  0  0
   -0.0505   -2.5835    0.3670 O   0  0  0  0  0  0  0  0  0  0  0  0
   -0.7831   -0.6839   -0.6858 N   0  0  0  0  0  0  0  0  0  0  0  0
   -1.8441   -0.1189    0.1783 C   0  0  0  0  0  0  0  0  0  0  0  0
   -2.1301   -0.7731    1.0135 H   0  0  0  0  0  0  0  0  0  0  0  0
   -2.7457    0.1049   -0.4019 H   0  0  0  0  0  0  0  0  0  0  0  0
   -1.2466    1.1420    0.7470 C   0  0  0  0  0  0  0  0  0  0  0  0
   -1.6931    1.3995    1.7127 H   0  0  0  0  0  0  0  0  0  0  0  0
   -1.4228    1.9731    0.0556 H   0  0  0  0  0  0  0  0  0  0  0  0
    0.2510    0.8886    0.8707 C   0  0  0  0  0  0  0  0  0  0  0  0
    0.4834    0.3329    1.7852 H   0  0  0  0  0  0  0  0  0  0  0  0
    0.8381    1.8126    0.8528 H   0  0  0  0  0  0  0  0  0  0  0  0
    0.4834    0.0212   -0.3527 C   0  0  1  0  0  0  0  0  0  0  0  0
    0.4611    0.7896   -1.1344 H   0  0  0  0  0  0  0  0  0  0  0  0
    1.8781   -0.5580   -0.6936 C   0  0  0  0  0  0  0  0  0  0  0  0
    2.4549   -0.2309   -1.7246 O   0  0  0  0  0  0  0  0  0  0  0  0
    2.5271   -1.3709    0.2157 N   0  0  0  0  0  0  0  0  0  0  0  0
    1.8988   -1.8434    0.8674 H   0  0  0  0  0  0  0  0  0  0  0  0
    3.8047   -2.0079   -0.0761 C   0  0  0  0  0  0  0  0  0  0  0  0
    4.5610   -1.2564   -0.3256 H   0  0  0  0  0  0  0  0  0  0  0  0
    4.1532   -2.5681    0.7967 H   0  0  0  0  0  0  0  0  0  0  0  0
    3.7040   -2.7003   -0.9182 H   0  0  0  0  0  0  0  0  0  0  0  0
  1  2  1  0  0  0  0
  2  3  1  0  0  0  0
  2  4  1  0  0  0  0
  2  5  1  0  0  0  0
  5  6  2  0  0  0  0
  5  7  1  0  0  0  0
  7  8  1  0  0  0  0
  7 17  1  0  0  0  0
  8  9  1  0  0  0  0
  8 10  1  0  0  0  0
  8 11  1  0  0  0  0
 11 12  1  0  0  0  0
 11 13  1  0  0  0  0
 11 14  1  0  0  0  0
 14 15  1  0  0  0  0
 14 16  1  0  0  0  0
 14 17  1  0  0  0  0
 17 18  1  0  0  0  0
 17 19  1  0  0  0  0
 19 20  2  0  0  0  0
 19 21  1  0  0  0  0
 21 22  1  0  0  0  0
 21 23  1  0  0  0  0
 23 24  1  0  0  0  0
 23 25  1  0  0  0  0
 23 26  1  0  0  0  0
M  END
$$$$

  -OEChem-01062216093D

 26 26  0     1  0  0  0  0  0999 V2000
   -1.7885   -3.9368   -1.1069 H   0  0  0  0  0  0  0  0  0  0  0  0
   -2.0538   -2.8790   -1.0283 C   0  0  0  0  0  0  0  0  0  0  0  0
   -2.9452   -2.7828   -0.4041 H   0  0  0  0  0  0  0  0  0  0  0  0
   -2.2769   -2.5000   -2.0288 H   0  0  0  0  0  0  0  0  0  0  0  0
   -0.8999   -2.0939   -0.4219 C   0  0  0  0  0  0  0  0  0  0  0  0
   -0.1231   -2.6873    0.3150 O   0  0  0  0  0  0  0  0  0  0  0  0
   -0.7860   -0.7251   -0.6715 N   0  0  0  0  0  0  0  0  0  0  0  0
   -1.8502   -0.1217    0.1618 C   0  0  0  0  0  0  0  0  0  0  0  0
   -2.1596   -0.7552    1.0045 H   0  0  0  0  0  0  0  0  0  0  0  0
   -2.7380    0.1075   -0.4373 H   0  0  0  0  0  0  0  0  0  0  0  0
   -1.2405    1.1389    0.7179 C   0  0  0  0  0  0  0  0  0  0  0  0
   -1.7015    1.4249    1.6685 H   0  0  0  0  0  0  0  0  0  0  0  0
   -1.3853    1.9594    0.0067 H   0  0  0  0  0  0  0  0  0  0  0  0
    0.2481    0.8572    0.8768 C   0  0  0  0  0  0  0  0  0  0  0  0
    0.4515    0.3151    1.8061 H   0  0  0  0  0  0  0  0  0  0  0  0
    0.8539    1.7691    0.8527 H   0  0  0  0  0  0  0  0  0  0  0  0
    0.4895   -0.0385   -0.3239 C   0  0  1  0  0  0  0  0  0  0  0  0
    0.4770    0.7126   -1.1225 H   0  0  0  0  0  0  0  0  0  0  0  0
    1.9020   -0.6001   -0.6312 C   0  0  0  0  0  0  0  0  0  0  0  0
    2.6156   -0.0492   -1.4623 O   0  0  0  0  0  0  0  0  0  0  0  0
    2.4328   -1.6363    0.1118 N   0  0  0  0  0  0  0  0  0  0  0  0
    1.7393   -2.1947    0.6155 H   0  0  0  0  0  0  0  0  0  0  0  0
    3.7255   -2.2424   -0.1785 C   0  0  0  0  0  0  0  0  0  0  0  0
    4.5223   -1.4933   -0.1240 H   0  0  0  0  0  0  0  0  0  0  0  0
    3.9438   -3.0294    0.5496 H   0  0  0  0  0  0  0  0  0  0  0  0
    3.7242   -2.6851   -1.1798 H   0  0  0  0  0  0  0  0  0  0  0  0
  1  2  1  0  0  0  0
  2  3  1  0  0  0  0
  2  4  1  0  0  0  0
  2  5  1  0  0  0  0
  5  6  2  0  0  0  0
  5  7  1  0  0  0  0
  7  8  1  0  0  0  0
  7 17  1  0  0  0  0
  8  9  1  0  0  0  0
  8 10  1  0  0  0  0
  8 11  1  0  0  0  0
 11 12  1  0  0  0  0
 11 13  1  0  0  0  0
 11 14  1  0  0  0  0
 14 15  1  0  0  0  0
 14 16  1  0  0  0  0
 14 17  1  0  0  0  0
 17 18  1  0  0  0  0
 17 19  1  0  0  0  0
 19 20  2  0  0  0  0
 19 21  1  0  0  0  0
 21 22  1  0  0  0  0
 21 23  1  0  0  0  0
 23 24  1  0  0  0  0
 23 25  1  0  0  0  0
 23 26  1  0  0  0  0
M  END
$$$$

  -OEChem-01062216093D

 26 26  0     1  0  0  0  0  0999 V2000
   -1.9579   -3.9115   -1.1397 H   0  0  0  0  0  0  0  0  0  0  0  0
   -2.1878   -2.8508   -1.0075 C   0  0  0  0  0  0  0  0  0  0  0  0
   -3.0513   -2.7552   -0.3452 H   0  0  0  0  0  0  0  0  0  0  0  0
   -2.4376   -2.4242   -1.9823 H   0  0  0  0  0  0  0  0  0  0  0  0
   -0.9877   -2.1260   -0.4146 C   0  0  0  0  0  0  0  0  0  0  0  0
   -0.2238   -2.7683    0.2920 O   0  0  0  0  0  0  0  0  0  0  0  0
   -0.8124   -0.7622   -0.6557 N   0  0  0  0  0  0  0  0  0  0  0  0
   -1.8608   -0.1162    0.1655 C   0  0  0  0  0  0  0  0  0  0  0  0
   -2.1819   -0.7276    1.0200 H   0  0  0  0  0  0  0  0  0  0  0  0
   -2.7437    0.1229   -0.4370 H   0  0  0  0  0  0  0  0  0  0  0  0
   -1.2227    1.1400    0.6995 C   0  0  0  0  0  0  0  0  0  0  0  0
   -1.6787    1.4556    1.6431 H   0  0  0  0  0  0  0  0  0  0  0  0
   -1.3440    1.9501   -0.0277 H   0  0  0  0  0  0  0  0  0  0  0  0
    0.2569    0.8220    0.8679 C   0  0  0  0  0  0  0  0  0  0  0  0
    0.4444    0.2925    1.8076 H   0  0  0  0  0  0  0  0  0  0  0  0
    0.8864    1.7172    0.8288 H   0  0  0  0  0  0  0  0  0  0  0  0
    0.4809   -0.1020   -0.3146 C   0  0  1  0  0  0  0  0  0  0  0  0
    0.4785    0.6299   -1.1311 H   0  0  0  0  0  0  0  0  0  0  0  0
    1.8981   -0.6620   -0.6093 C   0  0  0  0  0  0  0  0  0  0  0  0
    2.7071    0.0362   -1.2107 O   0  0  0  0  0  0  0  0  0  0  0  0
    2.3374   -1.8676   -0.0998 N   0  0  0  0  0  0  0  0  0  0  0  0
    1.6162   -2.4639    0.3135 H   0  0  0  0  0  0  0  0  0  0  0  0
    3.6539   -2.4328   -0.3632 C   0  0  0  0  0  0  0  0  0  0  0  0
    4.4395   -1.7564   -0.0105 H   0  0  0  0  0  0  0  0  0  0  0  0
    3.7632   -3.3889    0.1575 H   0  0  0  0  0  0  0  0  0  0  0  0
    3.7895   -2.6035   -1.4360 H   0  0  0  0  0  0  0  0  0  0  0  0
  1  2  1  0  0  0  0
  2  3  1  0  0  0  0
  2  4  1  0  0  0  0
  2  5  1  0  0  0  0
  5  6  2  0  0  0  0
  5  7  1  0  0  0  0
  7  8  1  0  0  0  0
  7 17  1  0  0  0  0
  8  9  1  0  0  0  0
  8 10  1  0  0  0  0
  8 11  1  0  0  0  0
 11 12  1  0  0  0  0
 11 13  1  0  0  0  0
 11 14  1  0  0  0  0
 14 15  1  0  0  0  0
 14 16  1  0  0  0  0
 14 17  1  0  0  0  0
 17 18  1  0  0  0  0
 17 19  1  0  0  0  0
 19 20  2  0  0  0  0
 19 21  1  0  0  0  0
 21 22  1  0  0  0  0
 21 23  1  0  0  0  0
 23 24  1  0  0  0  0
 23 25  1  0  0  0  0
 23 26  1  0  0  0  0
M  END
$$$$

  -OEChem-01062216093D

 26 26  0     1  0  0  0  0  0999 V2000
   -2.0943   -3.9066   -1.0866 H   0  0  0  0  0  0  0  0  0  0  0  0
   -2.2814   -2.8338   -0.9874 C   0  0  0  0  0  0  0  0  0  0  0  0
   -3.1455   -2.6841   -0.3360 H   0  0  0  0  0  0  0  0  0  0  0  0
   -2.5053   -2.4258   -1.9762 H   0  0  0  0  0  0  0  0  0  0  0  0
   -1.0577   -2.1414   -0.4047 C   0  0  0  0  0  0  0  0  0  0  0  0
   -0.3025   -2.8052    0.2909 O   0  0  0  0  0  0  0  0  0  0  0  0
   -0.8509   -0.7821   -0.6439 N   0  0  0  0  0  0  0  0  0  0  0  0
   -1.8736   -0.1096    0.1876 C   0  0  0  0  0  0  0  0  0  0  0  0
   -2.1952   -0.7106    1.0492 H   0  0  0  0  0  0  0  0  0  0  0  0
   -2.7601    0.1451   -0.4032 H   0  0  0  0  0  0  0  0  0  0  0  0
   -1.2013    1.1353    0.7056 C   0  0  0  0  0  0  0  0  0  0  0  0
   -1.6365    1.4656    1.6540 H   0  0  0  0  0  0  0  0  0  0  0  0
   -1.3156    1.9439   -0.0244 H   0  0  0  0  0  0  0  0  0  0  0  0
    0.2730    0.7858    0.8544 C   0  0  0  0  0  0  0  0  0  0  0  0
    0.4623    0.2576    1.7945 H   0  0  0  0  0  0  0  0  0  0  0  0
    0.9205    1.6674    0.8016 H   0  0  0  0  0  0  0  0  0  0  0  0
    0.4629   -0.1493   -0.3258 C   0  0  1  0  0  0  0  0  0  0  0  0
    0.4640    0.5747   -1.1493 H   0  0  0  0  0  0  0  0  0  0  0  0
    1.8720   -0.7200   -0.6398 C   0  0  0  0  0  0  0  0  0  0  0  0
    2.7470    0.0520   -1.0156 O   0  0  0  0  0  0  0  0  0  0  0  0
    2.2300   -2.0341   -0.4140 N   0  0  0  0  0  0  0  0  0  0  0  0
    1.5021   -2.6437   -0.0341 H   0  0  0  0  0  0  0  0  0  0  0  0
    3.5685   -2.5693   -0.6232 C   0  0  0  0  0  0  0  0  0  0  0  0
    4.2908   -2.0569    0.0206 H   0  0  0  0  0  0  0  0  0  0  0  0
    3.5882   -3.6370   -0.3853 H   0  0  0  0  0  0  0  0  0  0  0  0
    3.8727   -2.4422   -1.6674 H   0  0  0  0  0  0  0  0  0  0  0  0
  1  2  1  0  0  0  0
  2  3  1  0  0  0  0
  2  4  1  0  0  0  0
  2  5  1  0  0  0  0
  5  6  2  0  0  0  0
  5  7  1  0  0  0  0
  7  8  1  0  0  0  0
  7 17  1  0  0  0  0
  8  9  1  0  0  0  0
  8 10  1  0  0  0  0
  8 11  1  0  0  0  0
 11 12  1  0  0  0  0
 11 13  1  0  0  0  0
 11 14  1  0  0  0  0
 14 15  1  0  0  0  0
 14 16  1  0  0  0  0
 14 17  1  0  0  0  0
 17 18  1  0  0  0  0
 17 19  1  0  0  0  0
 19 20  2  0  0  0  0
 19 21  1  0  0  0  0
 21 22  1  0  0  0  0
 21 23  1  0  0  0  0
 23 24  1  0  0  0  0
 23 25  1  0  0  0  0
 23 26  1  0  0  0  0
M  END
$$$$

  -OEChem-01062216093D

 26 26  0     1  0  0  0  0  0999 V2000
   -2.1494   -3.9501   -1.0262 H   0  0  0  0  0  0  0  0  0  0  0  0
   -2.3501   -2.8934   -0.8291 C   0  0  0  0  0  0  0  0  0  0  0  0
   -3.1225   -2.8175   -0.0602 H   0  0  0  0  0  0  0  0  0  0  0  0
   -2.7165   -2.4315   -1.7494 H   0  0  0  0  0  0  0  0  0  0  0  0
   -1.0769   -2.1978   -0.3664 C   0  0  0  0  0  0  0  0  0  0  0  0
   -0.2487   -2.8714    0.2281 O   0  0  0  0  0  0  0  0  0  0  0  0
   -0.8864   -0.8406   -0.6333 N   0  0  0  0  0  0  0  0  0  0  0  0
   -1.8947   -0.1548    0.2041 C   0  0  0  0  0  0  0  0  0  0  0  0
   -2.1811   -0.7331    1.0930 H   0  0  0  0  0  0  0  0  0  0  0  0
   -2.8014    0.0691   -0.3681 H   0  0  0  0  0  0  0  0  0  0  0  0
   -1.2253    1.1144    0.6636 C   0  0  0  0  0  0  0  0  0  0  0  0
   -1.6380    1.4689    1.6133 H   0  0  0  0  0  0  0  0  0  0  0  0
   -1.3705    1.8985   -0.0874 H   0  0  0  0  0  0  0  0  0  0  0  0
    0.2566    0.7869    0.7816 C   0  0  0  0  0  0  0  0  0  0  0  0
    0.4791    0.2916    1.7321 H   0  0  0  0  0  0  0  0  0  0  0  0
    0.8905    1.6746    0.6841 H   0  0  0  0  0  0  0  0  0  0  0  0
    0.4291   -0.1836   -0.3738 C   0  0  1  0  0  0  0  0  0  0  0  0
    0.3956    0.5121   -1.2203 H   0  0  0  0  0  0  0  0  0  0  0  0
    1.8436   -0.7220   -0.7193 C   0  0  0  0  0  0  0  0  0  0  0  0
    2.7428    0.0916   -0.8991 O   0  0  0  0  0  0  0  0  0  0  0  0
    2.1698   -2.0629   -0.7694 N   0  0  0  0  0  0  0  0  0  0  0  0
    1.4487   -2.7071   -0.4380 H   0  0  0  0  0  0  0  0  0  0  0  0
    3.5272   -2.5623   -0.9426 C   0  0  0  0  0  0  0  0  0  0  0  0
    4.1614   -2.2452   -0.1083 H   0  0  0  0  0  0  0  0  0  0  0  0
    3.5236   -3.6558   -0.9803 H   0  0  0  0  0  0  0  0  0  0  0  0
    3.9576   -2.1870   -1.8767 H   0  0  0  0  0  0  0  0  0  0  0  0
  1  2  1  0  0  0  0
  2  3  1  0  0  0  0
  2  4  1  0  0  0  0
  2  5  1  0  0  0  0
  5  6  2  0  0  0  0
  5  7  1  0  0  0  0
  7  8  1  0  0  0  0
  7 17  1  0  0  0  0
  8  9  1  0  0  0  0
  8 10  1  0  0  0  0
  8 11  1  0  0  0  0
 11 12  1  0  0  0  0
 11 13  1  0  0  0  0
 11 14  1  0  0  0  0
 14 15  1  0  0  0  0
 14 16  1  0  0  0  0
 14 17  1  0  0  0  0
 17 18  1  0  0  0  0
 17 19  1  0  0  0  0
 19 20  2  0  0  0  0
 19 21  1  0  0  0  0
 21 22  1  0  0  0  0
 21 23  1  0  0  0  0
 23 24  1  0  0  0  0
 23 25  1  0  0  0  0
 23 26  1  0  0  0  0
M  END
$$$$

  -OEChem-01062216093D

 26 26  0     1  0  0  0  0  0999 V2000
    0.0932   -3.6975    0.1947 H   0  0  0  0  0  0  0  0  0  0  0  0
   -0.6881   -2.9435    0.3100 C   0  0  0  0  0  0  0  0  0  0  0  0
   -0.4307   -2.2954    1.1495 H   0  0  0  0  0  0  0  0  0  0  0  0
   -1.6285   -3.4485    0.5457 H   0  0  0  0  0  0  0  0  0  0  0  0
   -0.8478   -2.1487   -0.9852 C   0  0  0  0  0  0  0  0  0  0  0  0
   -1.4474   -2.6922   -1.9007 O   0  0  0  0  0  0  0  0  0  0  0  0
   -0.6272   -0.7736   -1.0825 N   0  0  0  0  0  0  0  0  0  0  0  0
   -1.9209   -0.1527   -0.7266 C   0  0  0  0  0  0  0  0  0  0  0  0
   -2.5664   -0.8030   -0.1214 H   0  0  0  0  0  0  0  0  0  0  0  0
   -2.4774    0.1358   -1.6249 H   0  0  0  0  0  0  0  0  0  0  0  0
   -1.5469    1.0584    0.0885 C   0  0  0  0  0  0  0  0  0  0  0  0
   -2.3415    1.3347    0.7886 H   0  0  0  0  0  0  0  0  0  0  0  0
   -1.3693    1.9075   -0.5803 H   0  0  0  0  0  0  0  0  0  0  0  0
   -0.2561    0.6988    0.8147 C   0  0  0  0  0  0  0  0  0  0  0  0
   -0.4586    0.1248    1.7244 H   0  0  0  0  0  0  0  0  0  0  0  0
    0.3341    1.5832    1.0777 H   0  0  0  0  0  0  0  0  0  0  0  0
    0.4280   -0.1711   -0.2301 C   0  0  1  0  0  0  0  0  0  0  0  0
    0.7649    0.5991   -0.9329 H   0  0  0  0  0  0  0  0  0  0  0  0
    1.8518   -0.7413    0.0076 C   0  0  0  0  0  0  0  0  0  0  0  0
    2.5645   -0.1985    0.8357 O   0  0  0  0  0  0  0  0  0  0  0  0
    2.2927   -2.0128   -0.2864 N   0  0  0  0  0  0  0  0  0  0  0  0
    3.1670   -2.2141    0.1944 H   0  0  0  0  0  0  0  0  0  0  0  0
    2.1723   -2.5656   -1.6331 C   0  0  0  0  0  0  0  0  0  0  0  0
    3.1684   -2.7281   -2.0565 H   0  0  0  0  0  0  0  0  0  0  0  0
    1.6475   -3.5255   -1.6107 H   0  0  0  0  0  0  0  0  0  0  0  0
    1.6328   -1.8875   -2.3028 H   0  0  0  0  0  0  0  0  0  0  0  0
  1  2  1  0  0  0  0
  2  3  1  0  0  0  0
  2  4  1  0  0  0  0
  2  5  1  0  0  0  0
  5  6  2  0  0  0  0
  5  7  1  0  0  0  0
  7  8  1  0  0  0  0
  7 17  1  0  0  0  0
  8  9  1  0  0  0  0
  8 10  1  0  0  0  0
  8 11  1  0  0  0  0
 11 12  1  0  0  0  0
 11 13  1  0  0  0  0
 11 14  1  0  0  0  0
 14 15  1  0  0  0  0
 14 16  1  0  0  0  0
 14 17  1  0  0  0  0
 17 18  1  0  0  0  0
 17 19  1  0  0  0  0
 19 20  2  0  0  0  0
 19 21  1  0  0  0  0
 21 22  1  0  0  0  0
 21 23  1  0  0  0  0
 23 24  1  0  0  0  0
 23 25  1  0  0  0  0
 23 26  1  0  0  0  0
M  END
$$$$

  -OEChem-01062216093D

 26 26  0     1  0  0  0  0  0999 V2000
   -2.3913   -3.3235    0.2069 H   0  0  0  0  0  0  0  0  0  0  0  0
   -1.6090   -3.2997   -0.5554 C   0  0  0  0  0  0  0  0  0  0  0  0
   -2.0507   -3.0056   -1.5107 H   0  0  0  0  0  0  0  0  0  0  0  0
   -1.1853   -4.3023   -0.6594 H   0  0  0  0  0  0  0  0  0  0  0  0
   -0.5210   -2.3122   -0.1588 C   0  0  0  0  0  0  0  0  0  0  0  0
    0.4426   -2.7364    0.4615 O   0  0  0  0  0  0  0  0  0  0  0  0
   -0.6646   -0.9579   -0.4639 N   0  0  0  0  0  0  0  0  0  0  0  0
   -1.7149   -0.4741    0.4566 C   0  0  0  0  0  0  0  0  0  0  0  0
   -1.8224   -1.0952    1.3564 H   0  0  0  0  0  0  0  0  0  0  0  0
   -2.6880   -0.4225   -0.0432 H   0  0  0  0  0  0  0  0  0  0  0  0
   -1.2553    0.8964    0.8792 C   0  0  0  0  0  0  0  0  0  0  0  0
   -1.6450    1.1677    1.8653 H   0  0  0  0  0  0  0  0  0  0  0  0
   -1.6041    1.6403    0.1551 H   0  0  0  0  0  0  0  0  0  0  0  0
    0.2664    0.8471    0.8707 C   0  0  0  0  0  0  0  0  0  0  0  0
    0.6529    0.3994    1.7923 H   0  0  0  0  0  0  0  0  0  0  0  0
    0.7162    1.8370    0.7402 H   0  0  0  0  0  0  0  0  0  0  0  0
    0.5262   -0.0758   -0.3106 C   0  0  1  0  0  0  0  0  0  0  0  0
    0.3137    0.6018   -1.1441 H   0  0  0  0  0  0  0  0  0  0  0  0
    1.9863   -0.3604   -0.7659 C   0  0  0  0  0  0  0  0  0  0  0  0
    2.8692    0.4115   -0.4218 O   0  0  0  0  0  0  0  0  0  0  0  0
    2.4943   -1.4709   -1.4071 N   0  0  0  0  0  0  0  0  0  0  0  0
    3.5074   -1.4511   -1.4849 H   0  0  0  0  0  0  0  0  0  0  0  0
    1.7621   -2.3023   -2.3520 C   0  0  0  0  0  0  0  0  0  0  0  0
    1.5453   -3.2809   -1.9125 H   0  0  0  0  0  0  0  0  0  0  0  0
    0.8227   -1.8294   -2.6544 H   0  0  0  0  0  0  0  0  0  0  0  0
    2.3645   -2.4559   -3.2525 H   0  0  0  0  0  0  0  0  0  0  0  0
  1  2  1  0  0  0  0
  2  3  1  0  0  0  0
  2  4  1  0  0  0  0
  2  5  1  0  0  0  0
  5  6  2  0  0  0  0
  5  7  1  0  0  0  0
  7  8  1  0  0  0  0
  7 17  1  0  0  0  0
  8  9  1  0  0  0  0
  8 10  1  0  0  0  0
  8 11  1  0  0  0  0
 11 12  1  0  0  0  0
 11 13  1  0  0  0  0
 11 14  1  0  0  0  0
 14 15  1  0  0  0  0
 14 16  1  0  0  0  0
 14 17  1  0  0  0  0
 17 18  1  0  0  0  0
 17 19  1  0  0  0  0
 19 20  2  0  0  0  0
 19 21  1  0  0  0  0
 21 22  1  0  0  0  0
 21 23  1  0  0  0  0
 23 24  1  0  0  0  0
 23 25  1  0  0  0  0
 23 26  1  0  0  0  0
M  END
$$$$

  -OEChem-01062216093D

 26 26  0     1  0  0  0  0  0999 V2000
   -2.4115   -3.7965   -1.1243 H   0  0  0  0  0  0  0  0  0  0  0  0
   -2.4947   -2.7638   -0.7738 C   0  0  0  0  0  0  0  0  0  0  0  0
   -3.0709   -2.7567    0.1543 H   0  0  0  0  0  0  0  0  0  0  0  0
   -3.0274   -2.1843   -1.5319 H   0  0  0  0  0  0  0  0  0  0  0  0
   -1.1052   -2.1760   -0.5399 C   0  0  0  0  0  0  0  0  0  0  0  0
   -0.1940   -2.9757   -0.3982 O   0  0  0  0  0  0  0  0  0  0  0  0
   -0.8586   -0.8061   -0.6919 N   0  0  0  0  0  0  0  0  0  0  0  0
   -1.8663   -0.1084    0.1356 C   0  0  0  0  0  0  0  0  0  0  0  0
   -2.2222   -0.7158    0.9773 H   0  0  0  0  0  0  0  0  0  0  0  0
   -2.7307    0.2002   -0.4622 H   0  0  0  0  0  0  0  0  0  0  0  0
   -1.1475    1.0896    0.6982 C   0  0  0  0  0  0  0  0  0  0  0  0
   -1.5842    1.4149    1.6476 H   0  0  0  0  0  0  0  0  0  0  0  0
   -1.2114    1.9216   -0.0112 H   0  0  0  0  0  0  0  0  0  0  0  0
    0.3069    0.6686    0.8640 C   0  0  0  0  0  0  0  0  0  0  0  0
    0.4566    0.1086    1.7929 H   0  0  0  0  0  0  0  0  0  0  0  0
    0.9935    1.5218    0.8479 H   0  0  0  0  0  0  0  0  0  0  0  0
    0.4791   -0.2455   -0.3385 C   0  0  1  0  0  0  0  0  0  0  0  0
    0.5277    0.5036   -1.1365 H   0  0  0  0  0  0  0  0  0  0  0  0
    1.8658   -0.8394   -0.6910 C   0  0  0  0  0  0  0  0  0  0  0  0
    2.8674   -0.3335   -0.1981 O   0  0  0  0  0  0  0  0  0  0  0  0
    2.0174   -1.8250   -1.6480 N   0  0  0  0  0  0  0  0  0  0  0  0
    1.1850   -2.4014   -1.7741 H   0  0  0  0  0  0  0  0  0  0  0  0
    3.3077   -2.4334   -1.9455 C   0  0  0  0  0  0  0  0  0  0  0  0
    3.7118   -2.9286   -1.0564 H   0  0  0  0  0  0  0  0  0  0  0  0
    3.1978   -3.1784   -2.7391 H   0  0  0  0  0  0  0  0  0  0  0  0
    4.0217   -1.6749   -2.2828 H   0  0  0  0  0  0  0  0  0  0  0  0
  1  2  1  0  0  0  0
  2  3  1  0  0  0  0
  2  4  1  0  0  0  0
  2  5  1  0  0  0  0
  5  6  2  0  0  0  0
  5  7  1  0  0  0  0
  7  8  1  0  0  0  0
  7 17  1  0  0  0  0
  8  9  1  0  0  0  0
  8 10  1  0  0  0  0
  8 11  1  0  0  0  0
 11 12  1  0  0  0  0
 11 13  1  0  0  0  0
 11 14  1  0  0  0  0
 14 15  1  0  0  0  0
 14 16  1  0  0  0  0
 14 17  1  0  0  0  0
 17 18  1  0  0  0  0
 17 19  1  0  0  0  0
 19 20  2  0  0  0  0
 19 21  1  0  0  0  0
 21 22  1  0  0  0  0
 21 23  1  0  0  0  0
 23 24  1  0  0  0  0
 23 25  1  0  0  0  0
 23 26  1  0  0  0  0
M  END
$$$$

  -OEChem-01062216093D

 26 26  0     1  0  0  0  0  0999 V2000
   -2.3624   -3.8294   -1.0866 H   0  0  0  0  0  0  0  0  0  0  0  0
   -2.4532   -2.7984   -0.7330 C   0  0  0  0  0  0  0  0  0  0  0  0
   -2.9936   -2.8038    0.2166 H   0  0  0  0  0  0  0  0  0  0  0  0
   -3.0274   -2.2310   -1.4699 H   0  0  0  0  0  0  0  0  0  0  0  0
   -1.0672   -2.1814   -0.5541 C   0  0  0  0  0  0  0  0  0  0  0  0
   -0.1314   -2.9626   -0.4909 O   0  0  0  0  0  0  0  0  0  0  0  0
   -0.8502   -0.8063   -0.7114 N   0  0  0  0  0  0  0  0  0  0  0  0
   -1.8583   -0.1239    0.1295 C   0  0  0  0  0  0  0  0  0  0  0  0
   -2.2032   -0.7400    0.9696 H   0  0  0  0  0  0  0  0  0  0  0  0
   -2.7296    0.1825   -0.4592 H   0  0  0  0  0  0  0  0  0  0  0  0
   -1.1454    1.0751    0.6990 C   0  0  0  0  0  0  0  0  0  0  0  0
   -1.5798    1.3886    1.6534 H   0  0  0  0  0  0  0  0  0  0  0  0
   -1.2192    1.9131   -0.0024 H   0  0  0  0  0  0  0  0  0  0  0  0
    0.3131    0.6638    0.8539 C   0  0  0  0  0  0  0  0  0  0  0  0
    0.4718    0.0960    1.7766 H   0  0  0  0  0  0  0  0  0  0  0  0
    0.9948    1.5208    0.8413 H   0  0  0  0  0  0  0  0  0  0  0  0
    0.4823   -0.2375   -0.3576 C   0  0  1  0  0  0  0  0  0  0  0  0
    0.5298    0.5221   -1.1455 H   0  0  0  0  0  0  0  0  0  0  0  0
    1.8568   -0.8451   -0.7232 C   0  0  0  0  0  0  0  0  0  0  0  0
    2.8477   -0.5105   -0.0847 O   0  0  0  0  0  0  0  0  0  0  0  0
    2.0162   -1.5937   -1.8748 N   0  0  0  0  0  0  0  0  0  0  0  0
    1.1651   -2.0572   -2.1860 H   0  0  0  0  0  0  0  0  0  0  0  0
    3.2882   -2.2091   -2.2307 C   0  0  0  0  0  0  0  0  0  0  0  0
    3.6009   -2.9167   -1.4559 H   0  0  0  0  0  0  0  0  0  0  0  0
    3.1930   -2.7492   -3.1774 H   0  0  0  0  0  0  0  0  0  0  0  0
    4.0655   -1.4464   -2.3467 H   0  0  0  0  0  0  0  0  0  0  0  0
  1  2  1  0  0  0  0
  2  3  1  0  0  0  0
  2  4  1  0  0  0  0
  2  5  1  0  0  0  0
  5  6  2  0  0  0  0
  5  7  1  0  0  0  0
  7  8  1  0  0  0  0
  7 17  1  0  0  0  0
  8  9  1  0  0  0  0
  8 10  1  0  0  0  0
  8 11  1  0  0  0  0
 11 12  1  0  0  0  0
 11 13  1  0  0  0  0
 11 14  1  0  0  0  0
 14 15  1  0  0  0  0
 14 16  1  0  0  0  0
 14 17  1  0  0  0  0
 17 18  1  0  0  0  0
 17 19  1  0  0  0  0
 19 20  2  0  0  0  0
 19 21  1  0  0  0  0
 21 22  1  0  0  0  0
 21 23  1  0  0  0  0
 23 24  1  0  0  0  0
 23 25  1  0  0  0  0
 23 26  1  0  0  0  0
M  END
$$$$

  -OEChem-01062216093D

 26 26  0     1  0  0  0  0  0999 V2000
   -2.2903   -3.8490   -1.1026 H   0  0  0  0  0  0  0  0  0  0  0  0
   -2.4014   -2.8290   -0.7238 C   0  0  0  0  0  0  0  0  0  0  0  0
   -2.9256   -2.8685    0.2339 H   0  0  0  0  0  0  0  0  0  0  0  0
   -3.0009   -2.2598   -1.4387 H   0  0  0  0  0  0  0  0  0  0  0  0
   -1.0286   -2.1824   -0.5510 C   0  0  0  0  0  0  0  0  0  0  0  0
   -0.0778   -2.9444   -0.4798 O   0  0  0  0  0  0  0  0  0  0  0  0
   -0.8417   -0.8047   -0.7284 N   0  0  0  0  0  0  0  0  0  0  0  0
   -1.8497   -0.1423    0.1295 C   0  0  0  0  0  0  0  0  0  0  0  0
   -2.1803   -0.7675    0.9687 H   0  0  0  0  0  0  0  0  0  0  0  0
   -2.7305    0.1586   -0.4478 H   0  0  0  0  0  0  0  0  0  0  0  0
   -1.1451    1.0602    0.7006 C   0  0  0  0  0  0  0  0  0  0  0  0
   -1.5717    1.3588    1.6634 H   0  0  0  0  0  0  0  0  0  0  0  0
   -1.2394    1.9034    0.0081 H   0  0  0  0  0  0  0  0  0  0  0  0
    0.3212    0.6690    0.8343 C   0  0  0  0  0  0  0  0  0  0  0  0
    0.4999    0.0953    1.7498 H   0  0  0  0  0  0  0  0  0  0  0  0
    0.9913    1.5349    0.8206 H   0  0  0  0  0  0  0  0  0  0  0  0
    0.4854   -0.2191   -0.3867 C   0  0  1  0  0  0  0  0  0  0  0  0
    0.5231    0.5504   -1.1654 H   0  0  0  0  0  0  0  0  0  0  0  0
    1.8478   -0.8413   -0.7661 C   0  0  0  0  0  0  0  0  0  0  0  0
    2.8046   -0.7040   -0.0132 O   0  0  0  0  0  0  0  0  0  0  0  0
    2.0547   -1.3317   -2.0431 N   0  0  0  0  0  0  0  0  0  0  0  0
    1.2108   -1.5956   -2.5438 H   0  0  0  0  0  0  0  0  0  0  0  0
    3.3097   -1.9559   -2.4414 C   0  0  0  0  0  0  0  0  0  0  0  0
    3.5144   -2.8336   -1.8193 H   0  0  0  0  0  0  0  0  0  0  0  0
    3.2572   -2.2747   -3.4866 H   0  0  0  0  0  0  0  0  0  0  0  0
    4.1398   -1.2492   -2.3392 H   0  0  0  0  0  0  0  0  0  0  0  0
  1  2  1  0  0  0  0
  2  3  1  0  0  0  0
  2  4  1  0  0  0  0
  2  5  1  0  0  0  0
  5  6  2  0  0  0  0
  5  7  1  0  0  0  0
  7  8  1  0  0  0  0
  7 17  1  0  0  0  0
  8  9  1  0  0  0  0
  8 10  1  0  0  0  0
  8 11  1  0  0  0  0
 11 12  1  0  0  0  0
 11 13  1  0  0  0  0
 11 14  1  0  0  0  0
 14 15  1  0  0  0  0
 14 16  1  0  0  0  0
 14 17  1  0  0  0  0
 17 18  1  0  0  0  0
 17 19  1  0  0  0  0
 19 20  2  0  0  0  0
 19 21  1  0  0  0  0
 21 22  1  0  0  0  0
 21 23  1  0  0  0  0
 23 24  1  0  0  0  0
 23 25  1  0  0  0  0
 23 26  1  0  0  0  0
M  END
$$$$

  -OEChem-01062216093D

 26 26  0     1  0  0  0  0  0999 V2000
   -2.2850   -3.8614   -1.1007 H   0  0  0  0  0  0  0  0  0  0  0  0
   -2.3929   -2.8463   -0.7078 C   0  0  0  0  0  0  0  0  0  0  0  0
   -2.8884   -2.9005    0.2644 H   0  0  0  0  0  0  0  0  0  0  0  0
   -3.0170   -2.2744   -1.3990 H   0  0  0  0  0  0  0  0  0  0  0  0
   -1.0200   -2.1918   -0.5674 C   0  0  0  0  0  0  0  0  0  0  0  0
   -0.0653   -2.9509   -0.5268 O   0  0  0  0  0  0  0  0  0  0  0  0
   -0.8426   -0.8123   -0.7468 N   0  0  0  0  0  0  0  0  0  0  0  0
   -1.8431   -0.1572    0.1264 C   0  0  0  0  0  0  0  0  0  0  0  0
   -2.1637   -0.7874    0.9656 H   0  0  0  0  0  0  0  0  0  0  0  0
   -2.7304    0.1454   -0.4401 H   0  0  0  0  0  0  0  0  0  0  0  0
   -1.1349    1.0427    0.6982 C   0  0  0  0  0  0  0  0  0  0  0  0
   -1.5518    1.3337    1.6675 H   0  0  0  0  0  0  0  0  0  0  0  0
   -1.2390    1.8906    0.0128 H   0  0  0  0  0  0  0  0  0  0  0  0
    0.3339    0.6544    0.8136 C   0  0  0  0  0  0  0  0  0  0  0  0
    0.5221    0.0735    1.7226 H   0  0  0  0  0  0  0  0  0  0  0  0
    1.0028    1.5212    0.7998 H   0  0  0  0  0  0  0  0  0  0  0  0
    0.4858   -0.2248   -0.4151 C   0  0  1  0  0  0  0  0  0  0  0  0
    0.5135    0.5538   -1.1851 H   0  0  0  0  0  0  0  0  0  0  0  0
    1.8416   -0.8529   -0.8098 C   0  0  0  0  0  0  0  0  0  0  0  0
    2.7401   -0.9187    0.0204 O   0  0  0  0  0  0  0  0  0  0  0  0
    2.1452   -1.0587   -2.1446 N   0  0  0  0  0  0  0  0  0  0  0  0
    1.3490   -1.1213   -2.7719 H   0  0  0  0  0  0  0  0  0  0  0  0
    3.4118   -1.6348   -2.5780 C   0  0  0  0  0  0  0  0  0  0  0  0
    3.5373   -2.6394   -2.1605 H   0  0  0  0  0  0  0  0  0  0  0  0
    3.4406   -1.7053   -3.6694 H   0  0  0  0  0  0  0  0  0  0  0  0
    4.2499   -1.0101   -2.2518 H   0  0  0  0  0  0  0  0  0  0  0  0
  1  2  1  0  0  0  0
  2  3  1  0  0  0  0
  2  4  1  0  0  0  0
  2  5  1  0  0  0  0
  5  6  2  0  0  0  0
  5  7  1  0  0  0  0
  7  8  1  0  0  0  0
  7 17  1  0  0  0  0
  8  9  1  0  0  0  0
  8 10  1  0  0  0  0
  8 11  1  0  0  0  0
 11 12  1  0  0  0  0
 11 13  1  0  0  0  0
 11 14  1  0  0  0  0
 14 15  1  0  0  0  0
 14 16  1  0  0  0  0
 14 17  1  0  0  0  0
 17 18  1  0  0  0  0
 17 19  1  0  0  0  0
 19 20  2  0  0  0  0
 19 21  1  0  0  0  0
 21 22  1  0  0  0  0
 21 23  1  0  0  0  0
 23 24  1  0  0  0  0
 23 25  1  0  0  0  0
 23 26  1  0  0  0  0
M  END
$$$$

  -OEChem-01062216093D

 26 26  0     1  0  0  0  0  0999 V2000
   -2.3041   -3.8699   -1.0967 H   0  0  0  0  0  0  0  0  0  0  0  0
   -2.3996   -2.8571   -0.6946 C   0  0  0  0  0  0  0  0  0  0  0  0
   -2.8648   -2.9177    0.2921 H   0  0  0  0  0  0  0  0  0  0  0  0
   -3.0452   -2.2817   -1.3626 H   0  0  0  0  0  0  0  0  0  0  0  0
   -1.0225   -2.2026   -0.5933 C   0  0  0  0  0  0  0  0  0  0  0  0
   -0.0690   -2.9637   -0.6028 O   0  0  0  0  0  0  0  0  0  0  0  0
   -0.8477   -0.8217   -0.7680 N   0  0  0  0  0  0  0  0  0  0  0  0
   -1.8343   -0.1725    0.1254 C   0  0  0  0  0  0  0  0  0  0  0  0
   -2.1397   -0.8071    0.9669 H   0  0  0  0  0  0  0  0  0  0  0  0
   -2.7312    0.1314   -0.4248 H   0  0  0  0  0  0  0  0  0  0  0  0
   -1.1198    1.0252    0.6938 C   0  0  0  0  0  0  0  0  0  0  0  0
   -1.5231    1.3103    1.6706 H   0  0  0  0  0  0  0  0  0  0  0  0
   -1.2345    1.8766    0.0144 H   0  0  0  0  0  0  0  0  0  0  0  0
    0.3505    0.6374    0.7857 C   0  0  0  0  0  0  0  0  0  0  0  0
    0.5523    0.0513    1.6886 H   0  0  0  0  0  0  0  0  0  0  0  0
    1.0181    1.5049    0.7669 H   0  0  0  0  0  0  0  0  0  0  0  0
    0.4840   -0.2341   -0.4502 C   0  0  1  0  0  0  0  0  0  0  0  0
    0.4948    0.5525   -1.2119 H   0  0  0  0  0  0  0  0  0  0  0  0
    1.8370   -0.8587   -0.8639 C   0  0  0  0  0  0  0  0  0  0  0  0
    2.6586   -1.1320    0.0027 O   0  0  0  0  0  0  0  0  0  0  0  0
    2.2665   -0.7813   -2.1786 N   0  0  0  0  0  0  0  0  0  0  0  0
    1.5446   -0.6356   -2.8776 H   0  0  0  0  0  0  0  0  0  0  0  0
    3.5594   -1.2940   -2.6149 C   0  0  0  0  0  0  0  0  0  0  0  0
    3.6311   -2.3687   -2.4170 H   0  0  0  0  0  0  0  0  0  0  0  0
    3.6880   -1.1284   -3.6887 H   0  0  0  0  0  0  0  0  0  0  0  0
    4.3729   -0.7836   -2.0886 H   0  0  0  0  0  0  0  0  0  0  0  0
  1  2  1  0  0  0  0
  2  3  1  0  0  0  0
  2  4  1  0  0  0  0
  2  5  1  0  0  0  0
  5  6  2  0  0  0  0
  5  7  1  0  0  0  0
  7  8  1  0  0  0  0
  7 17  1  0  0  0  0
  8  9  1  0  0  0  0
  8 10  1  0  0  0  0
  8 11  1  0  0  0  0
 11 12  1  0  0  0  0
 11 13  1  0  0  0  0
 11 14  1  0  0  0  0
 14 15  1  0  0  0  0
 14 16  1  0  0  0  0
 14 17  1  0  0  0  0
 17 18  1  0  0  0  0
 17 19  1  0  0  0  0
 19 20  2  0  0  0  0
 19 21  1  0  0  0  0
 21 22  1  0  0  0  0
 21 23  1  0  0  0  0
 23 24  1  0  0  0  0
 23 25  1  0  0  0  0
 23 26  1  0  0  0  0
M  END
$$$$

  -OEChem-01062216093D

 26 26  0     1  0  0  0  0  0999 V2000
   -2.3412   -3.8700   -1.1005 H   0  0  0  0  0  0  0  0  0  0  0  0
   -2.4172   -2.8598   -0.6878 C   0  0  0  0  0  0  0  0  0  0  0  0
   -2.8479   -2.9264    0.3139 H   0  0  0  0  0  0  0  0  0  0  0  0
   -3.0829   -2.2770   -1.3291 H   0  0  0  0  0  0  0  0  0  0  0  0
   -1.0336   -2.2125   -0.6292 C   0  0  0  0  0  0  0  0  0  0  0  0
   -0.0873   -2.9784   -0.7002 O   0  0  0  0  0  0  0  0  0  0  0  0
   -0.8559   -0.8304   -0.7912 N   0  0  0  0  0  0  0  0  0  0  0  0
   -1.8242   -0.1859    0.1262 C   0  0  0  0  0  0  0  0  0  0  0  0
   -2.1154   -0.8264    0.9682 H   0  0  0  0  0  0  0  0  0  0  0  0
   -2.7306    0.1249   -0.4045 H   0  0  0  0  0  0  0  0  0  0  0  0
   -1.0973    1.0052    0.6925 C   0  0  0  0  0  0  0  0  0  0  0  0
   -1.4831    1.2825    1.6787 H   0  0  0  0  0  0  0  0  0  0  0  0
   -1.2219    1.8627    0.0229 H   0  0  0  0  0  0  0  0  0  0  0  0
    0.3729    0.6126    0.7552 C   0  0  0  0  0  0  0  0  0  0  0  0
    0.5881    0.0172    1.6488 H   0  0  0  0  0  0  0  0  0  0  0  0
    1.0430    1.4782    0.7332 H   0  0  0  0  0  0  0  0  0  0  0  0
    0.4824   -0.2484   -0.4902 C   0  0  1  0  0  0  0  0  0  0  0  0
    0.4713    0.5438   -1.2455 H   0  0  0  0  0  0  0  0  0  0  0  0
    1.8356   -0.8611   -0.9272 C   0  0  0  0  0  0  0  0  0  0  0  0
    2.5713   -1.3402   -0.0730 O   0  0  0  0  0  0  0  0  0  0  0  0
    2.4027   -0.5156   -2.1445 N   0  0  0  0  0  0  0  0  0  0  0  0
    1.7720   -0.1605   -2.8565 H   0  0  0  0  0  0  0  0  0  0  0  0
    3.7343   -0.9503   -2.5495 C   0  0  0  0  0  0  0  0  0  0  0  0
    3.7858   -2.0437   -2.5838 H   0  0  0  0  0  0  0  0  0  0  0  0
    3.9736   -0.5597   -3.5431 H   0  0  0  0  0  0  0  0  0  0  0  0
    4.4886   -0.5833   -1.8454 H   0  0  0  0  0  0  0  0  0  0  0  0
  1  2  1  0  0  0  0
  2  3  1  0  0  0  0
  2  4  1  0  0  0  0
  2  5  1  0  0  0  0
  5  6  2  0  0  0  0
  5  7  1  0  0  0  0
  7  8  1  0  0  0  0
  7 17  1  0  0  0  0
  8  9  1  0  0  0  0
  8 10  1  0  0  0  0
  8 11  1  0  0  0  0
 11 12  1  0  0  0  0
 11 13  1  0  0  0  0
 11 14  1  0  0  0  0
 14 15  1  0  0  0  0
 14 16  1  0  0  0  0
 14 17  1  0  0  0  0
 17 18  1  0  0  0  0
 17 19  1  0  0  0  0
 19 20  2  0  0  0  0
 19 21  1  0  0  0  0
 21 22  1  0  0  0  0
 21 23  1  0  0  0  0
 23 24  1  0  0  0  0
 23 25  1  0  0  0  0
 23 26  1  0  0  0  0
M  END
$$$$

  -OEChem-01062216093D

 26 26  0     1  0  0  0  0  0999 V2000
   -2.3745   -3.8703   -1.0963 H   0  0  0  0  0  0  0  0  0  0  0  0
   -2.4294   -2.8593   -0.6823 C   0  0  0  0  0  0  0  0  0  0  0  0
   -2.8249   -2.9238    0.3339 H   0  0  0  0  0  0  0  0  0  0  0  0
   -3.1136   -2.2728   -1.3002 H   0  0  0  0  0  0  0  0  0  0  0  0
   -1.0402   -2.2201   -0.6738 C   0  0  0  0  0  0  0  0  0  0  0  0
   -0.1079   -2.9906   -0.8230 O   0  0  0  0  0  0  0  0  0  0  0  0
   -0.8567   -0.8364   -0.8167 N   0  0  0  0  0  0  0  0  0  0  0  0
   -1.8099   -0.1959    0.1193 C   0  0  0  0  0  0  0  0  0  0  0  0
   -2.0862   -0.8411    0.9624 H   0  0  0  0  0  0  0  0  0  0  0  0
   -2.7249    0.1171   -0.3946 H   0  0  0  0  0  0  0  0  0  0  0  0
   -1.0759    0.9921    0.6829 C   0  0  0  0  0  0  0  0  0  0  0  0
   -1.4484    1.2635    1.6758 H   0  0  0  0  0  0  0  0  0  0  0  0
   -1.2081    1.8538    0.0201 H   0  0  0  0  0  0  0  0  0  0  0  0
    0.3939    0.5957    0.7240 C   0  0  0  0  0  0  0  0  0  0  0  0
    0.6191   -0.0058    1.6112 H   0  0  0  0  0  0  0  0  0  0  0  0
    1.0651    1.4602    0.6988 H   0  0  0  0  0  0  0  0  0  0  0  0
    0.4862   -0.2580   -0.5272 C   0  0  1  0  0  0  0  0  0  0  0  0
    0.4533    0.5351   -1.2808 H   0  0  0  0  0  0  0  0  0  0  0  0
    1.8445   -0.8492   -0.9829 C   0  0  0  0  0  0  0  0  0  0  0  0
    2.4882   -1.5315   -0.1959 O   0  0  0  0  0  0  0  0  0  0  0  0
    2.5470   -0.2656   -2.0275 N   0  0  0  0  0  0  0  0  0  0  0  0
    2.0149    0.3002   -2.6808 H   0  0  0  0  0  0  0  0  0  0  0  0
    3.9075   -0.6494   -2.3863 C   0  0  0  0  0  0  0  0  0  0  0  0
    3.9509   -1.7143   -2.6379 H   0  0  0  0  0  0  0  0  0  0  0  0
    4.2465   -0.0737   -3.2528 H   0  0  0  0  0  0  0  0  0  0  0  0
    4.5929   -0.4550   -1.5545 H   0  0  0  0  0  0  0  0  0  0  0  0
  1  2  1  0  0  0  0
  2  3  1  0  0  0  0
  2  4  1  0  0  0  0
  2  5  1  0  0  0  0
  5  6  2  0  0  0  0
  5  7  1  0  0  0  0
  7  8  1  0  0  0  0
  7 17  1  0  0  0  0
  8  9  1  0  0  0  0
  8 10  1  0  0  0  0
  8 11  1  0  0  0  0
 11 12  1  0  0  0  0
 11 13  1  0  0  0  0
 11 14  1  0  0  0  0
 14 15  1  0  0  0  0
 14 16  1  0  0  0  0
 14 17  1  0  0  0  0
 17 18  1  0  0  0  0
 17 19  1  0  0  0  0
 19 20  2  0  0  0  0
 19 21  1  0  0  0  0
 21 22  1  0  0  0  0
 21 23  1  0  0  0  0
 23 24  1  0  0  0  0
 23 25  1  0  0  0  0
 23 26  1  0  0  0  0
M  END
$$$$

  -OEChem-01062216093D

 26 26  0     1  0  0  0  0  0999 V2000
   -2.4238   -3.8548   -1.1161 H   0  0  0  0  0  0  0  0  0  0  0  0
   -2.4445   -2.8548   -0.6730 C   0  0  0  0  0  0  0  0  0  0  0  0
   -2.7806   -2.9437    0.3626 H   0  0  0  0  0  0  0  0  0  0  0  0
   -3.1579   -2.2471   -1.2349 H   0  0  0  0  0  0  0  0  0  0  0  0
   -1.0499   -2.2276   -0.7279 C   0  0  0  0  0  0  0  0  0  0  0  0
   -0.1426   -3.0033   -0.9694 O   0  0  0  0  0  0  0  0  0  0  0  0
   -0.8529   -0.8430   -0.8445 N   0  0  0  0  0  0  0  0  0  0  0  0
   -1.7925   -0.2019    0.1046 C   0  0  0  0  0  0  0  0  0  0  0  0
   -2.0592   -0.8495    0.9487 H   0  0  0  0  0  0  0  0  0  0  0  0
   -2.7129    0.1151   -0.3974 H   0  0  0  0  0  0  0  0  0  0  0  0
   -1.0506    0.9827    0.6647 C   0  0  0  0  0  0  0  0  0  0  0  0
   -1.4135    1.2528    1.6614 H   0  0  0  0  0  0  0  0  0  0  0  0
   -1.1860    1.8460    0.0047 H   0  0  0  0  0  0  0  0  0  0  0  0
    0.4171    0.5798    0.6916 C   0  0  0  0  0  0  0  0  0  0  0  0
    0.6489   -0.0243    1.5752 H   0  0  0  0  0  0  0  0  0  0  0  0
    1.0902    1.4427    0.6623 H   0  0  0  0  0  0  0  0  0  0  0  0
    0.4953   -0.2708   -0.5626 C   0  0  1  0  0  0  0  0  0  0  0  0
    0.4460    0.5187   -1.3190 H   0  0  0  0  0  0  0  0  0  0  0  0
    1.8624   -0.8318   -1.0326 C   0  0  0  0  0  0  0  0  0  0  0  0
    2.4170   -1.7016   -0.3743 O   0  0  0  0  0  0  0  0  0  0  0  0
    2.6856   -0.0539   -1.8350 N   0  0  0  0  0  0  0  0  0  0  0  0
    2.2505    0.7037   -2.3512 H   0  0  0  0  0  0  0  0  0  0  0  0
    4.0724   -0.3953   -2.1325 C   0  0  0  0  0  0  0  0  0  0  0  0
    4.1302   -1.3775   -2.6135 H   0  0  0  0  0  0  0  0  0  0  0  0
    4.5077    0.3476   -2.8076 H   0  0  0  0  0  0  0  0  0  0  0  0
    4.6679   -0.4168   -1.2137 H   0  0  0  0  0  0  0  0  0  0  0  0
  1  2  1  0  0  0  0
  2  3  1  0  0  0  0
  2  4  1  0  0  0  0
  2  5  1  0  0  0  0
  5  6  2  0  0  0  0
  5  7  1  0  0  0  0
  7  8  1  0  0  0  0
  7 17  1  0  0  0  0
  8  9  1  0  0  0  0
  8 10  1  0  0  0  0
  8 11  1  0  0  0  0
 11 12  1  0  0  0  0
 11 13  1  0  0  0  0
 11 14  1  0  0  0  0
 14 15  1  0  0  0  0
 14 16  1  0  0  0  0
 14 17  1  0  0  0  0
 17 18  1  0  0  0  0
 17 19  1  0  0  0  0
 19 20  2  0  0  0  0
 19 21  1  0  0  0  0
 21 22  1  0  0  0  0
 21 23  1  0  0  0  0
 23 24  1  0  0  0  0
 23 25  1  0  0  0  0
 23 26  1  0  0  0  0
M  END
$$$$

  -OEChem-01062216093D

 26 26  0     1  0  0  0  0  0999 V2000
   -2.4529   -3.8372   -1.1744 H   0  0  0  0  0  0  0  0  0  0  0  0
   -2.4697   -2.8355   -0.7351 C   0  0  0  0  0  0  0  0  0  0  0  0
   -2.8607   -2.9107    0.2821 H   0  0  0  0  0  0  0  0  0  0  0  0
   -3.1365   -2.2106   -1.3339 H   0  0  0  0  0  0  0  0  0  0  0  0
   -1.0585   -2.2460   -0.7213 C   0  0  0  0  0  0  0  0  0  0  0  0
   -0.1616   -3.0518   -0.8766 O   0  0  0  0  0  0  0  0  0  0  0  0
   -0.8352   -0.8652   -0.8288 N   0  0  0  0  0  0  0  0  0  0  0  0
   -1.7645   -0.2211    0.1274 C   0  0  0  0  0  0  0  0  0  0  0  0
   -2.0161   -0.8667    0.9782 H   0  0  0  0  0  0  0  0  0  0  0  0
   -2.6936    0.0886   -0.3633 H   0  0  0  0  0  0  0  0  0  0  0  0
   -1.0211    0.9719    0.6662 C   0  0  0  0  0  0  0  0  0  0  0  0
   -1.3701    1.2480    1.6661 H   0  0  0  0  0  0  0  0  0  0  0  0
   -1.1719    1.8292    0.0017 H   0  0  0  0  0  0  0  0  0  0  0  0
    0.4485    0.5769    0.6728 C   0  0  0  0  0  0  0  0  0  0  0  0
    0.6955   -0.0190    1.5580 H   0  0  0  0  0  0  0  0  0  0  0  0
    1.1147    1.4445    0.6289 H   0  0  0  0  0  0  0  0  0  0  0  0
    0.5177   -0.2846   -0.5758 C   0  0  1  0  0  0  0  0  0  0  0  0
    0.4436    0.4901   -1.3458 H   0  0  0  0  0  0  0  0  0  0  0  0
    1.9000   -0.8009   -1.0602 C   0  0  0  0  0  0  0  0  0  0  0  0
    2.3846   -1.8405   -0.6394 O   0  0  0  0  0  0  0  0  0  0  0  0
    2.8035    0.1134   -1.5848 N   0  0  0  0  0  0  0  0  0  0  0  0
    2.4428    1.0182   -1.8688 H   0  0  0  0  0  0  0  0  0  0  0  0
    4.2035   -0.1975   -1.8547 C   0  0  0  0  0  0  0  0  0  0  0  0
    4.2825   -1.0623   -2.5220 H   0  0  0  0  0  0  0  0  0  0  0  0
    4.6947    0.6542   -2.3346 H   0  0  0  0  0  0  0  0  0  0  0  0
    4.7327   -0.4220   -0.9226 H   0  0  0  0  0  0  0  0  0  0  0  0
  1  2  1  0  0  0  0
  2  3  1  0  0  0  0
  2  4  1  0  0  0  0
  2  5  1  0  0  0  0
  5  6  2  0  0  0  0
  5  7  1  0  0  0  0
  7  8  1  0  0  0  0
  7 17  1  0  0  0  0
  8  9  1  0  0  0  0
  8 10  1  0  0  0  0
  8 11  1  0  0  0  0
 11 12  1  0  0  0  0
 11 13  1  0  0  0  0
 11 14  1  0  0  0  0
 14 15  1  0  0  0  0
 14 16  1  0  0  0  0
 14 17  1  0  0  0  0
 17 18  1  0  0  0  0
 17 19  1  0  0  0  0
 19 20  2  0  0  0  0
 19 21  1  0  0  0  0
 21 22  1  0  0  0  0
 21 23  1  0  0  0  0
 23 24  1  0  0  0  0
 23 25  1  0  0  0  0
 23 26  1  0  0  0  0
M  END
$$$$

  -OEChem-01062216093D

 26 26  0     1  0  0  0  0  0999 V2000
   -1.5934   -4.0207   -0.9488 H   0  0  0  0  0  0  0  0  0  0  0  0
   -1.5008   -3.0098   -1.3544 C   0  0  0  0  0  0  0  0  0  0  0  0
   -2.4701   -2.6940   -1.7463 H   0  0  0  0  0  0  0  0  0  0  0  0
   -0.7729   -3.0223   -2.1693 H   0  0  0  0  0  0  0  0  0  0  0  0
   -1.0396   -2.0488   -0.2732 C   0  0  0  0  0  0  0  0  0  0  0  0
   -0.6984   -2.4953    0.8188 O   0  0  0  0  0  0  0  0  0  0  0  0
   -1.0057   -0.6798   -0.5528 N   0  0  0  0  0  0  0  0  0  0  0  0
   -1.8755   -0.0192    0.4518 C   0  0  0  0  0  0  0  0  0  0  0  0
   -2.1330   -0.6416    1.3176 H   0  0  0  0  0  0  0  0  0  0  0  0
   -2.8152    0.3026   -0.0086 H   0  0  0  0  0  0  0  0  0  0  0  0
   -1.0849    1.1713    0.9257 C   0  0  0  0  0  0  0  0  0  0  0  0
   -1.3639    1.4581    1.9445 H   0  0  0  0  0  0  0  0  0  0  0  0
   -1.2755    2.0231    0.2645 H   0  0  0  0  0  0  0  0  0  0  0  0
    0.3809    0.7702    0.8377 C   0  0  0  0  0  0  0  0  0  0  0  0
    0.6790    0.1804    1.7114 H   0  0  0  0  0  0  0  0  0  0  0  0
    1.0468    1.6333    0.7417 H   0  0  0  0  0  0  0  0  0  0  0  0
    0.3571   -0.1052   -0.4031 C   0  0  1  0  0  0  0  0  0  0  0  0
    0.2897    0.6573   -1.1861 H   0  0  0  0  0  0  0  0  0  0  0  0
    1.6502   -0.7718   -0.9395 C   0  0  0  0  0  0  0  0  0  0  0  0
    1.7051   -1.9585   -1.2323 O   0  0  0  0  0  0  0  0  0  0  0  0
    2.7139    0.0311   -1.3188 N   0  0  0  0  0  0  0  0  0  0  0  0
    2.6529    1.0233   -1.1129 H   0  0  0  0  0  0  0  0  0  0  0  0
    3.9296   -0.4846   -1.9382 C   0  0  0  0  0  0  0  0  0  0  0  0
    3.6978   -0.9687   -2.8928 H   0  0  0  0  0  0  0  0  0  0  0  0
    4.6337    0.3314   -2.1269 H   0  0  0  0  0  0  0  0  0  0  0  0
    4.4143   -1.2144   -1.2810 H   0  0  0  0  0  0  0  0  0  0  0  0
  1  2  1  0  0  0  0
  2  3  1  0  0  0  0
  2  4  1  0  0  0  0
  2  5  1  0  0  0  0
  5  6  2  0  0  0  0
  5  7  1  0  0  0  0
  7  8  1  0  0  0  0
  7 17  1  0  0  0  0
  8  9  1  0  0  0  0
  8 10  1  0  0  0  0
  8 11  1  0  0  0  0
 11 12  1  0  0  0  0
 11 13  1  0  0  0  0
 11 14  1  0  0  0  0
 14 15  1  0  0  0  0
 14 16  1  0  0  0  0
 14 17  1  0  0  0  0
 17 18  1  0  0  0  0
 17 19  1  0  0  0  0
 19 20  2  0  0  0  0
 19 21  1  0  0  0  0
 21 22  1  0  0  0  0
 21 23  1  0  0  0  0
 23 24  1  0  0  0  0
 23 25  1  0  0  0  0
 23 26  1  0  0  0  0
M  END
$$$$

  -OEChem-01062216093D

 26 26  0     1  0  0  0  0  0999 V2000
   -1.6649   -4.0150   -0.8461 H   0  0  0  0  0  0  0  0  0  0  0  0
   -1.6349   -3.0089   -1.2727 C   0  0  0  0  0  0  0  0  0  0  0  0
   -2.6555   -2.6804   -1.4809 H   0  0  0  0  0  0  0  0  0  0  0  0
   -1.0710   -3.0388   -2.2084 H   0  0  0  0  0  0  0  0  0  0  0  0
   -0.9658   -2.0478   -0.3072 C   0  0  0  0  0  0  0  0  0  0  0  0
   -0.4858   -2.4793    0.7379 O   0  0  0  0  0  0  0  0  0  0  0  0
   -0.9520   -0.6828   -0.6021 N   0  0  0  0  0  0  0  0  0  0  0  0
   -1.8607   -0.0548    0.3857 C   0  0  0  0  0  0  0  0  0  0  0  0
   -2.1094   -0.6928    1.2436 H   0  0  0  0  0  0  0  0  0  0  0  0
   -2.8020    0.2389   -0.0900 H   0  0  0  0  0  0  0  0  0  0  0  0
   -1.1154    1.1568    0.8799 C   0  0  0  0  0  0  0  0  0  0  0  0
   -1.4237    1.4319    1.8934 H   0  0  0  0  0  0  0  0  0  0  0  0
   -1.3175    2.0051    0.2173 H   0  0  0  0  0  0  0  0  0  0  0  0
    0.3634    0.7993    0.8204 C   0  0  0  0  0  0  0  0  0  0  0  0
    0.6609    0.2151    1.6982 H   0  0  0  0  0  0  0  0  0  0  0  0
    1.0040    1.6829    0.7410 H   0  0  0  0  0  0  0  0  0  0  0  0
    0.3908   -0.0715   -0.4249 C   0  0  1  0  0  0  0  0  0  0  0  0
    0.3360    0.6912   -1.2090 H   0  0  0  0  0  0  0  0  0  0  0  0
    1.6992   -0.7315   -0.9282 C   0  0  0  0  0  0  0  0  0  0  0  0
    1.7006   -1.8183   -1.4931 O   0  0  0  0  0  0  0  0  0  0  0  0
    2.8525    0.0321   -1.0010 N   0  0  0  0  0  0  0  0  0  0  0  0
    2.8388    0.9477   -0.5630 H   0  0  0  0  0  0  0  0  0  0  0  0
    4.1011   -0.4522   -1.5789 C   0  0  0  0  0  0  0  0  0  0  0  0
    3.9693   -0.6776   -2.6424 H   0  0  0  0  0  0  0  0  0  0  0  0
    4.8829    0.3070   -1.4813 H   0  0  0  0  0  0  0  0  0  0  0  0
    4.4347   -1.3598   -1.0648 H   0  0  0  0  0  0  0  0  0  0  0  0
  1  2  1  0  0  0  0
  2  3  1  0  0  0  0
  2  4  1  0  0  0  0
  2  5  1  0  0  0  0
  5  6  2  0  0  0  0
  5  7  1  0  0  0  0
  7  8  1  0  0  0  0
  7 17  1  0  0  0  0
  8  9  1  0  0  0  0
  8 10  1  0  0  0  0
  8 11  1  0  0  0  0
 11 12  1  0  0  0  0
 11 13  1  0  0  0  0
 11 14  1  0  0  0  0
 14 15  1  0  0  0  0
 14 16  1  0  0  0  0
 14 17  1  0  0  0  0
 17 18  1  0  0  0  0
 17 19  1  0  0  0  0
 19 20  2  0  0  0  0
 19 21  1  0  0  0  0
 21 22  1  0  0  0  0
 21 23  1  0  0  0  0
 23 24  1  0  0  0  0
 23 25  1  0  0  0  0
 23 26  1  0  0  0  0
M  END
$$$$

  -OEChem-01062216093D

 26 26  0     1  0  0  0  0  0999 V2000
   -1.7770   -3.9973   -0.7475 H   0  0  0  0  0  0  0  0  0  0  0  0
   -1.8612   -2.9741   -1.1237 C   0  0  0  0  0  0  0  0  0  0  0  0
   -2.8926   -2.6355   -1.0042 H   0  0  0  0  0  0  0  0  0  0  0  0
   -1.6046   -2.9677   -2.1860 H   0  0  0  0  0  0  0  0  0  0  0  0
   -0.9167   -2.0556   -0.3670 C   0  0  0  0  0  0  0  0  0  0  0  0
   -0.2658   -2.5123    0.5688 O   0  0  0  0  0  0  0  0  0  0  0  0
   -0.8562   -0.7032   -0.7133 N   0  0  0  0  0  0  0  0  0  0  0  0
   -1.8446   -0.0917    0.2111 C   0  0  0  0  0  0  0  0  0  0  0  0
   -2.1754   -0.7459    1.0301 H   0  0  0  0  0  0  0  0  0  0  0  0
   -2.7368    0.2296   -0.3368 H   0  0  0  0  0  0  0  0  0  0  0  0
   -1.1298    1.0937    0.8057 C   0  0  0  0  0  0  0  0  0  0  0  0
   -1.5225    1.3411    1.7971 H   0  0  0  0  0  0  0  0  0  0  0  0
   -1.2691    1.9651    0.1570 H   0  0  0  0  0  0  0  0  0  0  0  0
    0.3512    0.7303    0.8662 C   0  0  0  0  0  0  0  0  0  0  0  0
    0.5759    0.1192    1.7469 H   0  0  0  0  0  0  0  0  0  0  0  0
    0.9983    1.6131    0.8612 H   0  0  0  0  0  0  0  0  0  0  0  0
    0.4621   -0.1013   -0.3996 C   0  0  1  0  0  0  0  0  0  0  0  0
    0.4113    0.7189   -1.1246 H   0  0  0  0  0  0  0  0  0  0  0  0
    1.7869   -0.6227   -0.9967 C   0  0  0  0  0  0  0  0  0  0  0  0
    1.7853   -1.4690   -1.8823 O   0  0  0  0  0  0  0  0  0  0  0  0
    2.9840   -0.0149   -0.6592 N   0  0  0  0  0  0  0  0  0  0  0  0
    2.9700    0.6473    0.1099 H   0  0  0  0  0  0  0  0  0  0  0  0
    4.2706   -0.4368   -1.1997 C   0  0  0  0  0  0  0  0  0  0  0  0
    4.2915   -0.3045   -2.2865 H   0  0  0  0  0  0  0  0  0  0  0  0
    5.0778    0.1595   -0.7639 H   0  0  0  0  0  0  0  0  0  0  0  0
    4.4557   -1.4913   -0.9691 H   0  0  0  0  0  0  0  0  0  0  0  0
  1  2  1  0  0  0  0
  2  3  1  0  0  0  0
  2  4  1  0  0  0  0
  2  5  1  0  0  0  0
  5  6  2  0  0  0  0
  5  7  1  0  0  0  0
  7  8  1  0  0  0  0
  7 17  1  0  0  0  0
  8  9  1  0  0  0  0
  8 10  1  0  0  0  0
  8 11  1  0  0  0  0
 11 12  1  0  0  0  0
 11 13  1  0  0  0  0
 11 14  1  0  0  0  0
 14 15  1  0  0  0  0
 14 16  1  0  0  0  0
 14 17  1  0  0  0  0
 17 18  1  0  0  0  0
 17 19  1  0  0  0  0
 19 20  2  0  0  0  0
 19 21  1  0  0  0  0
 21 22  1  0  0  0  0
 21 23  1  0  0  0  0
 23 24  1  0  0  0  0
 23 25  1  0  0  0  0
 23 26  1  0  0  0  0
M  END
$$$$

  -OEChem-01062216093D

 26 26  0     1  0  0  0  0  0999 V2000
   -1.6922   -4.0001   -0.8123 H   0  0  0  0  0  0  0  0  0  0  0  0
   -1.8862   -2.9556   -1.0710 C   0  0  0  0  0  0  0  0  0  0  0  0
   -2.8977   -2.6933   -0.7535 H   0  0  0  0  0  0  0  0  0  0  0  0
   -1.8126   -2.8438   -2.1556 H   0  0  0  0  0  0  0  0  0  0  0  0
   -0.8703   -2.0494   -0.3940 C   0  0  0  0  0  0  0  0  0  0  0  0
   -0.1449   -2.5222    0.4760 O   0  0  0  0  0  0  0  0  0  0  0  0
   -0.8220   -0.6953   -0.7360 N   0  0  0  0  0  0  0  0  0  0  0  0
   -1.8449   -0.1075    0.1652 C   0  0  0  0  0  0  0  0  0  0  0  0
   -2.1757   -0.7689    0.9786 H   0  0  0  0  0  0  0  0  0  0  0  0
   -2.7323    0.1933   -0.4015 H   0  0  0  0  0  0  0  0  0  0  0  0
   -1.1698    1.0929    0.7751 C   0  0  0  0  0  0  0  0  0  0  0  0
   -1.5889    1.3308    1.7579 H   0  0  0  0  0  0  0  0  0  0  0  0
   -1.3154    1.9614    0.1237 H   0  0  0  0  0  0  0  0  0  0  0  0
    0.3179    0.7645    0.8673 C   0  0  0  0  0  0  0  0  0  0  0  0
    0.5377    0.1586    1.7526 H   0  0  0  0  0  0  0  0  0  0  0  0
    0.9448    1.6619    0.8751 H   0  0  0  0  0  0  0  0  0  0  0  0
    0.4753   -0.0632   -0.3959 C   0  0  1  0  0  0  0  0  0  0  0  0
    0.4235    0.7579   -1.1201 H   0  0  0  0  0  0  0  0  0  0  0  0
    1.8212   -0.5577   -0.9666 C   0  0  0  0  0  0  0  0  0  0  0  0
    1.8565   -1.2260   -1.9928 O   0  0  0  0  0  0  0  0  0  0  0  0
    3.0105   -0.1479   -0.3895 N   0  0  0  0  0  0  0  0  0  0  0  0
    2.9500    0.3177    0.5105 H   0  0  0  0  0  0  0  0  0  0  0  0
    4.3151   -0.6010   -0.8562 C   0  0  0  0  0  0  0  0  0  0  0  0
    4.4725   -0.3084   -1.8996 H   0  0  0  0  0  0  0  0  0  0  0  0
    5.1094   -0.1547   -0.2505 H   0  0  0  0  0  0  0  0  0  0  0  0
    4.3910   -1.6907   -0.7801 H   0  0  0  0  0  0  0  0  0  0  0  0
  1  2  1  0  0  0  0
  2  3  1  0  0  0  0
  2  4  1  0  0  0  0
  2  5  1  0  0  0  0
  5  6  2  0  0  0  0
  5  7  1  0  0  0  0
  7  8  1  0  0  0  0
  7 17  1  0  0  0  0
  8  9  1  0  0  0  0
  8 10  1  0  0  0  0
  8 11  1  0  0  0  0
 11 12  1  0  0  0  0
 11 13  1  0  0  0  0
 11 14  1  0  0  0  0
 14 15  1  0  0  0  0
 14 16  1  0  0  0  0
 14 17  1  0  0  0  0
 17 18  1  0  0  0  0
 17 19  1  0  0  0  0
 19 20  2  0  0  0  0
 19 21  1  0  0  0  0
 21 22  1  0  0  0  0
 21 23  1  0  0  0  0
 23 24  1  0  0  0  0
 23 25  1  0  0  0  0
 23 26  1  0  0  0  0
M  END
$$$$

  -OEChem-01062216093D

 26 26  0     1  0  0  0  0  0999 V2000
   -1.6351   -3.9951   -0.8634 H   0  0  0  0  0  0  0  0  0  0  0  0
   -1.8806   -2.9450   -1.0446 C   0  0  0  0  0  0  0  0  0  0  0  0
   -2.8684   -2.7355   -0.6284 H   0  0  0  0  0  0  0  0  0  0  0  0
   -1.9045   -2.7727   -2.1235 H   0  0  0  0  0  0  0  0  0  0  0  0
   -0.8353   -2.0439   -0.4047 C   0  0  0  0  0  0  0  0  0  0  0  0
   -0.0577   -2.5324    0.4090 O   0  0  0  0  0  0  0  0  0  0  0  0
   -0.7953   -0.6874   -0.7393 N   0  0  0  0  0  0  0  0  0  0  0  0
   -1.8496   -0.1168    0.1360 C   0  0  0  0  0  0  0  0  0  0  0  0
   -2.1860   -0.7830    0.9431 H   0  0  0  0  0  0  0  0  0  0  0  0
   -2.7291    0.1676   -0.4514 H   0  0  0  0  0  0  0  0  0  0  0  0
   -1.2093    1.0957    0.7598 C   0  0  0  0  0  0  0  0  0  0  0  0
   -1.6558    1.3281    1.7318 H   0  0  0  0  0  0  0  0  0  0  0  0
   -1.3543    1.9605    0.1033 H   0  0  0  0  0  0  0  0  0  0  0  0
    0.2819    0.7944    0.8874 C   0  0  0  0  0  0  0  0  0  0  0  0
    0.4916    0.1948    1.7794 H   0  0  0  0  0  0  0  0  0  0  0  0
    0.8932    1.7024    0.9070 H   0  0  0  0  0  0  0  0  0  0  0  0
    0.4825   -0.0316   -0.3706 C   0  0  1  0  0  0  0  0  0  0  0  0
    0.4304    0.7904   -1.0942 H   0  0  0  0  0  0  0  0  0  0  0  0
    1.8483   -0.5008   -0.9140 C   0  0  0  0  0  0  0  0  0  0  0  0
    1.9437   -0.9595   -2.0462 O   0  0  0  0  0  0  0  0  0  0  0  0
    2.9912   -0.3370   -0.1516 N   0  0  0  0  0  0  0  0  0  0  0  0
    2.8561   -0.0948    0.8251 H   0  0  0  0  0  0  0  0  0  0  0  0
    4.2985   -0.8252   -0.5734 C   0  0  0  0  0  0  0  0  0  0  0  0
    4.5873   -0.3735   -1.5283 H   0  0  0  0  0  0  0  0  0  0  0  0
    5.0568   -0.5668    0.1718 H   0  0  0  0  0  0  0  0  0  0  0  0
    4.2817   -1.9139   -0.6894 H   0  0  0  0  0  0  0  0  0  0  0  0
  1  2  1  0  0  0  0
  2  3  1  0  0  0  0
  2  4  1  0  0  0  0
  2  5  1  0  0  0  0
  5  6  2  0  0  0  0
  5  7  1  0  0  0  0
  7  8  1  0  0  0  0
  7 17  1  0  0  0  0
  8  9  1  0  0  0  0
  8 10  1  0  0  0  0
  8 11  1  0  0  0  0
 11 12  1  0  0  0  0
 11 13  1  0  0  0  0
 11 14  1  0  0  0  0
 14 15  1  0  0  0  0
 14 16  1  0  0  0  0
 14 17  1  0  0  0  0
 17 18  1  0  0  0  0
 17 19  1  0  0  0  0
 19 20  2  0  0  0  0
 19 21  1  0  0  0  0
 21 22  1  0  0  0  0
 21 23  1  0  0  0  0
 23 24  1  0  0  0  0
 23 25  1  0  0  0  0
 23 26  1  0  0  0  0
M  END
$$$$

  -OEChem-01062216093D

 26 26  0     1  0  0  0  0  0999 V2000
   -1.5698   -3.9838   -0.9444 H   0  0  0  0  0  0  0  0  0  0  0  0
   -1.8793   -2.9368   -1.0033 C   0  0  0  0  0  0  0  0  0  0  0  0
   -2.8210   -2.8150   -0.4635 H   0  0  0  0  0  0  0  0  0  0  0  0
   -2.0346   -2.6773   -2.0535 H   0  0  0  0  0  0  0  0  0  0  0  0
   -0.8058   -2.0396   -0.4043 C   0  0  0  0  0  0  0  0  0  0  0  0
    0.0112   -2.5397    0.3622 O   0  0  0  0  0  0  0  0  0  0  0  0
   -0.7668   -0.6834   -0.7417 N   0  0  0  0  0  0  0  0  0  0  0  0
   -1.8520   -0.1185    0.0987 C   0  0  0  0  0  0  0  0  0  0  0  0
   -2.2011   -0.7813    0.9031 H   0  0  0  0  0  0  0  0  0  0  0  0
   -2.7183    0.1504   -0.5149 H   0  0  0  0  0  0  0  0  0  0  0  0
   -1.2430    1.1059    0.7301 C   0  0  0  0  0  0  0  0  0  0  0  0
   -1.7190    1.3416    1.6872 H   0  0  0  0  0  0  0  0  0  0  0  0
   -1.3793    1.9637    0.0625 H   0  0  0  0  0  0  0  0  0  0  0  0
    0.2483    0.8236    0.9013 C   0  0  0  0  0  0  0  0  0  0  0  0
    0.4400    0.2336    1.8035 H   0  0  0  0  0  0  0  0  0  0  0  0
    0.8499    1.7381    0.9304 H   0  0  0  0  0  0  0  0  0  0  0  0
    0.4922   -0.0092   -0.3437 C   0  0  1  0  0  0  0  0  0  0  0  0
    0.4451    0.8097   -1.0715 H   0  0  0  0  0  0  0  0  0  0  0  0
    1.8781   -0.4625   -0.8480 C   0  0  0  0  0  0  0  0  0  0  0  0
    2.0659   -0.6973   -2.0362 O   0  0  0  0  0  0  0  0  0  0  0  0
    2.9318   -0.5691    0.0412 N   0  0  0  0  0  0  0  0  0  0  0  0
    2.6867   -0.5632    1.0268 H   0  0  0  0  0  0  0  0  0  0  0  0
    4.2318   -1.1032   -0.3444 C   0  0  0  0  0  0  0  0  0  0  0  0
    4.6743   -0.4968   -1.1416 H   0  0  0  0  0  0  0  0  0  0  0  0
    4.9124   -1.0949    0.5121 H   0  0  0  0  0  0  0  0  0  0  0  0
    4.1317   -2.1343   -0.6996 H   0  0  0  0  0  0  0  0  0  0  0  0
  1  2  1  0  0  0  0
  2  3  1  0  0  0  0
  2  4  1  0  0  0  0
  2  5  1  0  0  0  0
  5  6  2  0  0  0  0
  5  7  1  0  0  0  0
  7  8  1  0  0  0  0
  7 17  1  0  0  0  0
  8  9  1  0  0  0  0
  8 10  1  0  0  0  0
  8 11  1  0  0  0  0
 11 12  1  0  0  0  0
 11 13  1  0  0  0  0
 11 14  1  0  0  0  0
 14 15  1  0  0  0  0
 14 16  1  0  0  0  0
 14 17  1  0  0  0  0
 17 18  1  0  0  0  0
 17 19  1  0  0  0  0
 19 20  2  0  0  0  0
 19 21  1  0  0  0  0
 21 22  1  0  0  0  0
 21 23  1  0  0  0  0
 23 24  1  0  0  0  0
 23 25  1  0  0  0  0
 23 26  1  0  0  0  0
M  END
$$$$

  -OEChem-01062216093D

 26 26  0     1  0  0  0  0  0999 V2000
   -1.5624   -3.9811   -0.9083 H   0  0  0  0  0  0  0  0  0  0  0  0
   -1.8775   -2.9352   -0.9598 C   0  0  0  0  0  0  0  0  0  0  0  0
   -2.8107   -2.8193   -0.4040 H   0  0  0  0  0  0  0  0  0  0  0  0
   -2.0515   -2.6747   -2.0070 H   0  0  0  0  0  0  0  0  0  0  0  0
   -0.7976   -2.0343   -0.3762 C   0  0  0  0  0  0  0  0  0  0  0  0
    0.0264   -2.5323    0.3844 O   0  0  0  0  0  0  0  0  0  0  0  0
   -0.7477   -0.6837   -0.7351 N   0  0  0  0  0  0  0  0  0  0  0  0
   -1.8549   -0.1061    0.0681 C   0  0  0  0  0  0  0  0  0  0  0  0
   -2.2243   -0.7551    0.8747 H   0  0  0  0  0  0  0  0  0  0  0  0
   -2.7054    0.1519   -0.5719 H   0  0  0  0  0  0  0  0  0  0  0  0
   -1.2630    1.1293    0.6945 C   0  0  0  0  0  0  0  0  0  0  0  0
   -1.7625    1.3789    1.6358 H   0  0  0  0  0  0  0  0  0  0  0  0
   -1.3847    1.9765    0.0107 H   0  0  0  0  0  0  0  0  0  0  0  0
    0.2243    0.8530    0.9076 C   0  0  0  0  0  0  0  0  0  0  0  0
    0.3961    0.2799    1.8244 H   0  0  0  0  0  0  0  0  0  0  0  0
    0.8236    1.7692    0.9347 H   0  0  0  0  0  0  0  0  0  0  0  0
    0.4998    0.0006   -0.3167 C   0  0  1  0  0  0  0  0  0  0  0  0
    0.4641    0.8100   -1.0560 H   0  0  0  0  0  0  0  0  0  0  0  0
    1.9006   -0.4586   -0.7762 C   0  0  0  0  0  0  0  0  0  0  0  0
    2.2051   -0.4672   -1.9639 O   0  0  0  0  0  0  0  0  0  0  0  0
    2.8326   -0.8437    0.1694 N   0  0  0  0  0  0  0  0  0  0  0  0
    2.4535   -1.0649    1.0865 H   0  0  0  0  0  0  0  0  0  0  0  0
    4.1220   -1.4179   -0.1936 C   0  0  0  0  0  0  0  0  0  0  0  0
    4.6894   -0.7227   -0.8213 H   0  0  0  0  0  0  0  0  0  0  0  0
    4.7094   -1.6255    0.7059 H   0  0  0  0  0  0  0  0  0  0  0  0
    3.9821   -2.3553   -0.7422 H   0  0  0  0  0  0  0  0  0  0  0  0
  1  2  1  0  0  0  0
  2  3  1  0  0  0  0
  2  4  1  0  0  0  0
  2  5  1  0  0  0  0
  5  6  2  0  0  0  0
  5  7  1  0  0  0  0
  7  8  1  0  0  0  0
  7 17  1  0  0  0  0
  8  9  1  0  0  0  0
  8 10  1  0  0  0  0
  8 11  1  0  0  0  0
 11 12  1  0  0  0  0
 11 13  1  0  0  0  0
 11 14  1  0  0  0  0
 14 15  1  0  0  0  0
 14 16  1  0  0  0  0
 14 17  1  0  0  0  0
 17 18  1  0  0  0  0
 17 19  1  0  0  0  0
 19 20  2  0  0  0  0
 19 21  1  0  0  0  0
 21 22  1  0  0  0  0
 21 23  1  0  0  0  0
 23 24  1  0  0  0  0
 23 25  1  0  0  0  0
 23 26  1  0  0  0  0
M  END
$$$$

  -OEChem-01062216093D

 26 26  0     1  0  0  0  0  0999 V2000
   -1.5825   -3.9732   -0.9254 H   0  0  0  0  0  0  0  0  0  0  0  0
   -1.9045   -2.9283   -0.9319 C   0  0  0  0  0  0  0  0  0  0  0  0
   -2.8181   -2.8360   -0.3404 H   0  0  0  0  0  0  0  0  0  0  0  0
   -2.1165   -2.6355   -1.9633 H   0  0  0  0  0  0  0  0  0  0  0  0
   -0.8099   -2.0406   -0.3558 C   0  0  0  0  0  0  0  0  0  0  0  0
    0.0118   -2.5502    0.3997 O   0  0  0  0  0  0  0  0  0  0  0  0
   -0.7376   -0.6929   -0.7233 N   0  0  0  0  0  0  0  0  0  0  0  0
   -1.8577   -0.0988    0.0505 C   0  0  0  0  0  0  0  0  0  0  0  0
   -2.2479   -0.7361    0.8568 H   0  0  0  0  0  0  0  0  0  0  0  0
   -2.6931    0.1579   -0.6097 H   0  0  0  0  0  0  0  0  0  0  0  0
   -1.2709    1.1391    0.6764 C   0  0  0  0  0  0  0  0  0  0  0  0
   -1.7884    1.4020    1.6043 H   0  0  0  0  0  0  0  0  0  0  0  0
   -1.3719    1.9798   -0.0185 H   0  0  0  0  0  0  0  0  0  0  0  0
    0.2097    0.8558    0.9240 C   0  0  0  0  0  0  0  0  0  0  0  0
    0.3600    0.2919    1.8503 H   0  0  0  0  0  0  0  0  0  0  0  0
    0.8151    1.7679    0.9533 H   0  0  0  0  0  0  0  0  0  0  0  0
    0.5047   -0.0111   -0.2847 C   0  0  1  0  0  0  0  0  0  0  0  0
    0.4780    0.7918   -1.0319 H   0  0  0  0  0  0  0  0  0  0  0  0
    1.9167   -0.4780   -0.7068 C   0  0  0  0  0  0  0  0  0  0  0  0
    2.3697   -0.2283   -1.8189 O   0  0  0  0  0  0  0  0  0  0  0  0
    2.7025   -1.1433    0.2144 N   0  0  0  0  0  0  0  0  0  0  0  0
    2.1821   -1.5738    0.9774 H   0  0  0  0  0  0  0  0  0  0  0  0
    3.9983   -1.7132   -0.1316 C   0  0  0  0  0  0  0  0  0  0  0  0
    4.6716   -0.9359   -0.5081 H   0  0  0  0  0  0  0  0  0  0  0  0
    4.4579   -2.1668    0.7517 H   0  0  0  0  0  0  0  0  0  0  0  0
    3.8847   -2.4844   -0.9006 H   0  0  0  0  0  0  0  0  0  0  0  0
  1  2  1  0  0  0  0
  2  3  1  0  0  0  0
  2  4  1  0  0  0  0
  2  5  1  0  0  0  0
  5  6  2  0  0  0  0
  5  7  1  0  0  0  0
  7  8  1  0  0  0  0
  7 17  1  0  0  0  0
  8  9  1  0  0  0  0
  8 10  1  0  0  0  0
  8 11  1  0  0  0  0
 11 12  1  0  0  0  0
 11 13  1  0  0  0  0
 11 14  1  0  0  0  0
 14 15  1  0  0  0  0
 14 16  1  0  0  0  0
 14 17  1  0  0  0  0
 17 18  1  0  0  0  0
 17 19  1  0  0  0  0
 19 20  2  0  0  0  0
 19 21  1  0  0  0  0
 21 22  1  0  0  0  0
 21 23  1  0  0  0  0
 23 24  1  0  0  0  0
 23 25  1  0  0  0  0
 23 26  1  0  0  0  0
M  END
$$$$

  -OEChem-01062216093D

 26 26  0     1  0  0  0  0  0999 V2000
   -1.6646   -3.9573   -0.9845 H   0  0  0  0  0  0  0  0  0  0  0  0
   -1.9862   -2.9155   -0.9021 C   0  0  0  0  0  0  0  0  0  0  0  0
   -2.8599   -2.8654   -0.2484 H   0  0  0  0  0  0  0  0  0  0  0  0
   -2.2641   -2.5570   -1.8966 H   0  0  0  0  0  0  0  0  0  0  0  0
   -0.8560   -2.0647   -0.3383 C   0  0  0  0  0  0  0  0  0  0  0  0
   -0.0423   -2.6073    0.4016 O   0  0  0  0  0  0  0  0  0  0  0  0
   -0.7380   -0.7211   -0.7088 N   0  0  0  0  0  0  0  0  0  0  0  0
   -1.8599   -0.0926    0.0357 C   0  0  0  0  0  0  0  0  0  0  0  0
   -2.2703   -0.7078    0.8489 H   0  0  0  0  0  0  0  0  0  0  0  0
   -2.6819    0.1641   -0.6411 H   0  0  0  0  0  0  0  0  0  0  0  0
   -1.2645    1.1485    0.6472 C   0  0  0  0  0  0  0  0  0  0  0  0
   -1.7934    1.4392    1.5603 H   0  0  0  0  0  0  0  0  0  0  0  0
   -1.3392    1.9765   -0.0663 H   0  0  0  0  0  0  0  0  0  0  0  0
    0.2062    0.8452    0.9259 C   0  0  0  0  0  0  0  0  0  0  0  0
    0.3323    0.2968    1.8651 H   0  0  0  0  0  0  0  0  0  0  0  0
    0.8262    1.7477    0.9473 H   0  0  0  0  0  0  0  0  0  0  0  0
    0.5083   -0.0500   -0.2592 C   0  0  1  0  0  0  0  0  0  0  0  0
    0.4920    0.7346   -1.0257 H   0  0  0  0  0  0  0  0  0  0  0  0
    1.9321   -0.5219   -0.6425 C   0  0  0  0  0  0  0  0  0  0  0  0
    2.5432   -0.0278   -1.5847 O   0  0  0  0  0  0  0  0  0  0  0  0
    2.5736   -1.4359    0.1700 N   0  0  0  0  0  0  0  0  0  0  0  0
    1.9439   -1.9909    0.7528 H   0  0  0  0  0  0  0  0  0  0  0  0
    3.8841   -1.9896   -0.1442 C   0  0  0  0  0  0  0  0  0  0  0  0
    4.6280   -1.1907   -0.2311 H   0  0  0  0  0  0  0  0  0  0  0  0
    4.2039   -2.6721    0.6490 H   0  0  0  0  0  0  0  0  0  0  0  0
    3.8493   -2.5435   -1.0878 H   0  0  0  0  0  0  0  0  0  0  0  0
  1  2  1  0  0  0  0
  2  3  1  0  0  0  0
  2  4  1  0  0  0  0
  2  5  1  0  0  0  0
  5  6  2  0  0  0  0
  5  7  1  0  0  0  0
  7  8  1  0  0  0  0
  7 17  1  0  0  0  0
  8  9  1  0  0  0  0
  8 10  1  0  0  0  0
  8 11  1  0  0  0  0
 11 12  1  0  0  0  0
 11 13  1  0  0  0  0
 11 14  1  0  0  0  0
 14 15  1  0  0  0  0
 14 16  1  0  0  0  0
 14 17  1  0  0  0  0
 17 18  1  0  0  0  0
 17 19  1  0  0  0  0
 19 20  2  0  0  0  0
 19 21  1  0  0  0  0
 21 22  1  0  0  0  0
 21 23  1  0  0  0  0
 23 24  1  0  0  0  0
 23 25  1  0  0  0  0
 23 26  1  0  0  0  0
M  END
$$$$

  -OEChem-01062216093D

 26 26  0     1  0  0  0  0  0999 V2000
   -1.8174   -3.9480   -0.9867 H   0  0  0  0  0  0  0  0  0  0  0  0
   -2.0974   -2.8961   -0.8830 C   0  0  0  0  0  0  0  0  0  0  0  0
   -2.9604   -2.8238   -0.2171 H   0  0  0  0  0  0  0  0  0  0  0  0
   -2.3734   -2.5110   -1.8680 H   0  0  0  0  0  0  0  0  0  0  0  0
   -0.9287   -2.0985   -0.3194 C   0  0  0  0  0  0  0  0  0  0  0  0
   -0.1324   -2.6858    0.4028 O   0  0  0  0  0  0  0  0  0  0  0  0
   -0.7533   -0.7598   -0.6828 N   0  0  0  0  0  0  0  0  0  0  0  0
   -1.8661   -0.0886    0.0374 C   0  0  0  0  0  0  0  0  0  0  0  0
   -2.2918   -0.6766    0.8626 H   0  0  0  0  0  0  0  0  0  0  0  0
   -2.6790    0.1673   -0.6506 H   0  0  0  0  0  0  0  0  0  0  0  0
   -1.2519    1.1553    0.6247 C   0  0  0  0  0  0  0  0  0  0  0  0
   -1.7841    1.4796    1.5246 H   0  0  0  0  0  0  0  0  0  0  0  0
   -1.3000    1.9669   -0.1094 H   0  0  0  0  0  0  0  0  0  0  0  0
    0.2076    0.8244    0.9266 C   0  0  0  0  0  0  0  0  0  0  0  0
    0.3115    0.2967    1.8802 H   0  0  0  0  0  0  0  0  0  0  0  0
    0.8475    1.7133    0.9334 H   0  0  0  0  0  0  0  0  0  0  0  0
    0.5043   -0.1061   -0.2325 C   0  0  1  0  0  0  0  0  0  0  0  0
    0.5004    0.6540   -1.0236 H   0  0  0  0  0  0  0  0  0  0  0  0
    1.9360   -0.5808   -0.5891 C   0  0  0  0  0  0  0  0  0  0  0  0
    2.6679    0.0946   -1.3057 O   0  0  0  0  0  0  0  0  0  0  0  0
    2.4645   -1.6974    0.0273 N   0  0  0  0  0  0  0  0  0  0  0  0
    1.7800   -2.3029    0.4875 H   0  0  0  0  0  0  0  0  0  0  0  0
    3.7888   -2.2298   -0.2634 C   0  0  0  0  0  0  0  0  0  0  0  0
    4.5590   -1.4847   -0.0389 H   0  0  0  0  0  0  0  0  0  0  0  0
    3.9793   -3.1171    0.3479 H   0  0  0  0  0  0  0  0  0  0  0  0
    3.8658   -2.5111   -1.3186 H   0  0  0  0  0  0  0  0  0  0  0  0
  1  2  1  0  0  0  0
  2  3  1  0  0  0  0
  2  4  1  0  0  0  0
  2  5  1  0  0  0  0
  5  6  2  0  0  0  0
  5  7  1  0  0  0  0
  7  8  1  0  0  0  0
  7 17  1  0  0  0  0
  8  9  1  0  0  0  0
  8 10  1  0  0  0  0
  8 11  1  0  0  0  0
 11 12  1  0  0  0  0
 11 13  1  0  0  0  0
 11 14  1  0  0  0  0
 14 15  1  0  0  0  0
 14 16  1  0  0  0  0
 14 17  1  0  0  0  0
 17 18  1  0  0  0  0
 17 19  1  0  0  0  0
 19 20  2  0  0  0  0
 19 21  1  0  0  0  0
 21 22  1  0  0  0  0
 21 23  1  0  0  0  0
 23 24  1  0  0  0  0
 23 25  1  0  0  0  0
 23 26  1  0  0  0  0
M  END
$$$$

  -OEChem-01062216093D

 26 26  0     1  0  0  0  0  0999 V2000
   -2.0041   -3.9248   -0.9863 H   0  0  0  0  0  0  0  0  0  0  0  0
   -2.2325   -2.8636   -0.8545 C   0  0  0  0  0  0  0  0  0  0  0  0
   -3.0679   -2.7664   -0.1570 H   0  0  0  0  0  0  0  0  0  0  0  0
   -2.5255   -2.4484   -1.8223 H   0  0  0  0  0  0  0  0  0  0  0  0
   -1.0097   -2.1292   -0.3187 C   0  0  0  0  0  0  0  0  0  0  0  0
   -0.2171   -2.7687    0.3601 O   0  0  0  0  0  0  0  0  0  0  0  0
   -0.7821   -0.7943   -0.6665 N   0  0  0  0  0  0  0  0  0  0  0  0
   -1.8754   -0.0828    0.0434 C   0  0  0  0  0  0  0  0  0  0  0  0
   -2.3135   -0.6502    0.8763 H   0  0  0  0  0  0  0  0  0  0  0  0
   -2.6822    0.1858   -0.6470 H   0  0  0  0  0  0  0  0  0  0  0  0
   -1.2284    1.1516    0.6152 C   0  0  0  0  0  0  0  0  0  0  0  0
   -1.7523    1.5024    1.5099 H   0  0  0  0  0  0  0  0  0  0  0  0
   -1.2521    1.9546   -0.1296 H   0  0  0  0  0  0  0  0  0  0  0  0
    0.2199    0.7825    0.9237 C   0  0  0  0  0  0  0  0  0  0  0  0
    0.3077    0.2649    1.8844 H   0  0  0  0  0  0  0  0  0  0  0  0
    0.8851    1.6528    0.9202 H   0  0  0  0  0  0  0  0  0  0  0  0
    0.4953   -0.1715   -0.2217 C   0  0  1  0  0  0  0  0  0  0  0  0
    0.5071    0.5715   -1.0288 H   0  0  0  0  0  0  0  0  0  0  0  0
    1.9275   -0.6511   -0.5713 C   0  0  0  0  0  0  0  0  0  0  0  0
    2.7468    0.1367   -1.0327 O   0  0  0  0  0  0  0  0  0  0  0  0
    2.3634   -1.9131   -0.2217 N   0  0  0  0  0  0  0  0  0  0  0  0
    1.6548   -2.5435    0.1621 H   0  0  0  0  0  0  0  0  0  0  0  0
    3.7107   -2.4121   -0.4607 C   0  0  0  0  0  0  0  0  0  0  0  0
    4.4456   -1.8024    0.0751 H   0  0  0  0  0  0  0  0  0  0  0  0
    3.7971   -3.4451   -0.1107 H   0  0  0  0  0  0  0  0  0  0  0  0
    3.9436   -2.3884   -1.5302 H   0  0  0  0  0  0  0  0  0  0  0  0
  1  2  1  0  0  0  0
  2  3  1  0  0  0  0
  2  4  1  0  0  0  0
  2  5  1  0  0  0  0
  5  6  2  0  0  0  0
  5  7  1  0  0  0  0
  7  8  1  0  0  0  0
  7 17  1  0  0  0  0
  8  9  1  0  0  0  0
  8 10  1  0  0  0  0
  8 11  1  0  0  0  0
 11 12  1  0  0  0  0
 11 13  1  0  0  0  0
 11 14  1  0  0  0  0
 14 15  1  0  0  0  0
 14 16  1  0  0  0  0
 14 17  1  0  0  0  0
 17 18  1  0  0  0  0
 17 19  1  0  0  0  0
 19 20  2  0  0  0  0
 19 21  1  0  0  0  0
 21 22  1  0  0  0  0
 21 23  1  0  0  0  0
 23 24  1  0  0  0  0
 23 25  1  0  0  0  0
 23 26  1  0  0  0  0
M  END
$$$$

  -OEChem-01062216093D

 26 26  0     1  0  0  0  0  0999 V2000
   -2.1358   -3.9082   -0.9711 H   0  0  0  0  0  0  0  0  0  0  0  0
   -2.3269   -2.8404   -0.8333 C   0  0  0  0  0  0  0  0  0  0  0  0
   -3.1438   -2.7177   -0.1184 H   0  0  0  0  0  0  0  0  0  0  0  0
   -2.6262   -2.4144   -1.7943 H   0  0  0  0  0  0  0  0  0  0  0  0
   -1.0700   -2.1466   -0.3220 C   0  0  0  0  0  0  0  0  0  0  0  0
   -0.2713   -2.8220    0.3125 O   0  0  0  0  0  0  0  0  0  0  0  0
   -0.8125   -0.8143   -0.6588 N   0  0  0  0  0  0  0  0  0  0  0  0
   -1.8828   -0.0766    0.0585 C   0  0  0  0  0  0  0  0  0  0  0  0
   -2.3225   -0.6331    0.8977 H   0  0  0  0  0  0  0  0  0  0  0  0
   -2.6912    0.2072   -0.6239 H   0  0  0  0  0  0  0  0  0  0  0  0
   -1.2045    1.1455    0.6202 C   0  0  0  0  0  0  0  0  0  0  0  0
   -1.7128    1.5110    1.5180 H   0  0  0  0  0  0  0  0  0  0  0  0
   -1.2162    1.9463   -0.1273 H   0  0  0  0  0  0  0  0  0  0  0  0
    0.2372    0.7442    0.9172 C   0  0  0  0  0  0  0  0  0  0  0  0
    0.3215    0.2287    1.8794 H   0  0  0  0  0  0  0  0  0  0  0  0
    0.9217    1.5992    0.9054 H   0  0  0  0  0  0  0  0  0  0  0  0
    0.4838   -0.2202   -0.2273 C   0  0  1  0  0  0  0  0  0  0  0  0
    0.5071    0.5168   -1.0394 H   0  0  0  0  0  0  0  0  0  0  0  0
    1.9071   -0.7125   -0.5919 C   0  0  0  0  0  0  0  0  0  0  0  0
    2.7905    0.1085   -0.8147 O   0  0  0  0  0  0  0  0  0  0  0  0
    2.2526   -2.0482   -0.5457 N   0  0  0  0  0  0  0  0  0  0  0  0
    1.5260   -2.6853   -0.2104 H   0  0  0  0  0  0  0  0  0  0  0  0
    3.6105   -2.5477   -0.7139 C   0  0  0  0  0  0  0  0  0  0  0  0
    4.2519   -2.1938    0.0998 H   0  0  0  0  0  0  0  0  0  0  0  0
    3.6117   -3.6419   -0.7077 H   0  0  0  0  0  0  0  0  0  0  0  0
    4.0291   -2.2086   -1.6673 H   0  0  0  0  0  0  0  0  0  0  0  0
  1  2  1  0  0  0  0
  2  3  1  0  0  0  0
  2  4  1  0  0  0  0
  2  5  1  0  0  0  0
  5  6  2  0  0  0  0
  5  7  1  0  0  0  0
  7  8  1  0  0  0  0
  7 17  1  0  0  0  0
  8  9  1  0  0  0  0
  8 10  1  0  0  0  0
  8 11  1  0  0  0  0
 11 12  1  0  0  0  0
 11 13  1  0  0  0  0
 11 14  1  0  0  0  0
 14 15  1  0  0  0  0
 14 16  1  0  0  0  0
 14 17  1  0  0  0  0
 17 18  1  0  0  0  0
 17 19  1  0  0  0  0
 19 20  2  0  0  0  0
 19 21  1  0  0  0  0
 21 22  1  0  0  0  0
 21 23  1  0  0  0  0
 23 24  1  0  0  0  0
 23 25  1  0  0  0  0
 23 26  1  0  0  0  0
M  END
$$$$

  -OEChem-01062216093D

 26 26  0     1  0  0  0  0  0999 V2000
   -2.1748   -3.9662   -0.8324 H   0  0  0  0  0  0  0  0  0  0  0  0
   -2.3652   -2.9029   -0.6625 C   0  0  0  0  0  0  0  0  0  0  0  0
   -3.1125   -2.8011    0.1279 H   0  0  0  0  0  0  0  0  0  0  0  0
   -2.7597   -2.4699   -1.5853 H   0  0  0  0  0  0  0  0  0  0  0  0
   -1.0734   -2.1984   -0.2621 C   0  0  0  0  0  0  0  0  0  0  0  0
   -0.2125   -2.8756    0.2818 O   0  0  0  0  0  0  0  0  0  0  0  0
   -0.8403   -0.8723   -0.6408 N   0  0  0  0  0  0  0  0  0  0  0  0
   -1.9048   -0.1203    0.0693 C   0  0  0  0  0  0  0  0  0  0  0  0
   -2.3177   -0.6495    0.9390 H   0  0  0  0  0  0  0  0  0  0  0  0
   -2.7317    0.1264   -0.6055 H   0  0  0  0  0  0  0  0  0  0  0  0
   -1.2304    1.1304    0.5687 C   0  0  0  0  0  0  0  0  0  0  0  0
   -1.7241    1.5243    1.4627 H   0  0  0  0  0  0  0  0  0  0  0  0
   -1.2682    1.9011   -0.2088 H   0  0  0  0  0  0  0  0  0  0  0  0
    0.2219    0.7574    0.8499 C   0  0  0  0  0  0  0  0  0  0  0  0
    0.3329    0.2804    1.8289 H   0  0  0  0  0  0  0  0  0  0  0  0
    0.8940    1.6205    0.7924 H   0  0  0  0  0  0  0  0  0  0  0  0
    0.4591   -0.2486   -0.2616 C   0  0  1  0  0  0  0  0  0  0  0  0
    0.4591    0.4559   -1.1021 H   0  0  0  0  0  0  0  0  0  0  0  0
    1.8826   -0.7232   -0.6458 C   0  0  0  0  0  0  0  0  0  0  0  0
    2.7908    0.0986   -0.7014 O   0  0  0  0  0  0  0  0  0  0  0  0
    2.1818   -2.0530   -0.8668 N   0  0  0  0  0  0  0  0  0  0  0  0
    1.4534   -2.7137   -0.5869 H   0  0  0  0  0  0  0  0  0  0  0  0
    3.5363   -2.5520   -1.0624 C   0  0  0  0  0  0  0  0  0  0  0  0
    4.1446   -2.3682   -0.1709 H   0  0  0  0  0  0  0  0  0  0  0  0
    3.5160   -3.6290   -1.2539 H   0  0  0  0  0  0  0  0  0  0  0  0
    4.0070   -2.0593   -1.9194 H   0  0  0  0  0  0  0  0  0  0  0  0
  1  2  1  0  0  0  0
  2  3  1  0  0  0  0
  2  4  1  0  0  0  0
  2  5  1  0  0  0  0
  5  6  2  0  0  0  0
  5  7  1  0  0  0  0
  7  8  1  0  0  0  0
  7 17  1  0  0  0  0
  8  9  1  0  0  0  0
  8 10  1  0  0  0  0
  8 11  1  0  0  0  0
 11 12  1  0  0  0  0
 11 13  1  0  0  0  0
 11 14  1  0  0  0  0
 14 15  1  0  0  0  0
 14 16  1  0  0  0  0
 14 17  1  0  0  0  0
 17 18  1  0  0  0  0
 17 19  1  0  0  0  0
 19 20  2  0  0  0  0
 19 21  1  0  0  0  0
 21 22  1  0  0  0  0
 21 23  1  0  0  0  0
 23 24  1  0  0  0  0
 23 25  1  0  0  0  0
 23 26  1  0  0  0  0
M  END
$$$$

  -OEChem-01062216093D

 26 26  0     1  0  0  0  0  0999 V2000
   -1.2731   -3.9020    0.2848 H   0  0  0  0  0  0  0  0  0  0  0  0
   -0.6754   -2.9870    0.3255 C   0  0  0  0  0  0  0  0  0  0  0  0
    0.3671   -3.2666    0.4808 H   0  0  0  0  0  0  0  0  0  0  0  0
   -1.0148   -2.3938    1.1773 H   0  0  0  0  0  0  0  0  0  0  0  0
   -0.8437   -2.2000   -0.9736 C   0  0  0  0  0  0  0  0  0  0  0  0
   -1.4265   -2.7500   -1.8972 O   0  0  0  0  0  0  0  0  0  0  0  0
   -0.5670   -0.8351   -1.0930 N   0  0  0  0  0  0  0  0  0  0  0  0
   -1.8877   -0.1936   -0.8820 C   0  0  0  0  0  0  0  0  0  0  0  0
   -2.6250   -0.8382   -0.3838 H   0  0  0  0  0  0  0  0  0  0  0  0
   -2.3180    0.1351   -1.8341 H   0  0  0  0  0  0  0  0  0  0  0  0
   -1.5953    0.9831    0.0122 C   0  0  0  0  0  0  0  0  0  0  0  0
   -2.4662    1.2527    0.6179 H   0  0  0  0  0  0  0  0  0  0  0  0
   -1.3271    1.8492   -0.6026 H   0  0  0  0  0  0  0  0  0  0  0  0
   -0.4070    0.5841    0.8843 C   0  0  0  0  0  0  0  0  0  0  0  0
   -0.7225   -0.0103    1.7471 H   0  0  0  0  0  0  0  0  0  0  0  0
    0.1589    1.4527    1.2380 H   0  0  0  0  0  0  0  0  0  0  0  0
    0.3773   -0.2673   -0.1018 C   0  0  1  0  0  0  0  0  0  0  0  0
    0.7227    0.5433   -0.7544 H   0  0  0  0  0  0  0  0  0  0  0  0
    1.8459   -0.6948    0.1478 C   0  0  0  0  0  0  0  0  0  0  0  0
    2.4759   -0.1525    1.0408 O   0  0  0  0  0  0  0  0  0  0  0  0
    2.4554   -1.8483   -0.2973 N   0  0  0  0  0  0  0  0  0  0  0  0
    3.3764   -1.9774    0.1161 H   0  0  0  0  0  0  0  0  0  0  0  0
    2.2525   -2.3996   -1.6331 C   0  0  0  0  0  0  0  0  0  0  0  0
    3.2202   -2.6415   -2.0836 H   0  0  0  0  0  0  0  0  0  0  0  0
    1.6578   -3.3170   -1.5883 H   0  0  0  0  0  0  0  0  0  0  0  0
    1.7497   -1.6826   -2.2905 H   0  0  0  0  0  0  0  0  0  0  0  0
  1  2  1  0  0  0  0
  2  3  1  0  0  0  0
  2  4  1  0  0  0  0
  2  5  1  0  0  0  0
  5  6  2  0  0  0  0
  5  7  1  0  0  0  0
  7  8  1  0  0  0  0
  7 17  1  0  0  0  0
  8  9  1  0  0  0  0
  8 10  1  0  0  0  0
  8 11  1  0  0  0  0
 11 12  1  0  0  0  0
 11 13  1  0  0  0  0
 11 14  1  0  0  0  0
 14 15  1  0  0  0  0
 14 16  1  0  0  0  0
 14 17  1  0  0  0  0
 17 18  1  0  0  0  0
 17 19  1  0  0  0  0
 19 20  2  0  0  0  0
 19 21  1  0  0  0  0
 21 22  1  0  0  0  0
 21 23  1  0  0  0  0
 23 24  1  0  0  0  0
 23 25  1  0  0  0  0
 23 26  1  0  0  0  0
M  END
$$$$

  -OEChem-01062216093D

 26 26  0     1  0  0  0  0  0999 V2000
   -1.2379   -4.3244   -0.4810 H   0  0  0  0  0  0  0  0  0  0  0  0
   -1.6378   -3.3068   -0.4615 C   0  0  0  0  0  0  0  0  0  0  0  0
   -2.4551   -3.2639    0.2622 H   0  0  0  0  0  0  0  0  0  0  0  0
   -2.0269   -3.0660   -1.4539 H   0  0  0  0  0  0  0  0  0  0  0  0
   -0.5404   -2.3218   -0.0784 C   0  0  0  0  0  0  0  0  0  0  0  0
    0.4199   -2.7532    0.5434 O   0  0  0  0  0  0  0  0  0  0  0  0
   -0.6077   -0.9930   -0.5087 N   0  0  0  0  0  0  0  0  0  0  0  0
   -1.7486   -0.4404    0.2601 C   0  0  0  0  0  0  0  0  0  0  0  0
   -2.0172   -1.0298    1.1476 H   0  0  0  0  0  0  0  0  0  0  0  0
   -2.6399   -0.3472   -0.3698 H   0  0  0  0  0  0  0  0  0  0  0  0
   -1.2767    0.9118    0.7252 C   0  0  0  0  0  0  0  0  0  0  0  0
   -1.7773    1.2166    1.6497 H   0  0  0  0  0  0  0  0  0  0  0  0
   -1.4955    1.6604   -0.0438 H   0  0  0  0  0  0  0  0  0  0  0  0
    0.2326    0.8011    0.9169 C   0  0  0  0  0  0  0  0  0  0  0  0
    0.4830    0.3546    1.8848 H   0  0  0  0  0  0  0  0  0  0  0  0
    0.7378    1.7688    0.8279 H   0  0  0  0  0  0  0  0  0  0  0  0
    0.5842   -0.1538   -0.2118 C   0  0  1  0  0  0  0  0  0  0  0  0
    0.4268    0.5348   -1.0493 H   0  0  0  0  0  0  0  0  0  0  0  0
    2.0515   -0.3774   -0.6652 C   0  0  0  0  0  0  0  0  0  0  0  0
    2.9224    0.3800   -0.2633 O   0  0  0  0  0  0  0  0  0  0  0  0
    2.5560   -1.4000   -1.4421 N   0  0  0  0  0  0  0  0  0  0  0  0
    3.5658   -1.3686   -1.5515 H   0  0  0  0  0  0  0  0  0  0  0  0
    1.7939   -2.2840   -2.3111 C   0  0  0  0  0  0  0  0  0  0  0  0
    1.5624   -3.2219   -1.7977 H   0  0  0  0  0  0  0  0  0  0  0  0
    0.8623   -1.8119   -2.6374 H   0  0  0  0  0  0  0  0  0  0  0  0
    2.3804   -2.5188   -3.2045 H   0  0  0  0  0  0  0  0  0  0  0  0
  1  2  1  0  0  0  0
  2  3  1  0  0  0  0
  2  4  1  0  0  0  0
  2  5  1  0  0  0  0
  5  6  2  0  0  0  0
  5  7  1  0  0  0  0
  7  8  1  0  0  0  0
  7 17  1  0  0  0  0
  8  9  1  0  0  0  0
  8 10  1  0  0  0  0
  8 11  1  0  0  0  0
 11 12  1  0  0  0  0
 11 13  1  0  0  0  0
 11 14  1  0  0  0  0
 14 15  1  0  0  0  0
 14 16  1  0  0  0  0
 14 17  1  0  0  0  0
 17 18  1  0  0  0  0
 17 19  1  0  0  0  0
 19 20  2  0  0  0  0
 19 21  1  0  0  0  0
 21 22  1  0  0  0  0
 21 23  1  0  0  0  0
 23 24  1  0  0  0  0
 23 25  1  0  0  0  0
 23 26  1  0  0  0  0
M  END
$$$$

  -OEChem-01062216093D

 26 26  0     1  0  0  0  0  0999 V2000
   -2.3579   -3.8729   -0.8976 H   0  0  0  0  0  0  0  0  0  0  0  0
   -2.4699   -2.8149   -0.6442 C   0  0  0  0  0  0  0  0  0  0  0  0
   -3.1101   -2.7342    0.2373 H   0  0  0  0  0  0  0  0  0  0  0  0
   -2.9507   -2.3080   -1.4846 H   0  0  0  0  0  0  0  0  0  0  0  0
   -1.1017   -2.1955   -0.3667 C   0  0  0  0  0  0  0  0  0  0  0  0
   -0.1947   -2.9701   -0.1011 O   0  0  0  0  0  0  0  0  0  0  0  0
   -0.8257   -0.8595   -0.6840 N   0  0  0  0  0  0  0  0  0  0  0  0
   -1.8649   -0.0869    0.0417 C   0  0  0  0  0  0  0  0  0  0  0  0
   -2.3230   -0.6336    0.8763 H   0  0  0  0  0  0  0  0  0  0  0  0
   -2.6618    0.2382   -0.6359 H   0  0  0  0  0  0  0  0  0  0  0  0
   -1.1358    1.0971    0.6205 C   0  0  0  0  0  0  0  0  0  0  0  0
   -1.6288    1.4716    1.5233 H   0  0  0  0  0  0  0  0  0  0  0  0
   -1.1126    1.9079   -0.1159 H   0  0  0  0  0  0  0  0  0  0  0  0
    0.2873    0.6306    0.9134 C   0  0  0  0  0  0  0  0  0  0  0  0
    0.3494    0.0978    1.8677 H   0  0  0  0  0  0  0  0  0  0  0  0
    1.0077    1.4557    0.9164 H   0  0  0  0  0  0  0  0  0  0  0  0
    0.4939   -0.3283   -0.2447 C   0  0  1  0  0  0  0  0  0  0  0  0
    0.5681    0.4247   -1.0378 H   0  0  0  0  0  0  0  0  0  0  0  0
    1.8780   -0.8842   -0.6429 C   0  0  0  0  0  0  0  0  0  0  0  0
    2.8853   -0.4353   -0.1089 O   0  0  0  0  0  0  0  0  0  0  0  0
    2.0038   -1.7615   -1.7036 N   0  0  0  0  0  0  0  0  0  0  0  0
    1.1551   -2.2794   -1.9217 H   0  0  0  0  0  0  0  0  0  0  0  0
    3.2809   -2.3521   -2.0819 C   0  0  0  0  0  0  0  0  0  0  0  0
    3.7029   -2.9209   -1.2468 H   0  0  0  0  0  0  0  0  0  0  0  0
    3.1465   -3.0288   -2.9310 H   0  0  0  0  0  0  0  0  0  0  0  0
    3.9924   -1.5723   -2.3729 H   0  0  0  0  0  0  0  0  0  0  0  0
  1  2  1  0  0  0  0
  2  3  1  0  0  0  0
  2  4  1  0  0  0  0
  2  5  1  0  0  0  0
  5  6  2  0  0  0  0
  5  7  1  0  0  0  0
  7  8  1  0  0  0  0
  7 17  1  0  0  0  0
  8  9  1  0  0  0  0
  8 10  1  0  0  0  0
  8 11  1  0  0  0  0
 11 12  1  0  0  0  0
 11 13  1  0  0  0  0
 11 14  1  0  0  0  0
 14 15  1  0  0  0  0
 14 16  1  0  0  0  0
 14 17  1  0  0  0  0
 17 18  1  0  0  0  0
 17 19  1  0  0  0  0
 19 20  2  0  0  0  0
 19 21  1  0  0  0  0
 21 22  1  0  0  0  0
 21 23  1  0  0  0  0
 23 24  1  0  0  0  0
 23 25  1  0  0  0  0
 23 26  1  0  0  0  0
M  END
$$$$

  -OEChem-01062216093D

 26 26  0     1  0  0  0  0  0999 V2000
   -2.3040   -3.9009   -0.8950 H   0  0  0  0  0  0  0  0  0  0  0  0
   -2.4354   -2.8471   -0.6334 C   0  0  0  0  0  0  0  0  0  0  0  0
   -3.0709   -2.7845    0.2530 H   0  0  0  0  0  0  0  0  0  0  0  0
   -2.9314   -2.3439   -1.4670 H   0  0  0  0  0  0  0  0  0  0  0  0
   -1.0782   -2.2032   -0.3591 C   0  0  0  0  0  0  0  0  0  0  0  0
   -0.1635   -2.9578   -0.0652 O   0  0  0  0  0  0  0  0  0  0  0  0
   -0.8242   -0.8676   -0.6978 N   0  0  0  0  0  0  0  0  0  0  0  0
   -1.8577   -0.1076    0.0505 C   0  0  0  0  0  0  0  0  0  0  0  0
   -2.2995   -0.6608    0.8898 H   0  0  0  0  0  0  0  0  0  0  0  0
   -2.6680    0.2152   -0.6120 H   0  0  0  0  0  0  0  0  0  0  0  0
   -1.1275    1.0785    0.6238 C   0  0  0  0  0  0  0  0  0  0  0  0
   -1.6078    1.4432    1.5373 H   0  0  0  0  0  0  0  0  0  0  0  0
   -1.1244    1.8941   -0.1075 H   0  0  0  0  0  0  0  0  0  0  0  0
    0.3048    0.6236    0.8893 C   0  0  0  0  0  0  0  0  0  0  0  0
    0.3883    0.0848    1.8387 H   0  0  0  0  0  0  0  0  0  0  0  0
    1.0190    1.4539    0.8842 H   0  0  0  0  0  0  0  0  0  0  0  0
    0.4965   -0.3260   -0.2783 C   0  0  1  0  0  0  0  0  0  0  0  0
    0.5593    0.4353   -1.0643 H   0  0  0  0  0  0  0  0  0  0  0  0
    1.8663   -0.8967   -0.6988 C   0  0  0  0  0  0  0  0  0  0  0  0
    2.8625   -0.6352   -0.0357 O   0  0  0  0  0  0  0  0  0  0  0  0
    2.0090   -1.5277   -1.9212 N   0  0  0  0  0  0  0  0  0  0  0  0
    1.1462   -1.8641   -2.3394 H   0  0  0  0  0  0  0  0  0  0  0  0
    3.2655   -2.1283   -2.3496 C   0  0  0  0  0  0  0  0  0  0  0  0
    3.5761   -2.9071   -1.6454 H   0  0  0  0  0  0  0  0  0  0  0  0
    3.1497   -2.5802   -3.3393 H   0  0  0  0  0  0  0  0  0  0  0  0
    4.0534   -1.3700   -2.4074 H   0  0  0  0  0  0  0  0  0  0  0  0
  1  2  1  0  0  0  0
  2  3  1  0  0  0  0
  2  4  1  0  0  0  0
  2  5  1  0  0  0  0
  5  6  2  0  0  0  0
  5  7  1  0  0  0  0
  7  8  1  0  0  0  0
  7 17  1  0  0  0  0
  8  9  1  0  0  0  0
  8 10  1  0  0  0  0
  8 11  1  0  0  0  0
 11 12  1  0  0  0  0
 11 13  1  0  0  0  0
 11 14  1  0  0  0  0
 14 15  1  0  0  0  0
 14 16  1  0  0  0  0
 14 17  1  0  0  0  0
 17 18  1  0  0  0  0
 17 19  1  0  0  0  0
 19 20  2  0  0  0  0
 19 21  1  0  0  0  0
 21 22  1  0  0  0  0
 21 23  1  0  0  0  0
 23 24  1  0  0  0  0
 23 25  1  0  0  0  0
 23 26  1  0  0  0  0
M  END
$$$$

  -OEChem-01062216093D

 26 26  0     1  0  0  0  0  0999 V2000
   -2.2848   -3.9205   -0.8820 H   0  0  0  0  0  0  0  0  0  0  0  0
   -2.4236   -2.8677   -0.6200 C   0  0  0  0  0  0  0  0  0  0  0  0
   -3.0546   -2.8095    0.2700 H   0  0  0  0  0  0  0  0  0  0  0  0
   -2.9284   -2.3688   -1.4510 H   0  0  0  0  0  0  0  0  0  0  0  0
   -1.0701   -2.2131   -0.3530 C   0  0  0  0  0  0  0  0  0  0  0  0
   -0.1546   -2.9580   -0.0381 O   0  0  0  0  0  0  0  0  0  0  0  0
   -0.8255   -0.8810   -0.7129 N   0  0  0  0  0  0  0  0  0  0  0  0
   -1.8506   -0.1234    0.0505 C   0  0  0  0  0  0  0  0  0  0  0  0
   -2.2827   -0.6760    0.8955 H   0  0  0  0  0  0  0  0  0  0  0  0
   -2.6691    0.1993   -0.6018 H   0  0  0  0  0  0  0  0  0  0  0  0
   -1.1140    1.0628    0.6140 C   0  0  0  0  0  0  0  0  0  0  0  0
   -1.5809    1.4242    1.5357 H   0  0  0  0  0  0  0  0  0  0  0  0
   -1.1255    1.8797   -0.1156 H   0  0  0  0  0  0  0  0  0  0  0  0
    0.3244    0.6126    0.8567 C   0  0  0  0  0  0  0  0  0  0  0  0
    0.4238    0.0717    1.8036 H   0  0  0  0  0  0  0  0  0  0  0  0
    1.0363    1.4446    0.8425 H   0  0  0  0  0  0  0  0  0  0  0  0
    0.4994   -0.3347   -0.3148 C   0  0  1  0  0  0  0  0  0  0  0  0
    0.5521    0.4323   -1.0959 H   0  0  0  0  0  0  0  0  0  0  0  0
    1.8569   -0.9229   -0.7522 C   0  0  0  0  0  0  0  0  0  0  0  0
    2.8211   -0.8479   -0.0008 O   0  0  0  0  0  0  0  0  0  0  0  0
    2.0572   -1.2885   -2.0721 N   0  0  0  0  0  0  0  0  0  0  0  0
    1.2174   -1.4421   -2.6223 H   0  0  0  0  0  0  0  0  0  0  0  0
    3.3166   -1.8406   -2.5545 C   0  0  0  0  0  0  0  0  0  0  0  0
    3.5549   -2.7685   -2.0243 H   0  0  0  0  0  0  0  0  0  0  0  0
    3.2480   -2.0591   -3.6244 H   0  0  0  0  0  0  0  0  0  0  0  0
    4.1330   -1.1270   -2.4008 H   0  0  0  0  0  0  0  0  0  0  0  0
  1  2  1  0  0  0  0
  2  3  1  0  0  0  0
  2  4  1  0  0  0  0
  2  5  1  0  0  0  0
  5  6  2  0  0  0  0
  5  7  1  0  0  0  0
  7  8  1  0  0  0  0
  7 17  1  0  0  0  0
  8  9  1  0  0  0  0
  8 10  1  0  0  0  0
  8 11  1  0  0  0  0
 11 12  1  0  0  0  0
 11 13  1  0  0  0  0
 11 14  1  0  0  0  0
 14 15  1  0  0  0  0
 14 16  1  0  0  0  0
 14 17  1  0  0  0  0
 17 18  1  0  0  0  0
 17 19  1  0  0  0  0
 19 20  2  0  0  0  0
 19 21  1  0  0  0  0
 21 22  1  0  0  0  0
 21 23  1  0  0  0  0
 23 24  1  0  0  0  0
 23 25  1  0  0  0  0
 23 26  1  0  0  0  0
M  END
$$$$

  -OEChem-01062216093D

 26 26  0     1  0  0  0  0  0999 V2000
   -2.2868   -3.9311   -0.8923 H   0  0  0  0  0  0  0  0  0  0  0  0
   -2.4269   -2.8803   -0.6230 C   0  0  0  0  0  0  0  0  0  0  0  0
   -3.0506   -2.8290    0.2725 H   0  0  0  0  0  0  0  0  0  0  0  0
   -2.9401   -2.3781   -1.4468 H   0  0  0  0  0  0  0  0  0  0  0  0
   -1.0731   -2.2231   -0.3642 C   0  0  0  0  0  0  0  0  0  0  0  0
   -0.1578   -2.9651   -0.0439 O   0  0  0  0  0  0  0  0  0  0  0  0
   -0.8335   -0.8919   -0.7315 N   0  0  0  0  0  0  0  0  0  0  0  0
   -1.8430   -0.1398    0.0589 C   0  0  0  0  0  0  0  0  0  0  0  0
   -2.2581   -0.6965    0.9098 H   0  0  0  0  0  0  0  0  0  0  0  0
   -2.6749    0.1867   -0.5744 H   0  0  0  0  0  0  0  0  0  0  0  0
   -1.0957    1.0431    0.6142 C   0  0  0  0  0  0  0  0  0  0  0  0
   -1.5427    1.3977    1.5484 H   0  0  0  0  0  0  0  0  0  0  0  0
   -1.1244    1.8648   -0.1093 H   0  0  0  0  0  0  0  0  0  0  0  0
    0.3485    0.5943    0.8225 C   0  0  0  0  0  0  0  0  0  0  0  0
    0.4696    0.0463    1.7627 H   0  0  0  0  0  0  0  0  0  0  0  0
    1.0588    1.4275    0.7991 H   0  0  0  0  0  0  0  0  0  0  0  0
    0.4985   -0.3446   -0.3589 C   0  0  1  0  0  0  0  0  0  0  0  0
    0.5309    0.4310   -1.1321 H   0  0  0  0  0  0  0  0  0  0  0  0
    1.8475   -0.9378   -0.8209 C   0  0  0  0  0  0  0  0  0  0  0  0
    2.7589   -1.0625   -0.0127 O   0  0  0  0  0  0  0  0  0  0  0  0
    2.1446   -1.0226   -2.1714 N   0  0  0  0  0  0  0  0  0  0  0  0
    1.3553   -0.9854   -2.8093 H   0  0  0  0  0  0  0  0  0  0  0  0
    3.4231   -1.5134   -2.6704 C   0  0  0  0  0  0  0  0  0  0  0  0
    3.5946   -2.5421   -2.3361 H   0  0  0  0  0  0  0  0  0  0  0  0
    3.4330   -1.4973   -3.7643 H   0  0  0  0  0  0  0  0  0  0  0  0
    4.2434   -0.8838   -2.3099 H   0  0  0  0  0  0  0  0  0  0  0  0
  1  2  1  0  0  0  0
  2  3  1  0  0  0  0
  2  4  1  0  0  0  0
  2  5  1  0  0  0  0
  5  6  2  0  0  0  0
  5  7  1  0  0  0  0
  7  8  1  0  0  0  0
  7 17  1  0  0  0  0
  8  9  1  0  0  0  0
  8 10  1  0  0  0  0
  8 11  1  0  0  0  0
 11 12  1  0  0  0  0
 11 13  1  0  0  0  0
 11 14  1  0  0  0  0
 14 15  1  0  0  0  0
 14 16  1  0  0  0  0
 14 17  1  0  0  0  0
 17 18  1  0  0  0  0
 17 19  1  0  0  0  0
 19 20  2  0  0  0  0
 19 21  1  0  0  0  0
 21 22  1  0  0  0  0
 21 23  1  0  0  0  0
 23 24  1  0  0  0  0
 23 25  1  0  0  0  0
 23 26  1  0  0  0  0
M  END
$$$$

  -OEChem-01062216093D

 26 26  0     1  0  0  0  0  0999 V2000
   -2.2921   -3.9352   -0.9140 H   0  0  0  0  0  0  0  0  0  0  0  0
   -2.4320   -2.8874   -0.6338 C   0  0  0  0  0  0  0  0  0  0  0  0
   -3.0472   -2.8456    0.2681 H   0  0  0  0  0  0  0  0  0  0  0  0
   -2.9534   -2.3789   -1.4485 H   0  0  0  0  0  0  0  0  0  0  0  0
   -1.0772   -2.2303   -0.3813 C   0  0  0  0  0  0  0  0  0  0  0  0
   -0.1625   -2.9722   -0.0613 O   0  0  0  0  0  0  0  0  0  0  0  0
   -0.8432   -0.8988   -0.7505 N   0  0  0  0  0  0  0  0  0  0  0  0
   -1.8335   -0.1547    0.0726 C   0  0  0  0  0  0  0  0  0  0  0  0
   -2.2255   -0.7181    0.9305 H   0  0  0  0  0  0  0  0  0  0  0  0
   -2.6830    0.1736   -0.5358 H   0  0  0  0  0  0  0  0  0  0  0  0
   -1.0760    1.0267    0.6169 C   0  0  0  0  0  0  0  0  0  0  0  0
   -1.4992    1.3718    1.5657 H   0  0  0  0  0  0  0  0  0  0  0  0
   -1.1267    1.8541   -0.0991 H   0  0  0  0  0  0  0  0  0  0  0  0
    0.3743    0.5806    0.7836 C   0  0  0  0  0  0  0  0  0  0  0  0
    0.5213    0.0260    1.7164 H   0  0  0  0  0  0  0  0  0  0  0  0
    1.0813    1.4159    0.7479 H   0  0  0  0  0  0  0  0  0  0  0  0
    0.4960   -0.3491   -0.4076 C   0  0  1  0  0  0  0  0  0  0  0  0
    0.4993    0.4328   -1.1745 H   0  0  0  0  0  0  0  0  0  0  0  0
    1.8404   -0.9364   -0.8983 C   0  0  0  0  0  0  0  0  0  0  0  0
    2.6798   -1.2747   -0.0739 O   0  0  0  0  0  0  0  0  0  0  0  0
    2.2590   -0.7492   -2.2071 N   0  0  0  0  0  0  0  0  0  0  0  0
    1.5435   -0.5055   -2.8851 H   0  0  0  0  0  0  0  0  0  0  0  0
    3.5639   -1.1825   -2.6926 C   0  0  0  0  0  0  0  0  0  0  0  0
    3.6782   -2.2645   -2.5684 H   0  0  0  0  0  0  0  0  0  0  0  0
    3.6717   -0.9414   -3.7544 H   0  0  0  0  0  0  0  0  0  0  0  0
    4.3652   -0.6778   -2.1425 H   0  0  0  0  0  0  0  0  0  0  0  0
  1  2  1  0  0  0  0
  2  3  1  0  0  0  0
  2  4  1  0  0  0  0
  2  5  1  0  0  0  0
  5  6  2  0  0  0  0
  5  7  1  0  0  0  0
  7  8  1  0  0  0  0
  7 17  1  0  0  0  0
  8  9  1  0  0  0  0
  8 10  1  0  0  0  0
  8 11  1  0  0  0  0
 11 12  1  0  0  0  0
 11 13  1  0  0  0  0
 11 14  1  0  0  0  0
 14 15  1  0  0  0  0
 14 16  1  0  0  0  0
 14 17  1  0  0  0  0
 17 18  1  0  0  0  0
 17 19  1  0  0  0  0
 19 20  2  0  0  0  0
 19 21  1  0  0  0  0
 21 22  1  0  0  0  0
 21 23  1  0  0  0  0
 23 24  1  0  0  0  0
 23 25  1  0  0  0  0
 23 26  1  0  0  0  0
M  END
$$$$

  -OEChem-01062216093D

 26 26  0     1  0  0  0  0  0999 V2000
   -2.3050   -3.9336   -0.9489 H   0  0  0  0  0  0  0  0  0  0  0  0
   -2.4398   -2.8872   -0.6610 C   0  0  0  0  0  0  0  0  0  0  0  0
   -3.0535   -2.8483    0.2420 H   0  0  0  0  0  0  0  0  0  0  0  0
   -2.9602   -2.3705   -1.4713 H   0  0  0  0  0  0  0  0  0  0  0  0
   -1.0817   -2.2382   -0.4063 C   0  0  0  0  0  0  0  0  0  0  0  0
   -0.1737   -2.9834   -0.0791 O   0  0  0  0  0  0  0  0  0  0  0  0
   -0.8470   -0.9048   -0.7667 N   0  0  0  0  0  0  0  0  0  0  0  0
   -1.8204   -0.1681    0.0831 C   0  0  0  0  0  0  0  0  0  0  0  0
   -2.1931   -0.7382    0.9453 H   0  0  0  0  0  0  0  0  0  0  0  0
   -2.6833    0.1630   -0.5047 H   0  0  0  0  0  0  0  0  0  0  0  0
   -1.0540    1.0109    0.6192 C   0  0  0  0  0  0  0  0  0  0  0  0
   -1.4576    1.3483    1.5792 H   0  0  0  0  0  0  0  0  0  0  0  0
   -1.1222    1.8433   -0.0894 H   0  0  0  0  0  0  0  0  0  0  0  0
    0.4004    0.5668    0.7509 C   0  0  0  0  0  0  0  0  0  0  0  0
    0.5690    0.0056    1.6763 H   0  0  0  0  0  0  0  0  0  0  0  0
    1.1039    1.4045    0.7056 H   0  0  0  0  0  0  0  0  0  0  0  0
    0.4987   -0.3541   -0.4491 C   0  0  1  0  0  0  0  0  0  0  0  0
    0.4713    0.4302   -1.2124 H   0  0  0  0  0  0  0  0  0  0  0  0
    1.8429   -0.9253   -0.9666 C   0  0  0  0  0  0  0  0  0  0  0  0
    2.5977   -1.4840   -0.1822 O   0  0  0  0  0  0  0  0  0  0  0  0
    2.3915   -0.4805   -2.1616 N   0  0  0  0  0  0  0  0  0  0  0  0
    1.7642   -0.0228   -2.8154 H   0  0  0  0  0  0  0  0  0  0  0  0
    3.7227   -0.8608   -2.6206 C   0  0  0  0  0  0  0  0  0  0  0  0
    3.7967   -1.9487   -2.7211 H   0  0  0  0  0  0  0  0  0  0  0  0
    3.9305   -0.4074   -3.5945 H   0  0  0  0  0  0  0  0  0  0  0  0
    4.4851   -0.5194   -1.9124 H   0  0  0  0  0  0  0  0  0  0  0  0
  1  2  1  0  0  0  0
  2  3  1  0  0  0  0
  2  4  1  0  0  0  0
  2  5  1  0  0  0  0
  5  6  2  0  0  0  0
  5  7  1  0  0  0  0
  7  8  1  0  0  0  0
  7 17  1  0  0  0  0
  8  9  1  0  0  0  0
  8 10  1  0  0  0  0
  8 11  1  0  0  0  0
 11 12  1  0  0  0  0
 11 13  1  0  0  0  0
 11 14  1  0  0  0  0
 14 15  1  0  0  0  0
 14 16  1  0  0  0  0
 14 17  1  0  0  0  0
 17 18  1  0  0  0  0
 17 19  1  0  0  0  0
 19 20  2  0  0  0  0
 19 21  1  0  0  0  0
 21 22  1  0  0  0  0
 21 23  1  0  0  0  0
 23 24  1  0  0  0  0
 23 25  1  0  0  0  0
 23 26  1  0  0  0  0
M  END
$$$$

  -OEChem-01062216093D

 26 26  0     1  0  0  0  0  0999 V2000
   -1.8060   -4.0382   -0.6993 H   0  0  0  0  0  0  0  0  0  0  0  0
   -1.6954   -3.0617   -1.1790 C   0  0  0  0  0  0  0  0  0  0  0  0
   -2.6764   -2.7199   -1.5167 H   0  0  0  0  0  0  0  0  0  0  0  0
   -1.0356   -3.1664   -2.0437 H   0  0  0  0  0  0  0  0  0  0  0  0
   -1.1045   -2.0600   -0.2037 C   0  0  0  0  0  0  0  0  0  0  0  0
   -0.7481   -2.4547    0.9019 O   0  0  0  0  0  0  0  0  0  0  0  0
   -0.9762   -0.7278   -0.6110 N   0  0  0  0  0  0  0  0  0  0  0  0
   -1.8682    0.0059    0.3309 C   0  0  0  0  0  0  0  0  0  0  0  0
   -2.2463   -0.5785    1.1802 H   0  0  0  0  0  0  0  0  0  0  0  0
   -2.7409    0.3966   -0.2026 H   0  0  0  0  0  0  0  0  0  0  0  0
   -1.0256    1.1370    0.8561 C   0  0  0  0  0  0  0  0  0  0  0  0
   -1.3506    1.4437    1.8553 H   0  0  0  0  0  0  0  0  0  0  0  0
   -1.1177    2.0005    0.1888 H   0  0  0  0  0  0  0  0  0  0  0  0
    0.4200    0.6478    0.8690 C   0  0  0  0  0  0  0  0  0  0  0  0
    0.6298    0.0441    1.7587 H   0  0  0  0  0  0  0  0  0  0  0  0
    1.1452    1.4654    0.8076 H   0  0  0  0  0  0  0  0  0  0  0  0
    0.3994   -0.2271   -0.3687 C   0  0  1  0  0  0  0  0  0  0  0  0
    0.3569    0.5808   -1.1064 H   0  0  0  0  0  0  0  0  0  0  0  0
    1.6584   -0.8754   -0.9940 C   0  0  0  0  0  0  0  0  0  0  0  0
    2.0837   -1.9416   -0.5762 O   0  0  0  0  0  0  0  0  0  0  0  0
    2.3279   -0.2752   -2.0499 N   0  0  0  0  0  0  0  0  0  0  0  0
    1.9536    0.5957   -2.4136 H   0  0  0  0  0  0  0  0  0  0  0  0
    3.5012   -0.8585   -2.6903 C   0  0  0  0  0  0  0  0  0  0  0  0
    3.2640   -1.8468   -3.0983 H   0  0  0  0  0  0  0  0  0  0  0  0
    3.8417   -0.2192   -3.5105 H   0  0  0  0  0  0  0  0  0  0  0  0
    4.3193   -0.9617   -1.9695 H   0  0  0  0  0  0  0  0  0  0  0  0
  1  2  1  0  0  0  0
  2  3  1  0  0  0  0
  2  4  1  0  0  0  0
  2  5  1  0  0  0  0
  5  6  2  0  0  0  0
  5  7  1  0  0  0  0
  7  8  1  0  0  0  0
  7 17  1  0  0  0  0
  8  9  1  0  0  0  0
  8 10  1  0  0  0  0
  8 11  1  0  0  0  0
 11 12  1  0  0  0  0
 11 13  1  0  0  0  0
 11 14  1  0  0  0  0
 14 15  1  0  0  0  0
 14 16  1  0  0  0  0
 14 17  1  0  0  0  0
 17 18  1  0  0  0  0
 17 19  1  0  0  0  0
 19 20  2  0  0  0  0
 19 21  1  0  0  0  0
 21 22  1  0  0  0  0
 21 23  1  0  0  0  0
 23 24  1  0  0  0  0
 23 25  1  0  0  0  0
 23 26  1  0  0  0  0
M  END
$$$$

  -OEChem-01062216093D

 26 26  0     1  0  0  0  0  0999 V2000
   -1.7305   -4.0410   -0.6973 H   0  0  0  0  0  0  0  0  0  0  0  0
   -1.4977   -3.0945   -1.1925 C   0  0  0  0  0  0  0  0  0  0  0  0
   -2.3721   -2.7667   -1.7590 H   0  0  0  0  0  0  0  0  0  0  0  0
   -0.6638   -3.2512   -1.8813 H   0  0  0  0  0  0  0  0  0  0  0  0
   -1.1182   -2.0431   -0.1652 C   0  0  0  0  0  0  0  0  0  0  0  0
   -0.8469   -2.4079    0.9758 O   0  0  0  0  0  0  0  0  0  0  0  0
   -1.0133   -0.7105   -0.5806 N   0  0  0  0  0  0  0  0  0  0  0  0
   -1.8930    0.0467    0.3534 C   0  0  0  0  0  0  0  0  0  0  0  0
   -2.2713   -0.5185    1.2146 H   0  0  0  0  0  0  0  0  0  0  0  0
   -2.7662    0.4337   -0.1820 H   0  0  0  0  0  0  0  0  0  0  0  0
   -1.0377    1.1823    0.8482 C   0  0  0  0  0  0  0  0  0  0  0  0
   -1.3519    1.5105    1.8440 H   0  0  0  0  0  0  0  0  0  0  0  0
   -1.1302    2.0330    0.1647 H   0  0  0  0  0  0  0  0  0  0  0  0
    0.4047    0.6832    0.8573 C   0  0  0  0  0  0  0  0  0  0  0  0
    0.6182    0.0974    1.7579 H   0  0  0  0  0  0  0  0  0  0  0  0
    1.1332    1.4958    0.7726 H   0  0  0  0  0  0  0  0  0  0  0  0
    0.3685   -0.2166   -0.3627 C   0  0  1  0  0  0  0  0  0  0  0  0
    0.3109    0.5719   -1.1205 H   0  0  0  0  0  0  0  0  0  0  0  0
    1.6280   -0.8531   -1.0003 C   0  0  0  0  0  0  0  0  0  0  0  0
    1.8553   -2.0482   -0.8796 O   0  0  0  0  0  0  0  0  0  0  0  0
    2.4551   -0.1150   -1.8336 N   0  0  0  0  0  0  0  0  0  0  0  0
    2.2348    0.8666   -1.9701 H   0  0  0  0  0  0  0  0  0  0  0  0
    3.6016   -0.6815   -2.5349 C   0  0  0  0  0  0  0  0  0  0  0  0
    3.2791   -1.4715   -3.2213 H   0  0  0  0  0  0  0  0  0  0  0  0
    4.1104    0.0939   -3.1153 H   0  0  0  0  0  0  0  0  0  0  0  0
    4.3173   -1.1044   -1.8219 H   0  0  0  0  0  0  0  0  0  0  0  0
  1  2  1  0  0  0  0
  2  3  1  0  0  0  0
  2  4  1  0  0  0  0
  2  5  1  0  0  0  0
  5  6  2  0  0  0  0
  5  7  1  0  0  0  0
  7  8  1  0  0  0  0
  7 17  1  0  0  0  0
  8  9  1  0  0  0  0
  8 10  1  0  0  0  0
  8 11  1  0  0  0  0
 11 12  1  0  0  0  0
 11 13  1  0  0  0  0
 11 14  1  0  0  0  0
 14 15  1  0  0  0  0
 14 16  1  0  0  0  0
 14 17  1  0  0  0  0
 17 18  1  0  0  0  0
 17 19  1  0  0  0  0
 19 20  2  0  0  0  0
 19 21  1  0  0  0  0
 21 22  1  0  0  0  0
 21 23  1  0  0  0  0
 23 24  1  0  0  0  0
 23 25  1  0  0  0  0
 23 26  1  0  0  0  0
M  END
$$$$

  -OEChem-01062216093D

 26 26  0     1  0  0  0  0  0999 V2000
   -0.9127   -3.1653   -2.0141 H   0  0  0  0  0  0  0  0  0  0  0  0
   -1.6312   -3.0513   -1.1984 C   0  0  0  0  0  0  0  0  0  0  0  0
   -1.7562   -4.0169   -0.7009 H   0  0  0  0  0  0  0  0  0  0  0  0
   -2.5925   -2.7364   -1.6102 H   0  0  0  0  0  0  0  0  0  0  0  0
   -1.1217   -2.0137   -0.2145 C   0  0  0  0  0  0  0  0  0  0  0  0
   -0.8112   -2.3717    0.9190 O   0  0  0  0  0  0  0  0  0  0  0  0
   -0.9799   -0.6908   -0.6464 N   0  0  0  0  0  0  0  0  0  0  0  0
   -1.8901    0.0826    0.2419 C   0  0  0  0  0  0  0  0  0  0  0  0
   -2.2942   -0.4721    1.0987 H   0  0  0  0  0  0  0  0  0  0  0  0
   -2.7449    0.4609   -0.3283 H   0  0  0  0  0  0  0  0  0  0  0  0
   -1.0515    1.2255    0.7506 C   0  0  0  0  0  0  0  0  0  0  0  0
   -1.4031    1.5730    1.7271 H   0  0  0  0  0  0  0  0  0  0  0  0
   -1.1130    2.0638    0.0483 H   0  0  0  0  0  0  0  0  0  0  0  0
    0.3860    0.7197    0.8249 C   0  0  0  0  0  0  0  0  0  0  0  0
    0.5602    0.1482    1.7430 H   0  0  0  0  0  0  0  0  0  0  0  0
    1.1209    1.5279    0.7567 H   0  0  0  0  0  0  0  0  0  0  0  0
    0.3948   -0.2010   -0.3810 C   0  0  1  0  0  0  0  0  0  0  0  0
    0.3791    0.5697   -1.1594 H   0  0  0  0  0  0  0  0  0  0  0  0
    1.6768   -0.8533   -0.9524 C   0  0  0  0  0  0  0  0  0  0  0  0
    1.7607   -2.0650   -1.0979 O   0  0  0  0  0  0  0  0  0  0  0  0
    2.6807   -0.0638   -1.4912 N   0  0  0  0  0  0  0  0  0  0  0  0
    2.5850    0.9436   -1.4103 H   0  0  0  0  0  0  0  0  0  0  0  0
    3.8686   -0.6076   -2.1392 C   0  0  0  0  0  0  0  0  0  0  0  0
    3.5908   -1.1810   -3.0299 H   0  0  0  0  0  0  0  0  0  0  0  0
    4.5374    0.2029   -2.4444 H   0  0  0  0  0  0  0  0  0  0  0  0
    4.4131   -1.2644   -1.4526 H   0  0  0  0  0  0  0  0  0  0  0  0
  1  2  1  0  0  0  0
  2  3  1  0  0  0  0
  2  4  1  0  0  0  0
  2  5  1  0  0  0  0
  5  6  2  0  0  0  0
  5  7  1  0  0  0  0
  7  8  1  0  0  0  0
  7 17  1  0  0  0  0
  8  9  1  0  0  0  0
  8 10  1  0  0  0  0
  8 11  1  0  0  0  0
 11 12  1  0  0  0  0
 11 13  1  0  0  0  0
 11 14  1  0  0  0  0
 14 15  1  0  0  0  0
 14 16  1  0  0  0  0
 14 17  1  0  0  0  0
 17 18  1  0  0  0  0
 17 19  1  0  0  0  0
 19 20  2  0  0  0  0
 19 21  1  0  0  0  0
 21 22  1  0  0  0  0
 21 23  1  0  0  0  0
 23 24  1  0  0  0  0
 23 25  1  0  0  0  0
 23 26  1  0  0  0  0
M  END
$$$$

  -OEChem-01062216093D

 26 26  0     1  0  0  0  0  0999 V2000
   -1.1925   -3.8235   -1.4933 H   0  0  0  0  0  0  0  0  0  0  0  0
   -1.8380   -3.0272   -1.1141 C   0  0  0  0  0  0  0  0  0  0  0  0
   -2.6292   -3.4654   -0.5010 H   0  0  0  0  0  0  0  0  0  0  0  0
   -2.2921   -2.5091   -1.9622 H   0  0  0  0  0  0  0  0  0  0  0  0
   -1.0147   -2.0593   -0.2840 C   0  0  0  0  0  0  0  0  0  0  0  0
   -0.5289   -2.4561    0.7718 O   0  0  0  0  0  0  0  0  0  0  0  0
   -0.8998   -0.7276   -0.6936 N   0  0  0  0  0  0  0  0  0  0  0  0
   -1.8517   -0.0204    0.2028 C   0  0  0  0  0  0  0  0  0  0  0  0
   -2.2227   -0.6155    1.0487 H   0  0  0  0  0  0  0  0  0  0  0  0
   -2.7242    0.3245   -0.3617 H   0  0  0  0  0  0  0  0  0  0  0  0
   -1.0730    1.1510    0.7414 C   0  0  0  0  0  0  0  0  0  0  0  0
   -1.4481    1.4618    1.7216 H   0  0  0  0  0  0  0  0  0  0  0  0
   -1.1694    1.9991    0.0551 H   0  0  0  0  0  0  0  0  0  0  0  0
    0.3866    0.7122    0.8164 C   0  0  0  0  0  0  0  0  0  0  0  0
    0.5811    0.1298    1.7234 H   0  0  0  0  0  0  0  0  0  0  0  0
    1.0813    1.5566    0.7724 H   0  0  0  0  0  0  0  0  0  0  0  0
    0.4496   -0.1815   -0.4089 C   0  0  1  0  0  0  0  0  0  0  0  0
    0.4200    0.6021   -1.1740 H   0  0  0  0  0  0  0  0  0  0  0  0
    1.7592   -0.7778   -0.9759 C   0  0  0  0  0  0  0  0  0  0  0  0
    1.7984   -1.9175   -1.4212 O   0  0  0  0  0  0  0  0  0  0  0  0
    2.8469    0.0490   -1.2067 N   0  0  0  0  0  0  0  0  0  0  0  0
    2.7951    1.0024   -0.8625 H   0  0  0  0  0  0  0  0  0  0  0  0
    4.0793   -0.4032   -1.8420 C   0  0  0  0  0  0  0  0  0  0  0  0
    3.8817   -0.7418   -2.8645 H   0  0  0  0  0  0  0  0  0  0  0  0
    4.8054    0.4143   -1.8835 H   0  0  0  0  0  0  0  0  0  0  0  0
    4.5217   -1.2298   -1.2759 H   0  0  0  0  0  0  0  0  0  0  0  0
  1  2  1  0  0  0  0
  2  3  1  0  0  0  0
  2  4  1  0  0  0  0
  2  5  1  0  0  0  0
  5  6  2  0  0  0  0
  5  7  1  0  0  0  0
  7  8  1  0  0  0  0
  7 17  1  0  0  0  0
  8  9  1  0  0  0  0
  8 10  1  0  0  0  0
  8 11  1  0  0  0  0
 11 12  1  0  0  0  0
 11 13  1  0  0  0  0
 11 14  1  0  0  0  0
 14 15  1  0  0  0  0
 14 16  1  0  0  0  0
 14 17  1  0  0  0  0
 17 18  1  0  0  0  0
 17 19  1  0  0  0  0
 19 20  2  0  0  0  0
 19 21  1  0  0  0  0
 21 22  1  0  0  0  0
 21 23  1  0  0  0  0
 23 24  1  0  0  0  0
 23 25  1  0  0  0  0
 23 26  1  0  0  0  0
M  END
$$$$

  -OEChem-01062216093D

 26 26  0     1  0  0  0  0  0999 V2000
   -1.8650   -3.9917   -0.6749 H   0  0  0  0  0  0  0  0  0  0  0  0
   -1.8395   -3.0005   -1.1356 C   0  0  0  0  0  0  0  0  0  0  0  0
   -2.8580   -2.6107   -1.1960 H   0  0  0  0  0  0  0  0  0  0  0  0
   -1.4316   -3.0911   -2.1455 H   0  0  0  0  0  0  0  0  0  0  0  0
   -0.9683   -2.0620   -0.3190 C   0  0  0  0  0  0  0  0  0  0  0  0
   -0.4021   -2.4926    0.6824 O   0  0  0  0  0  0  0  0  0  0  0  0
   -0.8850   -0.7171   -0.6891 N   0  0  0  0  0  0  0  0  0  0  0  0
   -1.8444   -0.0633    0.2382 C   0  0  0  0  0  0  0  0  0  0  0  0
   -2.1888   -0.6944    1.0696 H   0  0  0  0  0  0  0  0  0  0  0  0
   -2.7317    0.2762   -0.3062 H   0  0  0  0  0  0  0  0  0  0  0  0
   -1.0894    1.1102    0.8053 C   0  0  0  0  0  0  0  0  0  0  0  0
   -1.4617    1.3824    1.7980 H   0  0  0  0  0  0  0  0  0  0  0  0
   -1.2137    1.9755    0.1455 H   0  0  0  0  0  0  0  0  0  0  0  0
    0.3814    0.7073    0.8524 C   0  0  0  0  0  0  0  0  0  0  0  0
    0.6008    0.1030    1.7393 H   0  0  0  0  0  0  0  0  0  0  0  0
    1.0525    1.5713    0.8272 H   0  0  0  0  0  0  0  0  0  0  0  0
    0.4533   -0.1462   -0.4014 C   0  0  1  0  0  0  0  0  0  0  0  0
    0.4072    0.6615   -1.1405 H   0  0  0  0  0  0  0  0  0  0  0  0
    1.7632   -0.7025   -1.0028 C   0  0  0  0  0  0  0  0  0  0  0  0
    1.7616   -1.7123   -1.6957 O   0  0  0  0  0  0  0  0  0  0  0  0
    2.9225    0.0528   -0.9424 N   0  0  0  0  0  0  0  0  0  0  0  0
    2.9096    0.8890   -0.3673 H   0  0  0  0  0  0  0  0  0  0  0  0
    4.1784   -0.3581   -1.5590 C   0  0  0  0  0  0  0  0  0  0  0  0
    4.0572   -0.4631   -2.6423 H   0  0  0  0  0  0  0  0  0  0  0  0
    4.9549    0.3893   -1.3700 H   0  0  0  0  0  0  0  0  0  0  0  0
    4.5121   -1.3162   -1.1468 H   0  0  0  0  0  0  0  0  0  0  0  0
  1  2  1  0  0  0  0
  2  3  1  0  0  0  0
  2  4  1  0  0  0  0
  2  5  1  0  0  0  0
  5  6  2  0  0  0  0
  5  7  1  0  0  0  0
  7  8  1  0  0  0  0
  7 17  1  0  0  0  0
  8  9  1  0  0  0  0
  8 10  1  0  0  0  0
  8 11  1  0  0  0  0
 11 12  1  0  0  0  0
 11 13  1  0  0  0  0
 11 14  1  0  0  0  0
 14 15  1  0  0  0  0
 14 16  1  0  0  0  0
 14 17  1  0  0  0  0
 17 18  1  0  0  0  0
 17 19  1  0  0  0  0
 19 20  2  0  0  0  0
 19 21  1  0  0  0  0
 21 22  1  0  0  0  0
 21 23  1  0  0  0  0
 23 24  1  0  0  0  0
 23 25  1  0  0  0  0
 23 26  1  0  0  0  0
M  END
$$$$
