default_name
  -OEChem-02102213163D

 23 22  0     1  0  0  0  0  0999 V2000
   -2.6857   -3.6684    0.8743 H   0  0  0  0  0  0  0  0  0  0  0  0
   -2.6617   -2.6474    0.4953 C   0  0  0  0  0  0  0  0  0  0  0  0
   -3.2657   -2.0054    1.1353 H   0  0  0  0  0  0  0  0  0  0  0  0
   -3.0477   -2.6254   -0.5217 H   0  0  0  0  0  0  0  0  0  0  0  0
   -1.2337   -2.1564    0.4993 C   0  0  0  0  0  0  0  0  0  0  0  0
   -0.3327   -2.8864    0.8893 O   0  0  0  0  0  0  0  0  0  0  0  0
   -1.0277   -0.9164    0.0623 N   0  0  0  0  0  0  0  0  0  0  0  0
   -1.8237   -0.3604   -0.2157 H   0  0  0  0  0  0  0  0  0  0  0  0
    0.2713   -0.2414    0.0463 C   0  0  1  0  0  0  0  0  0  0  0  0
    0.9550   -0.7800    0.7055 H   0  0  0  0  0  0  0  0  0  0  0  0
    0.8321   -0.2955   -1.3843 C   0  0  0  0  0  0  0  0  0  0  0  0
    0.9517   -1.3410   -1.6773 H   0  0  0  0  0  0  0  0  0  0  0  0
    0.1291    0.1830   -2.0692 H   0  0  0  0  0  0  0  0  0  0  0  0
    2.4499    0.5250   -1.4875 S   0  0  0  0  0  0  0  0  0  0  0  0
    2.7121    0.2140   -2.7627 H   0  0  0  0  0  0  0  0  0  0  0  0
    0.1277    1.1982    0.5808 C   0  0  0  0  0  0  0  0  0  0  0  0
   -0.8089    1.9029    0.2029 O   0  0  0  0  0  0  0  0  0  0  0  0
    1.0407    1.6321    1.4575 N   0  0  0  0  0  0  0  0  0  0  0  0
    1.8120    1.0149    1.6665 H   0  0  0  0  0  0  0  0  0  0  0  0
    1.0383    2.9638    2.0601 C   0  0  0  0  0  0  0  0  0  0  0  0
    0.0490    3.1832    2.4681 H   0  0  0  0  0  0  0  0  0  0  0  0
    1.7769    3.0168    2.8608 H   0  0  0  0  0  0  0  0  0  0  0  0
    1.2752    3.7104    1.3002 H   0  0  0  0  0  0  0  0  0  0  0  0
  5  6  2  0  0  0  0
  5  7  1  0  0  0  0
  2  3  1  0  0  0  0
  2  4  1  0  0  0  0
  2  5  1  0  0  0  0
  1  2  1  0  0  0  0
 16 17  2  0  0  0  0
 16 18  1  0  0  0  0
 14 15  1  0  0  0  0
 11 12  1  0  0  0  0
 11 13  1  0  0  0  0
 11 14  1  0  0  0  0
  9 10  1  0  0  0  0
  9 11  1  0  0  0  0
  9 16  1  0  0  0  0
  7  8  1  0  0  0  0
  7  9  1  0  0  0  0
 20 21  1  0  0  0  0
 20 22  1  0  0  0  0
 20 23  1  0  0  0  0
 18 19  1  0  0  0  0
 18 20  1  0  0  0  0
M  END
$$$$
default_name
  -OEChem-02102213163D

 23 22  0     1  0  0  0  0  0999 V2000
   -2.6857   -3.6684    0.8743 H   0  0  0  0  0  0  0  0  0  0  0  0
   -2.6617   -2.6474    0.4953 C   0  0  0  0  0  0  0  0  0  0  0  0
   -3.2657   -2.0054    1.1353 H   0  0  0  0  0  0  0  0  0  0  0  0
   -3.0477   -2.6254   -0.5217 H   0  0  0  0  0  0  0  0  0  0  0  0
   -1.2337   -2.1564    0.4993 C   0  0  0  0  0  0  0  0  0  0  0  0
   -0.3327   -2.8864    0.8893 O   0  0  0  0  0  0  0  0  0  0  0  0
   -1.0277   -0.9164    0.0623 N   0  0  0  0  0  0  0  0  0  0  0  0
   -1.8237   -0.3604   -0.2157 H   0  0  0  0  0  0  0  0  0  0  0  0
    0.2713   -0.2414    0.0463 C   0  0  1  0  0  0  0  0  0  0  0  0
    0.9550   -0.7800    0.7055 H   0  0  0  0  0  0  0  0  0  0  0  0
    0.8321   -0.2955   -1.3843 C   0  0  0  0  0  0  0  0  0  0  0  0
    0.7029   -1.3069   -1.7761 H   0  0  0  0  0  0  0  0  0  0  0  0
    0.2791    0.4002   -2.0186 H   0  0  0  0  0  0  0  0  0  0  0  0
    2.6015    0.1163   -1.4126 S   0  0  0  0  0  0  0  0  0  0  0  0
    2.8076   -0.1283   -2.7123 H   0  0  0  0  0  0  0  0  0  0  0  0
    0.1277    1.1982    0.5808 C   0  0  0  0  0  0  0  0  0  0  0  0
   -0.8089    1.9029    0.2029 O   0  0  0  0  0  0  0  0  0  0  0  0
    1.0407    1.6321    1.4575 N   0  0  0  0  0  0  0  0  0  0  0  0
    1.8120    1.0149    1.6665 H   0  0  0  0  0  0  0  0  0  0  0  0
    1.0383    2.9638    2.0601 C   0  0  0  0  0  0  0  0  0  0  0  0
    0.0490    3.1832    2.4681 H   0  0  0  0  0  0  0  0  0  0  0  0
    1.7769    3.0168    2.8608 H   0  0  0  0  0  0  0  0  0  0  0  0
    1.2752    3.7104    1.3002 H   0  0  0  0  0  0  0  0  0  0  0  0
  5  6  2  0  0  0  0
  5  7  1  0  0  0  0
  2  3  1  0  0  0  0
  2  4  1  0  0  0  0
  2  5  1  0  0  0  0
  1  2  1  0  0  0  0
 16 17  2  0  0  0  0
 16 18  1  0  0  0  0
 14 15  1  0  0  0  0
 11 12  1  0  0  0  0
 11 13  1  0  0  0  0
 11 14  1  0  0  0  0
  9 10  1  0  0  0  0
  9 11  1  0  0  0  0
  9 16  1  0  0  0  0
  7  8  1  0  0  0  0
  7  9  1  0  0  0  0
 20 21  1  0  0  0  0
 20 22  1  0  0  0  0
 20 23  1  0  0  0  0
 18 19  1  0  0  0  0
 18 20  1  0  0  0  0
M  END
$$$$
default_name
  -OEChem-02102213163D

 23 22  0     1  0  0  0  0  0999 V2000
   -2.6857   -3.6684    0.8743 H   0  0  0  0  0  0  0  0  0  0  0  0
   -2.6617   -2.6474    0.4953 C   0  0  0  0  0  0  0  0  0  0  0  0
   -3.2657   -2.0054    1.1353 H   0  0  0  0  0  0  0  0  0  0  0  0
   -3.0477   -2.6254   -0.5217 H   0  0  0  0  0  0  0  0  0  0  0  0
   -1.2337   -2.1564    0.4993 C   0  0  0  0  0  0  0  0  0  0  0  0
   -0.3327   -2.8864    0.8893 O   0  0  0  0  0  0  0  0  0  0  0  0
   -1.0277   -0.9164    0.0623 N   0  0  0  0  0  0  0  0  0  0  0  0
   -1.8237   -0.3604   -0.2157 H   0  0  0  0  0  0  0  0  0  0  0  0
    0.2713   -0.2414    0.0463 C   0  0  1  0  0  0  0  0  0  0  0  0
    0.9550   -0.7800    0.7055 H   0  0  0  0  0  0  0  0  0  0  0  0
    0.8321   -0.2955   -1.3843 C   0  0  0  0  0  0  0  0  0  0  0  0
    0.4717   -1.2048   -1.8706 H   0  0  0  0  0  0  0  0  0  0  0  0
    0.4757    0.5691   -1.9479 H   0  0  0  0  0  0  0  0  0  0  0  0
    2.6488   -0.3219   -1.3775 S   0  0  0  0  0  0  0  0  0  0  0  0
    2.8169   -0.4867   -2.6951 H   0  0  0  0  0  0  0  0  0  0  0  0
    0.1277    1.1982    0.5808 C   0  0  0  0  0  0  0  0  0  0  0  0
   -0.8089    1.9029    0.2029 O   0  0  0  0  0  0  0  0  0  0  0  0
    1.0407    1.6321    1.4575 N   0  0  0  0  0  0  0  0  0  0  0  0
    1.8120    1.0149    1.6665 H   0  0  0  0  0  0  0  0  0  0  0  0
    1.0383    2.9638    2.0601 C   0  0  0  0  0  0  0  0  0  0  0  0
    0.0490    3.1832    2.4681 H   0  0  0  0  0  0  0  0  0  0  0  0
    1.7769    3.0168    2.8608 H   0  0  0  0  0  0  0  0  0  0  0  0
    1.2752    3.7104    1.3002 H   0  0  0  0  0  0  0  0  0  0  0  0
  5  6  2  0  0  0  0
  5  7  1  0  0  0  0
  2  3  1  0  0  0  0
  2  4  1  0  0  0  0
  2  5  1  0  0  0  0
  1  2  1  0  0  0  0
 16 17  2  0  0  0  0
 16 18  1  0  0  0  0
 14 15  1  0  0  0  0
 11 12  1  0  0  0  0
 11 13  1  0  0  0  0
 11 14  1  0  0  0  0
  9 10  1  0  0  0  0
  9 11  1  0  0  0  0
  9 16  1  0  0  0  0
  7  8  1  0  0  0  0
  7  9  1  0  0  0  0
 20 21  1  0  0  0  0
 20 22  1  0  0  0  0
 20 23  1  0  0  0  0
 18 19  1  0  0  0  0
 18 20  1  0  0  0  0
M  END
$$$$
default_name
  -OEChem-02102213163D

 23 22  0     1  0  0  0  0  0999 V2000
   -2.6857   -3.6684    0.8743 H   0  0  0  0  0  0  0  0  0  0  0  0
   -2.6617   -2.6474    0.4953 C   0  0  0  0  0  0  0  0  0  0  0  0
   -3.2657   -2.0054    1.1353 H   0  0  0  0  0  0  0  0  0  0  0  0
   -3.0477   -2.6254   -0.5217 H   0  0  0  0  0  0  0  0  0  0  0  0
   -1.2337   -2.1564    0.4993 C   0  0  0  0  0  0  0  0  0  0  0  0
   -0.3327   -2.8864    0.8893 O   0  0  0  0  0  0  0  0  0  0  0  0
   -1.0277   -0.9164    0.0623 N   0  0  0  0  0  0  0  0  0  0  0  0
   -1.8237   -0.3604   -0.2157 H   0  0  0  0  0  0  0  0  0  0  0  0
    0.2713   -0.2414    0.0463 C   0  0  1  0  0  0  0  0  0  0  0  0
    0.9550   -0.7800    0.7055 H   0  0  0  0  0  0  0  0  0  0  0  0
    0.8321   -0.2955   -1.3843 C   0  0  0  0  0  0  0  0  0  0  0  0
    0.2738   -1.0416   -1.9543 H   0  0  0  0  0  0  0  0  0  0  0  0
    0.7058    0.6782   -1.8619 H   0  0  0  0  0  0  0  0  0  0  0  0
    2.5887   -0.7600   -1.3845 S   0  0  0  0  0  0  0  0  0  0  0  0
    2.7393   -0.8368   -2.7123 H   0  0  0  0  0  0  0  0  0  0  0  0
    0.1277    1.1982    0.5808 C   0  0  0  0  0  0  0  0  0  0  0  0
   -0.8089    1.9029    0.2029 O   0  0  0  0  0  0  0  0  0  0  0  0
    1.0407    1.6321    1.4575 N   0  0  0  0  0  0  0  0  0  0  0  0
    1.8120    1.0149    1.6665 H   0  0  0  0  0  0  0  0  0  0  0  0
    1.0383    2.9638    2.0601 C   0  0  0  0  0  0  0  0  0  0  0  0
    0.0490    3.1832    2.4681 H   0  0  0  0  0  0  0  0  0  0  0  0
    1.7769    3.0168    2.8608 H   0  0  0  0  0  0  0  0  0  0  0  0
    1.2752    3.7104    1.3002 H   0  0  0  0  0  0  0  0  0  0  0  0
  5  6  2  0  0  0  0
  5  7  1  0  0  0  0
  2  3  1  0  0  0  0
  2  4  1  0  0  0  0
  2  5  1  0  0  0  0
  1  2  1  0  0  0  0
 16 17  2  0  0  0  0
 16 18  1  0  0  0  0
 14 15  1  0  0  0  0
 11 12  1  0  0  0  0
 11 13  1  0  0  0  0
 11 14  1  0  0  0  0
  9 10  1  0  0  0  0
  9 11  1  0  0  0  0
  9 16  1  0  0  0  0
  7  8  1  0  0  0  0
  7  9  1  0  0  0  0
 20 21  1  0  0  0  0
 20 22  1  0  0  0  0
 20 23  1  0  0  0  0
 18 19  1  0  0  0  0
 18 20  1  0  0  0  0
M  END
$$$$
default_name
  -OEChem-02102213163D

 23 22  0     1  0  0  0  0  0999 V2000
   -2.6857   -3.6684    0.8743 H   0  0  0  0  0  0  0  0  0  0  0  0
   -2.6617   -2.6474    0.4953 C   0  0  0  0  0  0  0  0  0  0  0  0
   -3.2657   -2.0054    1.1353 H   0  0  0  0  0  0  0  0  0  0  0  0
   -3.0477   -2.6254   -0.5217 H   0  0  0  0  0  0  0  0  0  0  0  0
   -1.2337   -2.1564    0.4993 C   0  0  0  0  0  0  0  0  0  0  0  0
   -0.3327   -2.8864    0.8893 O   0  0  0  0  0  0  0  0  0  0  0  0
   -1.0277   -0.9164    0.0623 N   0  0  0  0  0  0  0  0  0  0  0  0
   -1.8237   -0.3604   -0.2157 H   0  0  0  0  0  0  0  0  0  0  0  0
    0.2713   -0.2414    0.0463 C   0  0  1  0  0  0  0  0  0  0  0  0
    0.9550   -0.7800    0.7055 H   0  0  0  0  0  0  0  0  0  0  0  0
    0.8321   -0.2955   -1.3843 C   0  0  0  0  0  0  0  0  0  0  0  0
    0.1227   -0.8283   -2.0216 H   0  0  0  0  0  0  0  0  0  0  0  0
    0.9534    0.7201   -1.7664 H   0  0  0  0  0  0  0  0  0  0  0  0
    2.4251   -1.1679   -1.4332 S   0  0  0  0  0  0  0  0  0  0  0  0
    2.5803   -1.1546   -2.7626 H   0  0  0  0  0  0  0  0  0  0  0  0
    0.1277    1.1982    0.5808 C   0  0  0  0  0  0  0  0  0  0  0  0
   -0.8089    1.9029    0.2029 O   0  0  0  0  0  0  0  0  0  0  0  0
    1.0407    1.6321    1.4575 N   0  0  0  0  0  0  0  0  0  0  0  0
    1.8120    1.0149    1.6665 H   0  0  0  0  0  0  0  0  0  0  0  0
    1.0383    2.9638    2.0601 C   0  0  0  0  0  0  0  0  0  0  0  0
    0.0490    3.1832    2.4681 H   0  0  0  0  0  0  0  0  0  0  0  0
    1.7769    3.0168    2.8608 H   0  0  0  0  0  0  0  0  0  0  0  0
    1.2752    3.7104    1.3002 H   0  0  0  0  0  0  0  0  0  0  0  0
  5  6  2  0  0  0  0
  5  7  1  0  0  0  0
  2  3  1  0  0  0  0
  2  4  1  0  0  0  0
  2  5  1  0  0  0  0
  1  2  1  0  0  0  0
 16 17  2  0  0  0  0
 16 18  1  0  0  0  0
 14 15  1  0  0  0  0
 11 12  1  0  0  0  0
 11 13  1  0  0  0  0
 11 14  1  0  0  0  0
  9 10  1  0  0  0  0
  9 11  1  0  0  0  0
  9 16  1  0  0  0  0
  7  8  1  0  0  0  0
  7  9  1  0  0  0  0
 20 21  1  0  0  0  0
 20 22  1  0  0  0  0
 20 23  1  0  0  0  0
 18 19  1  0  0  0  0
 18 20  1  0  0  0  0
M  END
$$$$
default_name
  -OEChem-02102213163D

 23 22  0     1  0  0  0  0  0999 V2000
   -2.6857   -3.6684    0.8743 H   0  0  0  0  0  0  0  0  0  0  0  0
   -2.6617   -2.6474    0.4953 C   0  0  0  0  0  0  0  0  0  0  0  0
   -3.2657   -2.0054    1.1353 H   0  0  0  0  0  0  0  0  0  0  0  0
   -3.0477   -2.6254   -0.5217 H   0  0  0  0  0  0  0  0  0  0  0  0
   -1.2337   -2.1564    0.4993 C   0  0  0  0  0  0  0  0  0  0  0  0
   -0.3327   -2.8864    0.8893 O   0  0  0  0  0  0  0  0  0  0  0  0
   -1.0277   -0.9164    0.0623 N   0  0  0  0  0  0  0  0  0  0  0  0
   -1.8237   -0.3604   -0.2157 H   0  0  0  0  0  0  0  0  0  0  0  0
    0.2713   -0.2414    0.0463 C   0  0  1  0  0  0  0  0  0  0  0  0
    0.9550   -0.7800    0.7055 H   0  0  0  0  0  0  0  0  0  0  0  0
    0.8321   -0.2955   -1.3843 C   0  0  0  0  0  0  0  0  0  0  0  0
    0.0288   -0.5796   -2.0678 H   0  0  0  0  0  0  0  0  0  0  0  0
    1.2019    0.6919   -1.6680 H   0  0  0  0  0  0  0  0  0  0  0  0
    2.1694   -1.5180   -1.5202 S   0  0  0  0  0  0  0  0  0  0  0  0
    2.3507   -1.4186   -2.8426 H   0  0  0  0  0  0  0  0  0  0  0  0
    0.1277    1.1982    0.5808 C   0  0  0  0  0  0  0  0  0  0  0  0
   -0.8089    1.9029    0.2029 O   0  0  0  0  0  0  0  0  0  0  0  0
    1.0407    1.6321    1.4575 N   0  0  0  0  0  0  0  0  0  0  0  0
    1.8120    1.0149    1.6665 H   0  0  0  0  0  0  0  0  0  0  0  0
    1.0383    2.9638    2.0601 C   0  0  0  0  0  0  0  0  0  0  0  0
    0.0490    3.1832    2.4681 H   0  0  0  0  0  0  0  0  0  0  0  0
    1.7769    3.0168    2.8608 H   0  0  0  0  0  0  0  0  0  0  0  0
    1.2752    3.7104    1.3002 H   0  0  0  0  0  0  0  0  0  0  0  0
  5  6  2  0  0  0  0
  5  7  1  0  0  0  0
  2  3  1  0  0  0  0
  2  4  1  0  0  0  0
  2  5  1  0  0  0  0
  1  2  1  0  0  0  0
 16 17  2  0  0  0  0
 16 18  1  0  0  0  0
 14 15  1  0  0  0  0
 11 12  1  0  0  0  0
 11 13  1  0  0  0  0
 11 14  1  0  0  0  0
  9 10  1  0  0  0  0
  9 11  1  0  0  0  0
  9 16  1  0  0  0  0
  7  8  1  0  0  0  0
  7  9  1  0  0  0  0
 20 21  1  0  0  0  0
 20 22  1  0  0  0  0
 20 23  1  0  0  0  0
 18 19  1  0  0  0  0
 18 20  1  0  0  0  0
M  END
$$$$
default_name
  -OEChem-02102213163D

 23 22  0     1  0  0  0  0  0999 V2000
   -2.6857   -3.6684    0.8743 H   0  0  0  0  0  0  0  0  0  0  0  0
   -2.6617   -2.6474    0.4953 C   0  0  0  0  0  0  0  0  0  0  0  0
   -3.2657   -2.0054    1.1353 H   0  0  0  0  0  0  0  0  0  0  0  0
   -3.0477   -2.6254   -0.5217 H   0  0  0  0  0  0  0  0  0  0  0  0
   -1.2337   -2.1564    0.4993 C   0  0  0  0  0  0  0  0  0  0  0  0
   -0.3327   -2.8864    0.8893 O   0  0  0  0  0  0  0  0  0  0  0  0
   -1.0277   -0.9164    0.0623 N   0  0  0  0  0  0  0  0  0  0  0  0
   -1.8237   -0.3604   -0.2157 H   0  0  0  0  0  0  0  0  0  0  0  0
    0.2713   -0.2414    0.0463 C   0  0  1  0  0  0  0  0  0  0  0  0
    0.9550   -0.7800    0.7055 H   0  0  0  0  0  0  0  0  0  0  0  0
    0.8321   -0.2955   -1.3843 C   0  0  0  0  0  0  0  0  0  0  0  0
   -0.0016   -0.3124   -2.0899 H   0  0  0  0  0  0  0  0  0  0  0  0
    1.4342    0.5955   -1.5733 H   0  0  0  0  0  0  0  0  0  0  0  0
    1.8388   -1.7864   -1.6396 S   0  0  0  0  0  0  0  0  0  0  0  0
    2.0660   -1.6107   -2.9469 H   0  0  0  0  0  0  0  0  0  0  0  0
    0.1277    1.1982    0.5808 C   0  0  0  0  0  0  0  0  0  0  0  0
   -0.8089    1.9029    0.2029 O   0  0  0  0  0  0  0  0  0  0  0  0
    1.0407    1.6321    1.4575 N   0  0  0  0  0  0  0  0  0  0  0  0
    1.8120    1.0149    1.6665 H   0  0  0  0  0  0  0  0  0  0  0  0
    1.0383    2.9638    2.0601 C   0  0  0  0  0  0  0  0  0  0  0  0
    0.0490    3.1832    2.4681 H   0  0  0  0  0  0  0  0  0  0  0  0
    1.7769    3.0168    2.8608 H   0  0  0  0  0  0  0  0  0  0  0  0
    1.2752    3.7104    1.3002 H   0  0  0  0  0  0  0  0  0  0  0  0
  5  6  2  0  0  0  0
  5  7  1  0  0  0  0
  2  3  1  0  0  0  0
  2  4  1  0  0  0  0
  2  5  1  0  0  0  0
  1  2  1  0  0  0  0
 16 17  2  0  0  0  0
 16 18  1  0  0  0  0
 14 15  1  0  0  0  0
 11 12  1  0  0  0  0
 11 13  1  0  0  0  0
 11 14  1  0  0  0  0
  9 10  1  0  0  0  0
  9 11  1  0  0  0  0
  9 16  1  0  0  0  0
  7  8  1  0  0  0  0
  7  9  1  0  0  0  0
 20 21  1  0  0  0  0
 20 22  1  0  0  0  0
 20 23  1  0  0  0  0
 18 19  1  0  0  0  0
 18 20  1  0  0  0  0
M  END
$$$$
default_name
  -OEChem-02102213163D

 23 22  0     1  0  0  0  0  0999 V2000
   -2.6857   -3.6684    0.8743 H   0  0  0  0  0  0  0  0  0  0  0  0
   -2.6617   -2.6474    0.4953 C   0  0  0  0  0  0  0  0  0  0  0  0
   -3.2657   -2.0054    1.1353 H   0  0  0  0  0  0  0  0  0  0  0  0
   -3.0477   -2.6254   -0.5217 H   0  0  0  0  0  0  0  0  0  0  0  0
   -1.2337   -2.1564    0.4993 C   0  0  0  0  0  0  0  0  0  0  0  0
   -0.3327   -2.8864    0.8893 O   0  0  0  0  0  0  0  0  0  0  0  0
   -1.0277   -0.9164    0.0623 N   0  0  0  0  0  0  0  0  0  0  0  0
   -1.8237   -0.3604   -0.2157 H   0  0  0  0  0  0  0  0  0  0  0  0
    0.2713   -0.2414    0.0463 C   0  0  1  0  0  0  0  0  0  0  0  0
    0.9550   -0.7800    0.7055 H   0  0  0  0  0  0  0  0  0  0  0  0
    0.8321   -0.2955   -1.3843 C   0  0  0  0  0  0  0  0  0  0  0  0
    0.0335   -0.0449   -2.0862 H   0  0  0  0  0  0  0  0  0  0  0  0
    1.6345    0.4376   -1.4888 H   0  0  0  0  0  0  0  0  0  0  0  0
    1.4560   -1.9547   -1.7833 S   0  0  0  0  0  0  0  0  0  0  0  0
    1.7457   -1.7179   -3.0684 H   0  0  0  0  0  0  0  0  0  0  0  0
    0.1277    1.1982    0.5808 C   0  0  0  0  0  0  0  0  0  0  0  0
   -0.8089    1.9029    0.2029 O   0  0  0  0  0  0  0  0  0  0  0  0
    1.0407    1.6321    1.4575 N   0  0  0  0  0  0  0  0  0  0  0  0
    1.8120    1.0149    1.6665 H   0  0  0  0  0  0  0  0  0  0  0  0
    1.0383    2.9638    2.0601 C   0  0  0  0  0  0  0  0  0  0  0  0
    0.0490    3.1832    2.4681 H   0  0  0  0  0  0  0  0  0  0  0  0
    1.7769    3.0168    2.8608 H   0  0  0  0  0  0  0  0  0  0  0  0
    1.2752    3.7104    1.3002 H   0  0  0  0  0  0  0  0  0  0  0  0
  5  6  2  0  0  0  0
  5  7  1  0  0  0  0
  2  3  1  0  0  0  0
  2  4  1  0  0  0  0
  2  5  1  0  0  0  0
  1  2  1  0  0  0  0
 16 17  2  0  0  0  0
 16 18  1  0  0  0  0
 14 15  1  0  0  0  0
 11 12  1  0  0  0  0
 11 13  1  0  0  0  0
 11 14  1  0  0  0  0
  9 10  1  0  0  0  0
  9 11  1  0  0  0  0
  9 16  1  0  0  0  0
  7  8  1  0  0  0  0
  7  9  1  0  0  0  0
 20 21  1  0  0  0  0
 20 22  1  0  0  0  0
 20 23  1  0  0  0  0
 18 19  1  0  0  0  0
 18 20  1  0  0  0  0
M  END
$$$$
default_name
  -OEChem-02102213163D

 23 22  0     1  0  0  0  0  0999 V2000
   -2.6857   -3.6684    0.8743 H   0  0  0  0  0  0  0  0  0  0  0  0
   -2.6617   -2.6474    0.4953 C   0  0  0  0  0  0  0  0  0  0  0  0
   -3.2657   -2.0054    1.1353 H   0  0  0  0  0  0  0  0  0  0  0  0
   -3.0477   -2.6254   -0.5217 H   0  0  0  0  0  0  0  0  0  0  0  0
   -1.2337   -2.1564    0.4993 C   0  0  0  0  0  0  0  0  0  0  0  0
   -0.3327   -2.8864    0.8893 O   0  0  0  0  0  0  0  0  0  0  0  0
   -1.0277   -0.9164    0.0623 N   0  0  0  0  0  0  0  0  0  0  0  0
   -1.8237   -0.3604   -0.2157 H   0  0  0  0  0  0  0  0  0  0  0  0
    0.2713   -0.2414    0.0463 C   0  0  1  0  0  0  0  0  0  0  0  0
    0.9550   -0.7800    0.7055 H   0  0  0  0  0  0  0  0  0  0  0  0
    0.8321   -0.2955   -1.3843 C   0  0  0  0  0  0  0  0  0  0  0  0
    0.1319    0.2047   -2.0571 H   0  0  0  0  0  0  0  0  0  0  0  0
    1.7892    0.2288   -1.4202 H   0  0  0  0  0  0  0  0  0  0  0  0
    1.0470   -2.0115   -1.9415 S   0  0  0  0  0  0  0  0  0  0  0  0
    1.4116   -1.7328   -3.1988 H   0  0  0  0  0  0  0  0  0  0  0  0
    0.1277    1.1982    0.5808 C   0  0  0  0  0  0  0  0  0  0  0  0
   -0.8089    1.9029    0.2029 O   0  0  0  0  0  0  0  0  0  0  0  0
    1.0407    1.6321    1.4575 N   0  0  0  0  0  0  0  0  0  0  0  0
    1.8120    1.0149    1.6665 H   0  0  0  0  0  0  0  0  0  0  0  0
    1.0383    2.9638    2.0601 C   0  0  0  0  0  0  0  0  0  0  0  0
    0.0490    3.1832    2.4681 H   0  0  0  0  0  0  0  0  0  0  0  0
    1.7769    3.0168    2.8608 H   0  0  0  0  0  0  0  0  0  0  0  0
    1.2752    3.7104    1.3002 H   0  0  0  0  0  0  0  0  0  0  0  0
  5  6  2  0  0  0  0
  5  7  1  0  0  0  0
  2  3  1  0  0  0  0
  2  4  1  0  0  0  0
  2  5  1  0  0  0  0
  1  2  1  0  0  0  0
 16 17  2  0  0  0  0
 16 18  1  0  0  0  0
 14 15  1  0  0  0  0
 11 12  1  0  0  0  0
 11 13  1  0  0  0  0
 11 14  1  0  0  0  0
  9 10  1  0  0  0  0
  9 11  1  0  0  0  0
  9 16  1  0  0  0  0
  7  8  1  0  0  0  0
  7  9  1  0  0  0  0
 20 21  1  0  0  0  0
 20 22  1  0  0  0  0
 20 23  1  0  0  0  0
 18 19  1  0  0  0  0
 18 20  1  0  0  0  0
M  END
$$$$
default_name
  -OEChem-02102213163D

 23 22  0     1  0  0  0  0  0999 V2000
   -2.6857   -3.6684    0.8743 H   0  0  0  0  0  0  0  0  0  0  0  0
   -2.6617   -2.6474    0.4953 C   0  0  0  0  0  0  0  0  0  0  0  0
   -3.2657   -2.0054    1.1353 H   0  0  0  0  0  0  0  0  0  0  0  0
   -3.0477   -2.6254   -0.5217 H   0  0  0  0  0  0  0  0  0  0  0  0
   -1.2337   -2.1564    0.4993 C   0  0  0  0  0  0  0  0  0  0  0  0
   -0.3327   -2.8864    0.8893 O   0  0  0  0  0  0  0  0  0  0  0  0
   -1.0277   -0.9164    0.0623 N   0  0  0  0  0  0  0  0  0  0  0  0
   -1.8237   -0.3604   -0.2157 H   0  0  0  0  0  0  0  0  0  0  0  0
    0.2713   -0.2414    0.0463 C   0  0  1  0  0  0  0  0  0  0  0  0
    0.9550   -0.7800    0.7055 H   0  0  0  0  0  0  0  0  0  0  0  0
    0.8321   -0.2955   -1.3843 C   0  0  0  0  0  0  0  0  0  0  0  0
    0.2867    0.4194   -2.0045 H   0  0  0  0  0  0  0  0  0  0  0  0
    1.8877   -0.0166   -1.3724 H   0  0  0  0  0  0  0  0  0  0  0  0
    0.6396   -1.9530   -2.1034 S   0  0  0  0  0  0  0  0  0  0  0  0
    1.0864   -1.6545   -3.3292 H   0  0  0  0  0  0  0  0  0  0  0  0
    0.1277    1.1982    0.5808 C   0  0  0  0  0  0  0  0  0  0  0  0
   -0.8089    1.9029    0.2029 O   0  0  0  0  0  0  0  0  0  0  0  0
    1.0407    1.6321    1.4575 N   0  0  0  0  0  0  0  0  0  0  0  0
    1.8120    1.0149    1.6665 H   0  0  0  0  0  0  0  0  0  0  0  0
    1.0383    2.9638    2.0601 C   0  0  0  0  0  0  0  0  0  0  0  0
    0.0490    3.1832    2.4681 H   0  0  0  0  0  0  0  0  0  0  0  0
    1.7769    3.0168    2.8608 H   0  0  0  0  0  0  0  0  0  0  0  0
    1.2752    3.7104    1.3002 H   0  0  0  0  0  0  0  0  0  0  0  0
  5  6  2  0  0  0  0
  5  7  1  0  0  0  0
  2  3  1  0  0  0  0
  2  4  1  0  0  0  0
  2  5  1  0  0  0  0
  1  2  1  0  0  0  0
 16 17  2  0  0  0  0
 16 18  1  0  0  0  0
 14 15  1  0  0  0  0
 11 12  1  0  0  0  0
 11 13  1  0  0  0  0
 11 14  1  0  0  0  0
  9 10  1  0  0  0  0
  9 11  1  0  0  0  0
  9 16  1  0  0  0  0
  7  8  1  0  0  0  0
  7  9  1  0  0  0  0
 20 21  1  0  0  0  0
 20 22  1  0  0  0  0
 20 23  1  0  0  0  0
 18 19  1  0  0  0  0
 18 20  1  0  0  0  0
M  END
$$$$
default_name
  -OEChem-02102213163D

 23 22  0     1  0  0  0  0  0999 V2000
   -2.6857   -3.6684    0.8743 H   0  0  0  0  0  0  0  0  0  0  0  0
   -2.6617   -2.6474    0.4953 C   0  0  0  0  0  0  0  0  0  0  0  0
   -3.2657   -2.0054    1.1353 H   0  0  0  0  0  0  0  0  0  0  0  0
   -3.0477   -2.6254   -0.5217 H   0  0  0  0  0  0  0  0  0  0  0  0
   -1.2337   -2.1564    0.4993 C   0  0  0  0  0  0  0  0  0  0  0  0
   -0.3327   -2.8864    0.8893 O   0  0  0  0  0  0  0  0  0  0  0  0
   -1.0277   -0.9164    0.0623 N   0  0  0  0  0  0  0  0  0  0  0  0
   -1.8237   -0.3604   -0.2157 H   0  0  0  0  0  0  0  0  0  0  0  0
    0.2713   -0.2414    0.0463 C   0  0  1  0  0  0  0  0  0  0  0  0
    0.9550   -0.7800    0.7055 H   0  0  0  0  0  0  0  0  0  0  0  0
    0.8321   -0.2955   -1.3843 C   0  0  0  0  0  0  0  0  0  0  0  0
    0.4875    0.5845   -1.9320 H   0  0  0  0  0  0  0  0  0  0  0  0
    1.9233   -0.2819   -1.3484 H   0  0  0  0  0  0  0  0  0  0  0  0
    0.2618   -1.7831   -2.2579 S   0  0  0  0  0  0  0  0  0  0  0  0
    0.7925   -1.4882   -3.4507 H   0  0  0  0  0  0  0  0  0  0  0  0
    0.1277    1.1982    0.5808 C   0  0  0  0  0  0  0  0  0  0  0  0
   -0.8089    1.9029    0.2029 O   0  0  0  0  0  0  0  0  0  0  0  0
    1.0407    1.6321    1.4575 N   0  0  0  0  0  0  0  0  0  0  0  0
    1.8120    1.0149    1.6665 H   0  0  0  0  0  0  0  0  0  0  0  0
    1.0383    2.9638    2.0601 C   0  0  0  0  0  0  0  0  0  0  0  0
    0.0490    3.1832    2.4681 H   0  0  0  0  0  0  0  0  0  0  0  0
    1.7769    3.0168    2.8608 H   0  0  0  0  0  0  0  0  0  0  0  0
    1.2752    3.7104    1.3002 H   0  0  0  0  0  0  0  0  0  0  0  0
  5  6  2  0  0  0  0
  5  7  1  0  0  0  0
  2  3  1  0  0  0  0
  2  4  1  0  0  0  0
  2  5  1  0  0  0  0
  1  2  1  0  0  0  0
 16 17  2  0  0  0  0
 16 18  1  0  0  0  0
 14 15  1  0  0  0  0
 11 12  1  0  0  0  0
 11 13  1  0  0  0  0
 11 14  1  0  0  0  0
  9 10  1  0  0  0  0
  9 11  1  0  0  0  0
  9 16  1  0  0  0  0
  7  8  1  0  0  0  0
  7  9  1  0  0  0  0
 20 21  1  0  0  0  0
 20 22  1  0  0  0  0
 20 23  1  0  0  0  0
 18 19  1  0  0  0  0
 18 20  1  0  0  0  0
M  END
$$$$
default_name
  -OEChem-02102213163D

 23 22  0     1  0  0  0  0  0999 V2000
   -2.6857   -3.6684    0.8743 H   0  0  0  0  0  0  0  0  0  0  0  0
   -2.6617   -2.6474    0.4953 C   0  0  0  0  0  0  0  0  0  0  0  0
   -3.2657   -2.0054    1.1353 H   0  0  0  0  0  0  0  0  0  0  0  0
   -3.0477   -2.6254   -0.5217 H   0  0  0  0  0  0  0  0  0  0  0  0
   -1.2337   -2.1564    0.4993 C   0  0  0  0  0  0  0  0  0  0  0  0
   -0.3327   -2.8864    0.8893 O   0  0  0  0  0  0  0  0  0  0  0  0
   -1.0277   -0.9164    0.0623 N   0  0  0  0  0  0  0  0  0  0  0  0
   -1.8237   -0.3604   -0.2157 H   0  0  0  0  0  0  0  0  0  0  0  0
    0.2713   -0.2414    0.0463 C   0  0  1  0  0  0  0  0  0  0  0  0
    0.9550   -0.7800    0.7055 H   0  0  0  0  0  0  0  0  0  0  0  0
    0.8321   -0.2955   -1.3843 C   0  0  0  0  0  0  0  0  0  0  0  0
    0.7206    0.6888   -1.8446 H   0  0  0  0  0  0  0  0  0  0  0  0
    1.8936   -0.5490   -1.3499 H   0  0  0  0  0  0  0  0  0  0  0  0
   -0.0609   -1.5134   -2.3946 S   0  0  0  0  0  0  0  0  0  0  0  0
    0.5497   -1.2453   -3.5551 H   0  0  0  0  0  0  0  0  0  0  0  0
    0.1277    1.1982    0.5808 C   0  0  0  0  0  0  0  0  0  0  0  0
   -0.8089    1.9029    0.2029 O   0  0  0  0  0  0  0  0  0  0  0  0
    1.0407    1.6321    1.4575 N   0  0  0  0  0  0  0  0  0  0  0  0
    1.8120    1.0149    1.6665 H   0  0  0  0  0  0  0  0  0  0  0  0
    1.0383    2.9638    2.0601 C   0  0  0  0  0  0  0  0  0  0  0  0
    0.0490    3.1832    2.4681 H   0  0  0  0  0  0  0  0  0  0  0  0
    1.7769    3.0168    2.8608 H   0  0  0  0  0  0  0  0  0  0  0  0
    1.2752    3.7104    1.3002 H   0  0  0  0  0  0  0  0  0  0  0  0
  5  6  2  0  0  0  0
  5  7  1  0  0  0  0
  2  3  1  0  0  0  0
  2  4  1  0  0  0  0
  2  5  1  0  0  0  0
  1  2  1  0  0  0  0
 16 17  2  0  0  0  0
 16 18  1  0  0  0  0
 14 15  1  0  0  0  0
 11 12  1  0  0  0  0
 11 13  1  0  0  0  0
 11 14  1  0  0  0  0
  9 10  1  0  0  0  0
  9 11  1  0  0  0  0
  9 16  1  0  0  0  0
  7  8  1  0  0  0  0
  7  9  1  0  0  0  0
 20 21  1  0  0  0  0
 20 22  1  0  0  0  0
 20 23  1  0  0  0  0
 18 19  1  0  0  0  0
 18 20  1  0  0  0  0
M  END
$$$$
default_name
  -OEChem-02102213163D

 23 22  0     1  0  0  0  0  0999 V2000
   -2.6857   -3.6684    0.8743 H   0  0  0  0  0  0  0  0  0  0  0  0
   -2.6617   -2.6474    0.4953 C   0  0  0  0  0  0  0  0  0  0  0  0
   -3.2657   -2.0054    1.1353 H   0  0  0  0  0  0  0  0  0  0  0  0
   -3.0477   -2.6254   -0.5217 H   0  0  0  0  0  0  0  0  0  0  0  0
   -1.2337   -2.1564    0.4993 C   0  0  0  0  0  0  0  0  0  0  0  0
   -0.3327   -2.8864    0.8893 O   0  0  0  0  0  0  0  0  0  0  0  0
   -1.0277   -0.9164    0.0623 N   0  0  0  0  0  0  0  0  0  0  0  0
   -1.8237   -0.3604   -0.2157 H   0  0  0  0  0  0  0  0  0  0  0  0
    0.2713   -0.2414    0.0463 C   0  0  1  0  0  0  0  0  0  0  0  0
    0.9550   -0.7800    0.7055 H   0  0  0  0  0  0  0  0  0  0  0  0
    0.8321   -0.2955   -1.3843 C   0  0  0  0  0  0  0  0  0  0  0  0
    0.9700    0.7251   -1.7483 H   0  0  0  0  0  0  0  0  0  0  0  0
    1.8006   -0.7996   -1.3769 H   0  0  0  0  0  0  0  0  0  0  0  0
   -0.3064   -1.1622   -2.5041 S   0  0  0  0  0  0  0  0  0  0  0  0
    0.3746   -0.9423   -3.6352 H   0  0  0  0  0  0  0  0  0  0  0  0
    0.1277    1.1982    0.5808 C   0  0  0  0  0  0  0  0  0  0  0  0
   -0.8089    1.9029    0.2029 O   0  0  0  0  0  0  0  0  0  0  0  0
    1.0407    1.6321    1.4575 N   0  0  0  0  0  0  0  0  0  0  0  0
    1.8120    1.0149    1.6665 H   0  0  0  0  0  0  0  0  0  0  0  0
    1.0383    2.9638    2.0601 C   0  0  0  0  0  0  0  0  0  0  0  0
    0.0490    3.1832    2.4681 H   0  0  0  0  0  0  0  0  0  0  0  0
    1.7769    3.0168    2.8608 H   0  0  0  0  0  0  0  0  0  0  0  0
    1.2752    3.7104    1.3002 H   0  0  0  0  0  0  0  0  0  0  0  0
  5  6  2  0  0  0  0
  5  7  1  0  0  0  0
  2  3  1  0  0  0  0
  2  4  1  0  0  0  0
  2  5  1  0  0  0  0
  1  2  1  0  0  0  0
 16 17  2  0  0  0  0
 16 18  1  0  0  0  0
 14 15  1  0  0  0  0
 11 12  1  0  0  0  0
 11 13  1  0  0  0  0
 11 14  1  0  0  0  0
  9 10  1  0  0  0  0
  9 11  1  0  0  0  0
  9 16  1  0  0  0  0
  7  8  1  0  0  0  0
  7  9  1  0  0  0  0
 20 21  1  0  0  0  0
 20 22  1  0  0  0  0
 20 23  1  0  0  0  0
 18 19  1  0  0  0  0
 18 20  1  0  0  0  0
M  END
$$$$
default_name
  -OEChem-02102213163D

 23 22  0     1  0  0  0  0  0999 V2000
   -2.6857   -3.6684    0.8743 H   0  0  0  0  0  0  0  0  0  0  0  0
   -2.6617   -2.6474    0.4953 C   0  0  0  0  0  0  0  0  0  0  0  0
   -3.2657   -2.0054    1.1353 H   0  0  0  0  0  0  0  0  0  0  0  0
   -3.0477   -2.6254   -0.5217 H   0  0  0  0  0  0  0  0  0  0  0  0
   -1.2337   -2.1564    0.4993 C   0  0  0  0  0  0  0  0  0  0  0  0
   -0.3327   -2.8864    0.8893 O   0  0  0  0  0  0  0  0  0  0  0  0
   -1.0277   -0.9164    0.0623 N   0  0  0  0  0  0  0  0  0  0  0  0
   -1.8237   -0.3604   -0.2157 H   0  0  0  0  0  0  0  0  0  0  0  0
    0.2713   -0.2414    0.0463 C   0  0  1  0  0  0  0  0  0  0  0  0
    0.9550   -0.7800    0.7055 H   0  0  0  0  0  0  0  0  0  0  0  0
    0.8321   -0.2955   -1.3843 C   0  0  0  0  0  0  0  0  0  0  0  0
    1.2188    0.6911   -1.6494 H   0  0  0  0  0  0  0  0  0  0  0  0
    1.6507   -1.0168   -1.4274 H   0  0  0  0  0  0  0  0  0  0  0  0
   -0.4580   -0.7536   -2.5789 S   0  0  0  0  0  0  0  0  0  0  0  0
    0.2791   -0.6000   -3.6855 H   0  0  0  0  0  0  0  0  0  0  0  0
    0.1277    1.1982    0.5808 C   0  0  0  0  0  0  0  0  0  0  0  0
   -0.8089    1.9029    0.2029 O   0  0  0  0  0  0  0  0  0  0  0  0
    1.0407    1.6321    1.4575 N   0  0  0  0  0  0  0  0  0  0  0  0
    1.8120    1.0149    1.6665 H   0  0  0  0  0  0  0  0  0  0  0  0
    1.0383    2.9638    2.0601 C   0  0  0  0  0  0  0  0  0  0  0  0
    0.0490    3.1832    2.4681 H   0  0  0  0  0  0  0  0  0  0  0  0
    1.7769    3.0168    2.8608 H   0  0  0  0  0  0  0  0  0  0  0  0
    1.2752    3.7104    1.3002 H   0  0  0  0  0  0  0  0  0  0  0  0
  5  6  2  0  0  0  0
  5  7  1  0  0  0  0
  2  3  1  0  0  0  0
  2  4  1  0  0  0  0
  2  5  1  0  0  0  0
  1  2  1  0  0  0  0
 16 17  2  0  0  0  0
 16 18  1  0  0  0  0
 14 15  1  0  0  0  0
 11 12  1  0  0  0  0
 11 13  1  0  0  0  0
 11 14  1  0  0  0  0
  9 10  1  0  0  0  0
  9 11  1  0  0  0  0
  9 16  1  0  0  0  0
  7  8  1  0  0  0  0
  7  9  1  0  0  0  0
 20 21  1  0  0  0  0
 20 22  1  0  0  0  0
 20 23  1  0  0  0  0
 18 19  1  0  0  0  0
 18 20  1  0  0  0  0
M  END
$$$$
default_name
  -OEChem-02102213163D

 23 22  0     1  0  0  0  0  0999 V2000
   -2.6857   -3.6684    0.8743 H   0  0  0  0  0  0  0  0  0  0  0  0
   -2.6617   -2.6474    0.4953 C   0  0  0  0  0  0  0  0  0  0  0  0
   -3.2657   -2.0054    1.1353 H   0  0  0  0  0  0  0  0  0  0  0  0
   -3.0477   -2.6254   -0.5217 H   0  0  0  0  0  0  0  0  0  0  0  0
   -1.2337   -2.1564    0.4993 C   0  0  0  0  0  0  0  0  0  0  0  0
   -0.3327   -2.8864    0.8893 O   0  0  0  0  0  0  0  0  0  0  0  0
   -1.0277   -0.9164    0.0623 N   0  0  0  0  0  0  0  0  0  0  0  0
   -1.8237   -0.3604   -0.2157 H   0  0  0  0  0  0  0  0  0  0  0  0
    0.2713   -0.2414    0.0463 C   0  0  1  0  0  0  0  0  0  0  0  0
    0.9550   -0.7800    0.7055 H   0  0  0  0  0  0  0  0  0  0  0  0
    0.8321   -0.2955   -1.3843 C   0  0  0  0  0  0  0  0  0  0  0  0
    1.4500    0.5889   -1.5550 H   0  0  0  0  0  0  0  0  0  0  0  0
    1.4540   -1.1858   -1.4982 H   0  0  0  0  0  0  0  0  0  0  0  0
   -0.5053   -0.3154   -2.6140 S   0  0  0  0  0  0  0  0  0  0  0  0
    0.2698   -0.2416   -3.7027 H   0  0  0  0  0  0  0  0  0  0  0  0
    0.1277    1.1982    0.5808 C   0  0  0  0  0  0  0  0  0  0  0  0
   -0.8089    1.9029    0.2029 O   0  0  0  0  0  0  0  0  0  0  0  0
    1.0407    1.6321    1.4575 N   0  0  0  0  0  0  0  0  0  0  0  0
    1.8120    1.0149    1.6665 H   0  0  0  0  0  0  0  0  0  0  0  0
    1.0383    2.9638    2.0601 C   0  0  0  0  0  0  0  0  0  0  0  0
    0.0490    3.1832    2.4681 H   0  0  0  0  0  0  0  0  0  0  0  0
    1.7769    3.0168    2.8608 H   0  0  0  0  0  0  0  0  0  0  0  0
    1.2752    3.7104    1.3002 H   0  0  0  0  0  0  0  0  0  0  0  0
  5  6  2  0  0  0  0
  5  7  1  0  0  0  0
  2  3  1  0  0  0  0
  2  4  1  0  0  0  0
  2  5  1  0  0  0  0
  1  2  1  0  0  0  0
 16 17  2  0  0  0  0
 16 18  1  0  0  0  0
 14 15  1  0  0  0  0
 11 12  1  0  0  0  0
 11 13  1  0  0  0  0
 11 14  1  0  0  0  0
  9 10  1  0  0  0  0
  9 11  1  0  0  0  0
  9 16  1  0  0  0  0
  7  8  1  0  0  0  0
  7  9  1  0  0  0  0
 20 21  1  0  0  0  0
 20 22  1  0  0  0  0
 20 23  1  0  0  0  0
 18 19  1  0  0  0  0
 18 20  1  0  0  0  0
M  END
$$$$
default_name
  -OEChem-02102213163D

 23 22  0     1  0  0  0  0  0999 V2000
   -2.6857   -3.6684    0.8743 H   0  0  0  0  0  0  0  0  0  0  0  0
   -2.6617   -2.6474    0.4953 C   0  0  0  0  0  0  0  0  0  0  0  0
   -3.2657   -2.0054    1.1353 H   0  0  0  0  0  0  0  0  0  0  0  0
   -3.0477   -2.6254   -0.5217 H   0  0  0  0  0  0  0  0  0  0  0  0
   -1.2337   -2.1564    0.4993 C   0  0  0  0  0  0  0  0  0  0  0  0
   -0.3327   -2.8864    0.8893 O   0  0  0  0  0  0  0  0  0  0  0  0
   -1.0277   -0.9164    0.0623 N   0  0  0  0  0  0  0  0  0  0  0  0
   -1.8237   -0.3604   -0.2157 H   0  0  0  0  0  0  0  0  0  0  0  0
    0.2713   -0.2414    0.0463 C   0  0  1  0  0  0  0  0  0  0  0  0
    0.9550   -0.7800    0.7055 H   0  0  0  0  0  0  0  0  0  0  0  0
    0.8321   -0.2955   -1.3843 C   0  0  0  0  0  0  0  0  0  0  0  0
    1.6479    0.4257   -1.4712 H   0  0  0  0  0  0  0  0  0  0  0  0
    1.2240   -1.2949   -1.5842 H   0  0  0  0  0  0  0  0  0  0  0  0
   -0.4451    0.1227   -2.6070 S   0  0  0  0  0  0  0  0  0  0  0  0
    0.3473    0.1085   -3.6856 H   0  0  0  0  0  0  0  0  0  0  0  0
    0.1277    1.1982    0.5808 C   0  0  0  0  0  0  0  0  0  0  0  0
   -0.8089    1.9029    0.2029 O   0  0  0  0  0  0  0  0  0  0  0  0
    1.0407    1.6321    1.4575 N   0  0  0  0  0  0  0  0  0  0  0  0
    1.8120    1.0149    1.6665 H   0  0  0  0  0  0  0  0  0  0  0  0
    1.0383    2.9638    2.0601 C   0  0  0  0  0  0  0  0  0  0  0  0
    0.0490    3.1832    2.4681 H   0  0  0  0  0  0  0  0  0  0  0  0
    1.7769    3.0168    2.8608 H   0  0  0  0  0  0  0  0  0  0  0  0
    1.2752    3.7104    1.3002 H   0  0  0  0  0  0  0  0  0  0  0  0
  5  6  2  0  0  0  0
  5  7  1  0  0  0  0
  2  3  1  0  0  0  0
  2  4  1  0  0  0  0
  2  5  1  0  0  0  0
  1  2  1  0  0  0  0
 16 17  2  0  0  0  0
 16 18  1  0  0  0  0
 14 15  1  0  0  0  0
 11 12  1  0  0  0  0
 11 13  1  0  0  0  0
 11 14  1  0  0  0  0
  9 10  1  0  0  0  0
  9 11  1  0  0  0  0
  9 16  1  0  0  0  0
  7  8  1  0  0  0  0
  7  9  1  0  0  0  0
 20 21  1  0  0  0  0
 20 22  1  0  0  0  0
 20 23  1  0  0  0  0
 18 19  1  0  0  0  0
 18 20  1  0  0  0  0
M  END
$$$$
default_name
  -OEChem-02102213163D

 23 22  0     1  0  0  0  0  0999 V2000
   -2.6857   -3.6684    0.8743 H   0  0  0  0  0  0  0  0  0  0  0  0
   -2.6617   -2.6474    0.4953 C   0  0  0  0  0  0  0  0  0  0  0  0
   -3.2657   -2.0054    1.1353 H   0  0  0  0  0  0  0  0  0  0  0  0
   -3.0477   -2.6254   -0.5217 H   0  0  0  0  0  0  0  0  0  0  0  0
   -1.2337   -2.1564    0.4993 C   0  0  0  0  0  0  0  0  0  0  0  0
   -0.3327   -2.8864    0.8893 O   0  0  0  0  0  0  0  0  0  0  0  0
   -1.0277   -0.9164    0.0623 N   0  0  0  0  0  0  0  0  0  0  0  0
   -1.8237   -0.3604   -0.2157 H   0  0  0  0  0  0  0  0  0  0  0  0
    0.2713   -0.2414    0.0463 C   0  0  1  0  0  0  0  0  0  0  0  0
    0.9550   -0.7800    0.7055 H   0  0  0  0  0  0  0  0  0  0  0  0
    0.8321   -0.2955   -1.3843 C   0  0  0  0  0  0  0  0  0  0  0  0
    1.7989    0.2124   -1.4040 H   0  0  0  0  0  0  0  0  0  0  0  0
    0.9763   -1.3368   -1.6797 H   0  0  0  0  0  0  0  0  0  0  0  0
   -0.2816    0.5306   -2.5584 S   0  0  0  0  0  0  0  0  0  0  0  0
    0.5064    0.4264   -3.6353 H   0  0  0  0  0  0  0  0  0  0  0  0
    0.1277    1.1982    0.5808 C   0  0  0  0  0  0  0  0  0  0  0  0
   -0.8089    1.9029    0.2029 O   0  0  0  0  0  0  0  0  0  0  0  0
    1.0407    1.6321    1.4575 N   0  0  0  0  0  0  0  0  0  0  0  0
    1.8120    1.0149    1.6665 H   0  0  0  0  0  0  0  0  0  0  0  0
    1.0383    2.9638    2.0601 C   0  0  0  0  0  0  0  0  0  0  0  0
    0.0490    3.1832    2.4681 H   0  0  0  0  0  0  0  0  0  0  0  0
    1.7769    3.0168    2.8608 H   0  0  0  0  0  0  0  0  0  0  0  0
    1.2752    3.7104    1.3002 H   0  0  0  0  0  0  0  0  0  0  0  0
  5  6  2  0  0  0  0
  5  7  1  0  0  0  0
  2  3  1  0  0  0  0
  2  4  1  0  0  0  0
  2  5  1  0  0  0  0
  1  2  1  0  0  0  0
 16 17  2  0  0  0  0
 16 18  1  0  0  0  0
 14 15  1  0  0  0  0
 11 12  1  0  0  0  0
 11 13  1  0  0  0  0
 11 14  1  0  0  0  0
  9 10  1  0  0  0  0
  9 11  1  0  0  0  0
  9 16  1  0  0  0  0
  7  8  1  0  0  0  0
  7  9  1  0  0  0  0
 20 21  1  0  0  0  0
 20 22  1  0  0  0  0
 20 23  1  0  0  0  0
 18 19  1  0  0  0  0
 18 20  1  0  0  0  0
M  END
$$$$
default_name
  -OEChem-02102213163D

 23 22  0     1  0  0  0  0  0999 V2000
   -2.6857   -3.6684    0.8743 H   0  0  0  0  0  0  0  0  0  0  0  0
   -2.6617   -2.6474    0.4953 C   0  0  0  0  0  0  0  0  0  0  0  0
   -3.2657   -2.0054    1.1353 H   0  0  0  0  0  0  0  0  0  0  0  0
   -3.0477   -2.6254   -0.5217 H   0  0  0  0  0  0  0  0  0  0  0  0
   -1.2337   -2.1564    0.4993 C   0  0  0  0  0  0  0  0  0  0  0  0
   -0.3327   -2.8864    0.8893 O   0  0  0  0  0  0  0  0  0  0  0  0
   -1.0277   -0.9164    0.0623 N   0  0  0  0  0  0  0  0  0  0  0  0
   -1.8237   -0.3604   -0.2157 H   0  0  0  0  0  0  0  0  0  0  0  0
    0.2713   -0.2414    0.0463 C   0  0  1  0  0  0  0  0  0  0  0  0
    0.9550   -0.7800    0.7055 H   0  0  0  0  0  0  0  0  0  0  0  0
    0.8321   -0.2955   -1.3843 C   0  0  0  0  0  0  0  0  0  0  0  0
    1.8929   -0.0363   -1.3577 H   0  0  0  0  0  0  0  0  0  0  0  0
    0.7278   -1.3086   -1.7781 H   0  0  0  0  0  0  0  0  0  0  0  0
   -0.0259    0.8807   -2.4713 S   0  0  0  0  0  0  0  0  0  0  0  0
    0.7360    0.6903   -3.5552 H   0  0  0  0  0  0  0  0  0  0  0  0
    0.1277    1.1982    0.5808 C   0  0  0  0  0  0  0  0  0  0  0  0
   -0.8089    1.9029    0.2029 O   0  0  0  0  0  0  0  0  0  0  0  0
    1.0407    1.6321    1.4575 N   0  0  0  0  0  0  0  0  0  0  0  0
    1.8120    1.0149    1.6665 H   0  0  0  0  0  0  0  0  0  0  0  0
    1.0383    2.9638    2.0601 C   0  0  0  0  0  0  0  0  0  0  0  0
    0.0490    3.1832    2.4681 H   0  0  0  0  0  0  0  0  0  0  0  0
    1.7769    3.0168    2.8608 H   0  0  0  0  0  0  0  0  0  0  0  0
    1.2752    3.7104    1.3002 H   0  0  0  0  0  0  0  0  0  0  0  0
  5  6  2  0  0  0  0
  5  7  1  0  0  0  0
  2  3  1  0  0  0  0
  2  4  1  0  0  0  0
  2  5  1  0  0  0  0
  1  2  1  0  0  0  0
 16 17  2  0  0  0  0
 16 18  1  0  0  0  0
 14 15  1  0  0  0  0
 11 12  1  0  0  0  0
 11 13  1  0  0  0  0
 11 14  1  0  0  0  0
  9 10  1  0  0  0  0
  9 11  1  0  0  0  0
  9 16  1  0  0  0  0
  7  8  1  0  0  0  0
  7  9  1  0  0  0  0
 20 21  1  0  0  0  0
 20 22  1  0  0  0  0
 20 23  1  0  0  0  0
 18 19  1  0  0  0  0
 18 20  1  0  0  0  0
M  END
$$$$
default_name
  -OEChem-02102213163D

 23 22  0     1  0  0  0  0  0999 V2000
   -2.6857   -3.6684    0.8743 H   0  0  0  0  0  0  0  0  0  0  0  0
   -2.6617   -2.6474    0.4953 C   0  0  0  0  0  0  0  0  0  0  0  0
   -3.2657   -2.0054    1.1353 H   0  0  0  0  0  0  0  0  0  0  0  0
   -3.0477   -2.6254   -0.5217 H   0  0  0  0  0  0  0  0  0  0  0  0
   -1.2337   -2.1564    0.4993 C   0  0  0  0  0  0  0  0  0  0  0  0
   -0.3327   -2.8864    0.8893 O   0  0  0  0  0  0  0  0  0  0  0  0
   -1.0277   -0.9164    0.0623 N   0  0  0  0  0  0  0  0  0  0  0  0
   -1.8237   -0.3604   -0.2157 H   0  0  0  0  0  0  0  0  0  0  0  0
    0.2713   -0.2414    0.0463 C   0  0  1  0  0  0  0  0  0  0  0  0
    0.9550   -0.7800    0.7055 H   0  0  0  0  0  0  0  0  0  0  0  0
    0.8321   -0.2955   -1.3843 C   0  0  0  0  0  0  0  0  0  0  0  0
    1.9233   -0.3035   -1.3357 H   0  0  0  0  0  0  0  0  0  0  0  0
    0.4955   -1.2122   -1.8728 H   0  0  0  0  0  0  0  0  0  0  0  0
    0.3047    1.1491   -2.3519 S   0  0  0  0  0  0  0  0  0  0  0  0
    1.0207    0.8825   -3.4509 H   0  0  0  0  0  0  0  0  0  0  0  0
    0.1277    1.1982    0.5808 C   0  0  0  0  0  0  0  0  0  0  0  0
   -0.8089    1.9029    0.2029 O   0  0  0  0  0  0  0  0  0  0  0  0
    1.0407    1.6321    1.4575 N   0  0  0  0  0  0  0  0  0  0  0  0
    1.8120    1.0149    1.6665 H   0  0  0  0  0  0  0  0  0  0  0  0
    1.0383    2.9638    2.0601 C   0  0  0  0  0  0  0  0  0  0  0  0
    0.0490    3.1832    2.4681 H   0  0  0  0  0  0  0  0  0  0  0  0
    1.7769    3.0168    2.8608 H   0  0  0  0  0  0  0  0  0  0  0  0
    1.2752    3.7104    1.3002 H   0  0  0  0  0  0  0  0  0  0  0  0
  5  6  2  0  0  0  0
  5  7  1  0  0  0  0
  2  3  1  0  0  0  0
  2  4  1  0  0  0  0
  2  5  1  0  0  0  0
  1  2  1  0  0  0  0
 16 17  2  0  0  0  0
 16 18  1  0  0  0  0
 14 15  1  0  0  0  0
 11 12  1  0  0  0  0
 11 13  1  0  0  0  0
 11 14  1  0  0  0  0
  9 10  1  0  0  0  0
  9 11  1  0  0  0  0
  9 16  1  0  0  0  0
  7  8  1  0  0  0  0
  7  9  1  0  0  0  0
 20 21  1  0  0  0  0
 20 22  1  0  0  0  0
 20 23  1  0  0  0  0
 18 19  1  0  0  0  0
 18 20  1  0  0  0  0
M  END
$$$$
default_name
  -OEChem-02102213163D

 23 22  0     1  0  0  0  0  0999 V2000
   -2.6857   -3.6684    0.8743 H   0  0  0  0  0  0  0  0  0  0  0  0
   -2.6617   -2.6474    0.4953 C   0  0  0  0  0  0  0  0  0  0  0  0
   -3.2657   -2.0054    1.1353 H   0  0  0  0  0  0  0  0  0  0  0  0
   -3.0477   -2.6254   -0.5217 H   0  0  0  0  0  0  0  0  0  0  0  0
   -1.2337   -2.1564    0.4993 C   0  0  0  0  0  0  0  0  0  0  0  0
   -0.3327   -2.8864    0.8893 O   0  0  0  0  0  0  0  0  0  0  0  0
   -1.0277   -0.9164    0.0623 N   0  0  0  0  0  0  0  0  0  0  0  0
   -1.8237   -0.3604   -0.2157 H   0  0  0  0  0  0  0  0  0  0  0  0
    0.2713   -0.2414    0.0463 C   0  0  1  0  0  0  0  0  0  0  0  0
    0.9550   -0.7800    0.7055 H   0  0  0  0  0  0  0  0  0  0  0  0
    0.8321   -0.2955   -1.3843 C   0  0  0  0  0  0  0  0  0  0  0  0
    1.8881   -0.5710   -1.3394 H   0  0  0  0  0  0  0  0  0  0  0  0
    0.2952   -1.0542   -1.9573 H   0  0  0  0  0  0  0  0  0  0  0  0
    0.6875    1.3174   -2.2082 S   0  0  0  0  0  0  0  0  0  0  0  0
    1.3410    0.9896   -3.3294 H   0  0  0  0  0  0  0  0  0  0  0  0
    0.1277    1.1982    0.5808 C   0  0  0  0  0  0  0  0  0  0  0  0
   -0.8089    1.9029    0.2029 O   0  0  0  0  0  0  0  0  0  0  0  0
    1.0407    1.6321    1.4575 N   0  0  0  0  0  0  0  0  0  0  0  0
    1.8120    1.0149    1.6665 H   0  0  0  0  0  0  0  0  0  0  0  0
    1.0383    2.9638    2.0601 C   0  0  0  0  0  0  0  0  0  0  0  0
    0.0490    3.1832    2.4681 H   0  0  0  0  0  0  0  0  0  0  0  0
    1.7769    3.0168    2.8608 H   0  0  0  0  0  0  0  0  0  0  0  0
    1.2752    3.7104    1.3002 H   0  0  0  0  0  0  0  0  0  0  0  0
  5  6  2  0  0  0  0
  5  7  1  0  0  0  0
  2  3  1  0  0  0  0
  2  4  1  0  0  0  0
  2  5  1  0  0  0  0
  1  2  1  0  0  0  0
 16 17  2  0  0  0  0
 16 18  1  0  0  0  0
 14 15  1  0  0  0  0
 11 12  1  0  0  0  0
 11 13  1  0  0  0  0
 11 14  1  0  0  0  0
  9 10  1  0  0  0  0
  9 11  1  0  0  0  0
  9 16  1  0  0  0  0
  7  8  1  0  0  0  0
  7  9  1  0  0  0  0
 20 21  1  0  0  0  0
 20 22  1  0  0  0  0
 20 23  1  0  0  0  0
 18 19  1  0  0  0  0
 18 20  1  0  0  0  0
M  END
$$$$
default_name
  -OEChem-02102213163D

 23 22  0     1  0  0  0  0  0999 V2000
   -2.6857   -3.6684    0.8743 H   0  0  0  0  0  0  0  0  0  0  0  0
   -2.6617   -2.6474    0.4953 C   0  0  0  0  0  0  0  0  0  0  0  0
   -3.2657   -2.0054    1.1353 H   0  0  0  0  0  0  0  0  0  0  0  0
   -3.0477   -2.6254   -0.5217 H   0  0  0  0  0  0  0  0  0  0  0  0
   -1.2337   -2.1564    0.4993 C   0  0  0  0  0  0  0  0  0  0  0  0
   -0.3327   -2.8864    0.8893 O   0  0  0  0  0  0  0  0  0  0  0  0
   -1.0277   -0.9164    0.0623 N   0  0  0  0  0  0  0  0  0  0  0  0
   -1.8237   -0.3604   -0.2157 H   0  0  0  0  0  0  0  0  0  0  0  0
    0.2713   -0.2414    0.0463 C   0  0  1  0  0  0  0  0  0  0  0  0
    0.9550   -0.7800    0.7055 H   0  0  0  0  0  0  0  0  0  0  0  0
    0.8321   -0.2955   -1.3843 C   0  0  0  0  0  0  0  0  0  0  0  0
    1.7898   -0.8206   -1.3685 H   0  0  0  0  0  0  0  0  0  0  0  0
    0.1405   -0.8454   -2.0258 H   0  0  0  0  0  0  0  0  0  0  0  0
    1.0966    1.3742   -2.0501 S   0  0  0  0  0  0  0  0  0  0  0  0
    1.6751    1.0045   -3.1990 H   0  0  0  0  0  0  0  0  0  0  0  0
    0.1277    1.1982    0.5808 C   0  0  0  0  0  0  0  0  0  0  0  0
   -0.8089    1.9029    0.2029 O   0  0  0  0  0  0  0  0  0  0  0  0
    1.0407    1.6321    1.4575 N   0  0  0  0  0  0  0  0  0  0  0  0
    1.8120    1.0149    1.6665 H   0  0  0  0  0  0  0  0  0  0  0  0
    1.0383    2.9638    2.0601 C   0  0  0  0  0  0  0  0  0  0  0  0
    0.0490    3.1832    2.4681 H   0  0  0  0  0  0  0  0  0  0  0  0
    1.7769    3.0168    2.8608 H   0  0  0  0  0  0  0  0  0  0  0  0
    1.2752    3.7104    1.3002 H   0  0  0  0  0  0  0  0  0  0  0  0
  5  6  2  0  0  0  0
  5  7  1  0  0  0  0
  2  3  1  0  0  0  0
  2  4  1  0  0  0  0
  2  5  1  0  0  0  0
  1  2  1  0  0  0  0
 16 17  2  0  0  0  0
 16 18  1  0  0  0  0
 14 15  1  0  0  0  0
 11 12  1  0  0  0  0
 11 13  1  0  0  0  0
 11 14  1  0  0  0  0
  9 10  1  0  0  0  0
  9 11  1  0  0  0  0
  9 16  1  0  0  0  0
  7  8  1  0  0  0  0
  7  9  1  0  0  0  0
 20 21  1  0  0  0  0
 20 22  1  0  0  0  0
 20 23  1  0  0  0  0
 18 19  1  0  0  0  0
 18 20  1  0  0  0  0
M  END
$$$$
default_name
  -OEChem-02102213163D

 23 22  0     1  0  0  0  0  0999 V2000
   -2.6857   -3.6684    0.8743 H   0  0  0  0  0  0  0  0  0  0  0  0
   -2.6617   -2.6474    0.4953 C   0  0  0  0  0  0  0  0  0  0  0  0
   -3.2657   -2.0054    1.1353 H   0  0  0  0  0  0  0  0  0  0  0  0
   -3.0477   -2.6254   -0.5217 H   0  0  0  0  0  0  0  0  0  0  0  0
   -1.2337   -2.1564    0.4993 C   0  0  0  0  0  0  0  0  0  0  0  0
   -0.3327   -2.8864    0.8893 O   0  0  0  0  0  0  0  0  0  0  0  0
   -1.0277   -0.9164    0.0623 N   0  0  0  0  0  0  0  0  0  0  0  0
   -1.8237   -0.3604   -0.2157 H   0  0  0  0  0  0  0  0  0  0  0  0
    0.2713   -0.2414    0.0463 C   0  0  1  0  0  0  0  0  0  0  0  0
    0.9550   -0.7800    0.7055 H   0  0  0  0  0  0  0  0  0  0  0  0
    0.8321   -0.2955   -1.3843 C   0  0  0  0  0  0  0  0  0  0  0  0
    1.6349   -1.0353   -1.4211 H   0  0  0  0  0  0  0  0  0  0  0  0
    0.0420   -0.6001   -2.0737 H   0  0  0  0  0  0  0  0  0  0  0  0
    1.5039    1.3157   -1.8882 S   0  0  0  0  0  0  0  0  0  0  0  0
    2.0002    0.9262   -3.0686 H   0  0  0  0  0  0  0  0  0  0  0  0
    0.1277    1.1982    0.5808 C   0  0  0  0  0  0  0  0  0  0  0  0
   -0.8089    1.9029    0.2029 O   0  0  0  0  0  0  0  0  0  0  0  0
    1.0407    1.6321    1.4575 N   0  0  0  0  0  0  0  0  0  0  0  0
    1.8120    1.0149    1.6665 H   0  0  0  0  0  0  0  0  0  0  0  0
    1.0383    2.9638    2.0601 C   0  0  0  0  0  0  0  0  0  0  0  0
    0.0490    3.1832    2.4681 H   0  0  0  0  0  0  0  0  0  0  0  0
    1.7769    3.0168    2.8608 H   0  0  0  0  0  0  0  0  0  0  0  0
    1.2752    3.7104    1.3002 H   0  0  0  0  0  0  0  0  0  0  0  0
  5  6  2  0  0  0  0
  5  7  1  0  0  0  0
  2  3  1  0  0  0  0
  2  4  1  0  0  0  0
  2  5  1  0  0  0  0
  1  2  1  0  0  0  0
 16 17  2  0  0  0  0
 16 18  1  0  0  0  0
 14 15  1  0  0  0  0
 11 12  1  0  0  0  0
 11 13  1  0  0  0  0
 11 14  1  0  0  0  0
  9 10  1  0  0  0  0
  9 11  1  0  0  0  0
  9 16  1  0  0  0  0
  7  8  1  0  0  0  0
  7  9  1  0  0  0  0
 20 21  1  0  0  0  0
 20 22  1  0  0  0  0
 20 23  1  0  0  0  0
 18 19  1  0  0  0  0
 18 20  1  0  0  0  0
M  END
$$$$
default_name
  -OEChem-02102213163D

 23 22  0     1  0  0  0  0  0999 V2000
   -2.6857   -3.6684    0.8743 H   0  0  0  0  0  0  0  0  0  0  0  0
   -2.6617   -2.6474    0.4953 C   0  0  0  0  0  0  0  0  0  0  0  0
   -3.2657   -2.0054    1.1353 H   0  0  0  0  0  0  0  0  0  0  0  0
   -3.0477   -2.6254   -0.5217 H   0  0  0  0  0  0  0  0  0  0  0  0
   -1.2337   -2.1564    0.4993 C   0  0  0  0  0  0  0  0  0  0  0  0
   -0.3327   -2.8864    0.8893 O   0  0  0  0  0  0  0  0  0  0  0  0
   -1.0277   -0.9164    0.0623 N   0  0  0  0  0  0  0  0  0  0  0  0
   -1.8237   -0.3604   -0.2157 H   0  0  0  0  0  0  0  0  0  0  0  0
    0.2713   -0.2414    0.0463 C   0  0  1  0  0  0  0  0  0  0  0  0
    0.9550   -0.7800    0.7055 H   0  0  0  0  0  0  0  0  0  0  0  0
    0.8321   -0.2955   -1.3843 C   0  0  0  0  0  0  0  0  0  0  0  0
    1.4341   -1.2004   -1.4935 H   0  0  0  0  0  0  0  0  0  0  0  0
    0.0064   -0.3348   -2.0977 H   0  0  0  0  0  0  0  0  0  0  0  0
    1.8818    1.1458   -1.7337 S   0  0  0  0  0  0  0  0  0  0  0  0
    2.2942    0.7599   -2.9471 H   0  0  0  0  0  0  0  0  0  0  0  0
    0.1277    1.1982    0.5808 C   0  0  0  0  0  0  0  0  0  0  0  0
   -0.8089    1.9029    0.2029 O   0  0  0  0  0  0  0  0  0  0  0  0
    1.0407    1.6321    1.4575 N   0  0  0  0  0  0  0  0  0  0  0  0
    1.8120    1.0149    1.6665 H   0  0  0  0  0  0  0  0  0  0  0  0
    1.0383    2.9638    2.0601 C   0  0  0  0  0  0  0  0  0  0  0  0
    0.0490    3.1832    2.4681 H   0  0  0  0  0  0  0  0  0  0  0  0
    1.7769    3.0168    2.8608 H   0  0  0  0  0  0  0  0  0  0  0  0
    1.2752    3.7104    1.3002 H   0  0  0  0  0  0  0  0  0  0  0  0
  5  6  2  0  0  0  0
  5  7  1  0  0  0  0
  2  3  1  0  0  0  0
  2  4  1  0  0  0  0
  2  5  1  0  0  0  0
  1  2  1  0  0  0  0
 16 17  2  0  0  0  0
 16 18  1  0  0  0  0
 14 15  1  0  0  0  0
 11 12  1  0  0  0  0
 11 13  1  0  0  0  0
 11 14  1  0  0  0  0
  9 10  1  0  0  0  0
  9 11  1  0  0  0  0
  9 16  1  0  0  0  0
  7  8  1  0  0  0  0
  7  9  1  0  0  0  0
 20 21  1  0  0  0  0
 20 22  1  0  0  0  0
 20 23  1  0  0  0  0
 18 19  1  0  0  0  0
 18 20  1  0  0  0  0
M  END
$$$$
default_name
  -OEChem-02102213163D

 23 22  0     1  0  0  0  0  0999 V2000
   -2.6857   -3.6684    0.8743 H   0  0  0  0  0  0  0  0  0  0  0  0
   -2.6617   -2.6474    0.4953 C   0  0  0  0  0  0  0  0  0  0  0  0
   -3.2657   -2.0054    1.1353 H   0  0  0  0  0  0  0  0  0  0  0  0
   -3.0477   -2.6254   -0.5217 H   0  0  0  0  0  0  0  0  0  0  0  0
   -1.2337   -2.1564    0.4993 C   0  0  0  0  0  0  0  0  0  0  0  0
   -0.3327   -2.8864    0.8893 O   0  0  0  0  0  0  0  0  0  0  0  0
   -1.0277   -0.9164    0.0623 N   0  0  0  0  0  0  0  0  0  0  0  0
   -1.8237   -0.3604   -0.2157 H   0  0  0  0  0  0  0  0  0  0  0  0
    0.2713   -0.2414    0.0463 C   0  0  1  0  0  0  0  0  0  0  0  0
    0.9550   -0.7800    0.7055 H   0  0  0  0  0  0  0  0  0  0  0  0
    0.8321   -0.2955   -1.3843 C   0  0  0  0  0  0  0  0  0  0  0  0
    1.2011   -1.3047   -1.5809 H   0  0  0  0  0  0  0  0  0  0  0  0
    0.0361   -0.0677   -2.0962 H   0  0  0  0  0  0  0  0  0  0  0  0
    2.2044    0.8761   -1.5970 S   0  0  0  0  0  0  0  0  0  0  0  0
    2.5370    0.5170   -2.8428 H   0  0  0  0  0  0  0  0  0  0  0  0
    0.1277    1.1982    0.5808 C   0  0  0  0  0  0  0  0  0  0  0  0
   -0.8089    1.9029    0.2029 O   0  0  0  0  0  0  0  0  0  0  0  0
    1.0407    1.6321    1.4575 N   0  0  0  0  0  0  0  0  0  0  0  0
    1.8120    1.0149    1.6665 H   0  0  0  0  0  0  0  0  0  0  0  0
    1.0383    2.9638    2.0601 C   0  0  0  0  0  0  0  0  0  0  0  0
    0.0490    3.1832    2.4681 H   0  0  0  0  0  0  0  0  0  0  0  0
    1.7769    3.0168    2.8608 H   0  0  0  0  0  0  0  0  0  0  0  0
    1.2752    3.7104    1.3002 H   0  0  0  0  0  0  0  0  0  0  0  0
  5  6  2  0  0  0  0
  5  7  1  0  0  0  0
  2  3  1  0  0  0  0
  2  4  1  0  0  0  0
  2  5  1  0  0  0  0
  1  2  1  0  0  0  0
 16 17  2  0  0  0  0
 16 18  1  0  0  0  0
 14 15  1  0  0  0  0
 11 12  1  0  0  0  0
 11 13  1  0  0  0  0
 11 14  1  0  0  0  0
  9 10  1  0  0  0  0
  9 11  1  0  0  0  0
  9 16  1  0  0  0  0
  7  8  1  0  0  0  0
  7  9  1  0  0  0  0
 20 21  1  0  0  0  0
 20 22  1  0  0  0  0
 20 23  1  0  0  0  0
 18 19  1  0  0  0  0
 18 20  1  0  0  0  0
M  END
$$$$
