
  -OEChem-02102214123D

 23 22  0     1  0  0  0  0  0999 V2000
   -2.3844   -3.4403   -0.2152 H   0  0  0  0  0  0  0  0  0  0  0  0
   -2.3579   -2.4266   -0.6258 C   0  0  0  0  0  0  0  0  0  0  0  0
   -3.1106   -1.8214   -0.1152 H   0  0  0  0  0  0  0  0  0  0  0  0
   -2.5963   -2.4741   -1.6910 H   0  0  0  0  0  0  0  0  0  0  0  0
   -0.9811   -1.8209   -0.4276 C   0  0  0  0  0  0  0  0  0  0  0  0
   -0.1232   -2.4538    0.1582 O   0  0  0  0  0  0  0  0  0  0  0  0
   -0.7154   -0.5537   -0.9108 N   0  0  0  0  0  0  0  0  0  0  0  0
   -1.4418   -0.1319   -1.4808 H   0  0  0  0  0  0  0  0  0  0  0  0
    0.6239    0.0742   -0.9024 C   0  0  1  0  0  0  0  0  0  0  0  0
    1.3179   -0.5449   -1.4821 H   0  0  0  0  0  0  0  0  0  0  0  0
    0.4780    1.4398   -1.5951 C   0  0  0  0  0  0  0  0  0  0  0  0
    0.1067    1.2909   -2.6140 H   0  0  0  0  0  0  0  0  0  0  0  0
   -0.2540    2.0468   -1.0528 H   0  0  0  0  0  0  0  0  0  0  0  0
    2.0660    2.3638   -1.6749 S   0  0  0  0  0  0  0  0  0  0  0  0
    1.6936    3.5005   -2.3015 H   0  0  0  0  0  0  0  0  0  0  0  0
    1.2318    0.2307    0.5133 C   0  0  0  0  0  0  0  0  0  0  0  0
    2.4179    0.0056    0.7149 O   0  0  0  0  0  0  0  0  0  0  0  0
    0.4505    0.7085    1.5515 N   0  0  0  0  0  0  0  0  0  0  0  0
   -0.5492    0.7286    1.3861 H   0  0  0  0  0  0  0  0  0  0  0  0
    0.9373    0.8004    2.9221 C   0  0  0  0  0  0  0  0  0  0  0  0
    1.8250    1.4402    2.9715 H   0  0  0  0  0  0  0  0  0  0  0  0
    0.1674    1.2307    3.5694 H   0  0  0  0  0  0  0  0  0  0  0  0
    1.1977   -0.1931    3.3022 H   0  0  0  0  0  0  0  0  0  0  0  0
  1  2  1  0  0  0  0
  2  3  1  0  0  0  0
  2  4  1  0  0  0  0
  2  5  1  0  0  0  0
  5  6  2  0  0  0  0
  5  7  1  0  0  0  0
  7  8  1  0  0  0  0
  7  9  1  0  0  0  0
  9 10  1  0  0  0  0
  9 11  1  0  0  0  0
  9 16  1  0  0  0  0
 11 12  1  0  0  0  0
 11 13  1  0  0  0  0
 11 14  1  0  0  0  0
 14 15  1  0  0  0  0
 16 17  2  0  0  0  0
 16 18  1  0  0  0  0
 18 19  1  0  0  0  0
 18 20  1  0  0  0  0
 20 21  1  0  0  0  0
 20 22  1  0  0  0  0
 20 23  1  0  0  0  0
M  END
$$$$

  -OEChem-02102214123D

 23 22  0     1  0  0  0  0  0999 V2000
   -2.3995   -3.4462   -0.2053 H   0  0  0  0  0  0  0  0  0  0  0  0
   -2.3663   -2.4449   -0.6446 C   0  0  0  0  0  0  0  0  0  0  0  0
   -3.1382   -1.8301   -0.1756 H   0  0  0  0  0  0  0  0  0  0  0  0
   -2.5710   -2.5246   -1.7150 H   0  0  0  0  0  0  0  0  0  0  0  0
   -1.0002   -1.8240   -0.4220 C   0  0  0  0  0  0  0  0  0  0  0  0
   -0.1469   -2.4432    0.1848 O   0  0  0  0  0  0  0  0  0  0  0  0
   -0.7403   -0.5550   -0.9024 N   0  0  0  0  0  0  0  0  0  0  0  0
   -1.4604   -0.1466   -1.4900 H   0  0  0  0  0  0  0  0  0  0  0  0
    0.5980    0.0744   -0.8987 C   0  0  1  0  0  0  0  0  0  0  0  0
    1.2800   -0.5497   -1.4872 H   0  0  0  0  0  0  0  0  0  0  0  0
    0.4630    1.4432   -1.5843 C   0  0  0  0  0  0  0  0  0  0  0  0
   -0.1311    1.3395   -2.4974 H   0  0  0  0  0  0  0  0  0  0  0  0
   -0.0566    2.1417   -0.9202 H   0  0  0  0  0  0  0  0  0  0  0  0
    2.1035    2.1339   -2.0421 S   0  0  0  0  0  0  0  0  0  0  0  0
    1.7606    3.3352   -2.5547 H   0  0  0  0  0  0  0  0  0  0  0  0
    1.2252    0.2327    0.5073 C   0  0  0  0  0  0  0  0  0  0  0  0
    2.4235    0.0579    0.6835 O   0  0  0  0  0  0  0  0  0  0  0  0
    0.4540    0.7091    1.5535 N   0  0  0  0  0  0  0  0  0  0  0  0
   -0.5497    0.6863    1.4110 H   0  0  0  0  0  0  0  0  0  0  0  0
    0.9644    0.8217    2.9141 C   0  0  0  0  0  0  0  0  0  0  0  0
    1.8374    1.4825    2.9426 H   0  0  0  0  0  0  0  0  0  0  0  0
    0.1969    1.2381    3.5733 H   0  0  0  0  0  0  0  0  0  0  0  0
    1.2555   -0.1628    3.2957 H   0  0  0  0  0  0  0  0  0  0  0  0
  1  2  1  0  0  0  0
  2  3  1  0  0  0  0
  2  4  1  0  0  0  0
  2  5  1  0  0  0  0
  5  6  2  0  0  0  0
  5  7  1  0  0  0  0
  7  8  1  0  0  0  0
  7  9  1  0  0  0  0
  9 10  1  0  0  0  0
  9 11  1  0  0  0  0
  9 16  1  0  0  0  0
 11 12  1  0  0  0  0
 11 13  1  0  0  0  0
 11 14  1  0  0  0  0
 14 15  1  0  0  0  0
 16 17  2  0  0  0  0
 16 18  1  0  0  0  0
 18 19  1  0  0  0  0
 18 20  1  0  0  0  0
 20 21  1  0  0  0  0
 20 22  1  0  0  0  0
 20 23  1  0  0  0  0
M  END
$$$$

  -OEChem-02102214123D

 23 22  0     1  0  0  0  0  0999 V2000
   -2.3916   -3.4761   -0.2397 H   0  0  0  0  0  0  0  0  0  0  0  0
   -2.3726   -2.4666   -0.6605 C   0  0  0  0  0  0  0  0  0  0  0  0
   -3.1616   -1.8751   -0.1905 H   0  0  0  0  0  0  0  0  0  0  0  0
   -2.5635   -2.5317   -1.7342 H   0  0  0  0  0  0  0  0  0  0  0  0
   -1.0215   -1.8234   -0.4111 C   0  0  0  0  0  0  0  0  0  0  0  0
   -0.1730   -2.4251    0.2202 O   0  0  0  0  0  0  0  0  0  0  0  0
   -0.7717   -0.5511   -0.8887 N   0  0  0  0  0  0  0  0  0  0  0  0
   -1.4824   -0.1635   -1.5013 H   0  0  0  0  0  0  0  0  0  0  0  0
    0.5660    0.0800   -0.8925 C   0  0  1  0  0  0  0  0  0  0  0  0
    1.2355   -0.5540   -1.4851 H   0  0  0  0  0  0  0  0  0  0  0  0
    0.4520    1.4524   -1.5782 C   0  0  0  0  0  0  0  0  0  0  0  0
   -0.3350    1.4274   -2.3379 H   0  0  0  0  0  0  0  0  0  0  0  0
    0.1846    2.2208   -0.8452 H   0  0  0  0  0  0  0  0  0  0  0  0
    2.0277    1.9006   -2.4115 S   0  0  0  0  0  0  0  0  0  0  0  0
    1.7686    3.1607   -2.8230 H   0  0  0  0  0  0  0  0  0  0  0  0
    1.2131    0.2370    0.5036 C   0  0  0  0  0  0  0  0  0  0  0  0
    2.4220    0.1159    0.6493 O   0  0  0  0  0  0  0  0  0  0  0  0
    0.4539    0.7095    1.5599 N   0  0  0  0  0  0  0  0  0  0  0  0
   -0.5515    0.6479    1.4406 H   0  0  0  0  0  0  0  0  0  0  0  0
    0.9885    0.8359    2.9099 C   0  0  0  0  0  0  0  0  0  0  0  0
    1.8441    1.5195    2.9216 H   0  0  0  0  0  0  0  0  0  0  0  0
    0.2234    1.2316    3.5844 H   0  0  0  0  0  0  0  0  0  0  0  0
    1.3129   -0.1405    3.2853 H   0  0  0  0  0  0  0  0  0  0  0  0
  1  2  1  0  0  0  0
  2  3  1  0  0  0  0
  2  4  1  0  0  0  0
  2  5  1  0  0  0  0
  5  6  2  0  0  0  0
  5  7  1  0  0  0  0
  7  8  1  0  0  0  0
  7  9  1  0  0  0  0
  9 10  1  0  0  0  0
  9 11  1  0  0  0  0
  9 16  1  0  0  0  0
 11 12  1  0  0  0  0
 11 13  1  0  0  0  0
 11 14  1  0  0  0  0
 14 15  1  0  0  0  0
 16 17  2  0  0  0  0
 16 18  1  0  0  0  0
 18 19  1  0  0  0  0
 18 20  1  0  0  0  0
 20 21  1  0  0  0  0
 20 22  1  0  0  0  0
 20 23  1  0  0  0  0
M  END
$$$$

  -OEChem-02102214123D

 23 22  0     1  0  0  0  0  0999 V2000
   -2.4039   -3.4784   -0.2263 H   0  0  0  0  0  0  0  0  0  0  0  0
   -2.3789   -2.4802   -0.6732 C   0  0  0  0  0  0  0  0  0  0  0  0
   -3.1824   -1.8809   -0.2387 H   0  0  0  0  0  0  0  0  0  0  0  0
   -2.5426   -2.5739   -1.7494 H   0  0  0  0  0  0  0  0  0  0  0  0
   -1.0376   -1.8233   -0.4072 C   0  0  0  0  0  0  0  0  0  0  0  0
   -0.1923   -2.4153    0.2376 O   0  0  0  0  0  0  0  0  0  0  0  0
   -0.7951   -0.5475   -0.8793 N   0  0  0  0  0  0  0  0  0  0  0  0
   -1.4953   -0.1773   -1.5146 H   0  0  0  0  0  0  0  0  0  0  0  0
    0.5432    0.0830   -0.8886 C   0  0  1  0  0  0  0  0  0  0  0  0
    1.2056   -0.5562   -1.4835 H   0  0  0  0  0  0  0  0  0  0  0  0
    0.4445    1.4634   -1.5669 C   0  0  0  0  0  0  0  0  0  0  0  0
   -0.4965    1.5531   -2.1175 H   0  0  0  0  0  0  0  0  0  0  0  0
    0.4624    2.2591   -0.8141 H   0  0  0  0  0  0  0  0  0  0  0  0
    1.8293    1.7024   -2.7527 S   0  0  0  0  0  0  0  0  0  0  0  0
    1.6671    2.9980   -3.0989 H   0  0  0  0  0  0  0  0  0  0  0  0
    1.2019    0.2309    0.5027 C   0  0  0  0  0  0  0  0  0  0  0  0
    2.4173    0.1588    0.6223 O   0  0  0  0  0  0  0  0  0  0  0  0
    0.4520    0.6964    1.5687 N   0  0  0  0  0  0  0  0  0  0  0  0
   -0.5534    0.6039    1.4693 H   0  0  0  0  0  0  0  0  0  0  0  0
    1.0077    0.8427    2.9084 C   0  0  0  0  0  0  0  0  0  0  0  0
    1.8445    1.5493    2.9024 H   0  0  0  0  0  0  0  0  0  0  0  0
    0.2446    1.2202    3.5956 H   0  0  0  0  0  0  0  0  0  0  0  0
    1.3654   -0.1230    3.2814 H   0  0  0  0  0  0  0  0  0  0  0  0
  1  2  1  0  0  0  0
  2  3  1  0  0  0  0
  2  4  1  0  0  0  0
  2  5  1  0  0  0  0
  5  6  2  0  0  0  0
  5  7  1  0  0  0  0
  7  8  1  0  0  0  0
  7  9  1  0  0  0  0
  9 10  1  0  0  0  0
  9 11  1  0  0  0  0
  9 16  1  0  0  0  0
 11 12  1  0  0  0  0
 11 13  1  0  0  0  0
 11 14  1  0  0  0  0
 14 15  1  0  0  0  0
 16 17  2  0  0  0  0
 16 18  1  0  0  0  0
 18 19  1  0  0  0  0
 18 20  1  0  0  0  0
 20 21  1  0  0  0  0
 20 22  1  0  0  0  0
 20 23  1  0  0  0  0
M  END
$$$$

  -OEChem-02102214123D

 23 22  0     1  0  0  0  0  0999 V2000
   -2.4085   -3.4783   -0.2317 H   0  0  0  0  0  0  0  0  0  0  0  0
   -2.3810   -2.4809   -0.6800 C   0  0  0  0  0  0  0  0  0  0  0  0
   -3.1918   -1.8833   -0.2565 H   0  0  0  0  0  0  0  0  0  0  0  0
   -2.5305   -2.5774   -1.7582 H   0  0  0  0  0  0  0  0  0  0  0  0
   -1.0451   -1.8197   -0.3978 C   0  0  0  0  0  0  0  0  0  0  0  0
   -0.2087   -2.4061    0.2639 O   0  0  0  0  0  0  0  0  0  0  0  0
   -0.7994   -0.5455   -0.8723 N   0  0  0  0  0  0  0  0  0  0  0  0
   -1.4855   -0.1903   -1.5313 H   0  0  0  0  0  0  0  0  0  0  0  0
    0.5421    0.0769   -0.8891 C   0  0  1  0  0  0  0  0  0  0  0  0
    1.2064   -0.5592   -1.4851 H   0  0  0  0  0  0  0  0  0  0  0  0
    0.4415    1.4668   -1.5503 C   0  0  0  0  0  0  0  0  0  0  0  0
   -0.5912    1.6902   -1.8343 H   0  0  0  0  0  0  0  0  0  0  0  0
    0.7599    2.2441   -0.8465 H   0  0  0  0  0  0  0  0  0  0  0  0
    1.5110    1.5483   -3.0439 S   0  0  0  0  0  0  0  0  0  0  0  0
    1.4270    2.8590   -3.3606 H   0  0  0  0  0  0  0  0  0  0  0  0
    1.2010    0.2172    0.5030 C   0  0  0  0  0  0  0  0  0  0  0  0
    2.4183    0.1641    0.6146 O   0  0  0  0  0  0  0  0  0  0  0  0
    0.4521    0.6850    1.5685 N   0  0  0  0  0  0  0  0  0  0  0  0
   -0.5530    0.5837    1.4728 H   0  0  0  0  0  0  0  0  0  0  0  0
    1.0102    0.8451    2.9056 C   0  0  0  0  0  0  0  0  0  0  0  0
    1.8405    1.5590    2.8924 H   0  0  0  0  0  0  0  0  0  0  0  0
    0.2459    1.2207    3.5926 H   0  0  0  0  0  0  0  0  0  0  0  0
    1.3774   -0.1150    3.2838 H   0  0  0  0  0  0  0  0  0  0  0  0
  1  2  1  0  0  0  0
  2  3  1  0  0  0  0
  2  4  1  0  0  0  0
  2  5  1  0  0  0  0
  5  6  2  0  0  0  0
  5  7  1  0  0  0  0
  7  8  1  0  0  0  0
  7  9  1  0  0  0  0
  9 10  1  0  0  0  0
  9 11  1  0  0  0  0
  9 16  1  0  0  0  0
 11 12  1  0  0  0  0
 11 13  1  0  0  0  0
 11 14  1  0  0  0  0
 14 15  1  0  0  0  0
 16 17  2  0  0  0  0
 16 18  1  0  0  0  0
 18 19  1  0  0  0  0
 18 20  1  0  0  0  0
 20 21  1  0  0  0  0
 20 22  1  0  0  0  0
 20 23  1  0  0  0  0
M  END
$$$$

  -OEChem-02102214123D

 23 22  0     1  0  0  0  0  0999 V2000
   -2.4129   -3.4798   -0.2429 H   0  0  0  0  0  0  0  0  0  0  0  0
   -2.3820   -2.4831   -0.6926 C   0  0  0  0  0  0  0  0  0  0  0  0
   -3.2029   -1.8881   -0.2853 H   0  0  0  0  0  0  0  0  0  0  0  0
   -2.5118   -2.5824   -1.7730 H   0  0  0  0  0  0  0  0  0  0  0  0
   -1.0542   -1.8154   -0.3884 C   0  0  0  0  0  0  0  0  0  0  0  0
   -0.2273   -2.3973    0.2894 O   0  0  0  0  0  0  0  0  0  0  0  0
   -0.8029   -0.5436   -0.8662 N   0  0  0  0  0  0  0  0  0  0  0  0
   -1.4746   -0.2003   -1.5467 H   0  0  0  0  0  0  0  0  0  0  0  0
    0.5420    0.0704   -0.8876 C   0  0  1  0  0  0  0  0  0  0  0  0
    1.2114   -0.5582   -1.4857 H   0  0  0  0  0  0  0  0  0  0  0  0
    0.4360    1.4668   -1.5298 C   0  0  0  0  0  0  0  0  0  0  0  0
   -0.5990    1.8220   -1.5326 H   0  0  0  0  0  0  0  0  0  0  0  0
    1.0254    2.1884   -0.9521 H   0  0  0  0  0  0  0  0  0  0  0  0
    1.1067    1.4315   -3.2415 S   0  0  0  0  0  0  0  0  0  0  0  0
    1.1172    2.7474   -3.5484 H   0  0  0  0  0  0  0  0  0  0  0  0
    1.1992    0.2065    0.5054 C   0  0  0  0  0  0  0  0  0  0  0  0
    2.4177    0.1648    0.6111 O   0  0  0  0  0  0  0  0  0  0  0  0
    0.4527    0.6790    1.5699 N   0  0  0  0  0  0  0  0  0  0  0  0
   -0.5522    0.5702    1.4787 H   0  0  0  0  0  0  0  0  0  0  0  0
    1.0152    0.8511    2.9034 C   0  0  0  0  0  0  0  0  0  0  0  0
    1.8427    1.5682    2.8809 H   0  0  0  0  0  0  0  0  0  0  0  0
    0.2516    1.2287    3.5899 H   0  0  0  0  0  0  0  0  0  0  0  0
    1.3876   -0.1045    3.2877 H   0  0  0  0  0  0  0  0  0  0  0  0
  1  2  1  0  0  0  0
  2  3  1  0  0  0  0
  2  4  1  0  0  0  0
  2  5  1  0  0  0  0
  5  6  2  0  0  0  0
  5  7  1  0  0  0  0
  7  8  1  0  0  0  0
  7  9  1  0  0  0  0
  9 10  1  0  0  0  0
  9 11  1  0  0  0  0
  9 16  1  0  0  0  0
 11 12  1  0  0  0  0
 11 13  1  0  0  0  0
 11 14  1  0  0  0  0
 14 15  1  0  0  0  0
 16 17  2  0  0  0  0
 16 18  1  0  0  0  0
 18 19  1  0  0  0  0
 18 20  1  0  0  0  0
 20 21  1  0  0  0  0
 20 22  1  0  0  0  0
 20 23  1  0  0  0  0
M  END
$$$$

  -OEChem-02102214123D

 23 22  0     1  0  0  0  0  0999 V2000
   -2.4194   -3.4750   -0.2532 H   0  0  0  0  0  0  0  0  0  0  0  0
   -2.3827   -2.4782   -0.7022 C   0  0  0  0  0  0  0  0  0  0  0  0
   -3.2052   -1.8813   -0.3011 H   0  0  0  0  0  0  0  0  0  0  0  0
   -2.5040   -2.5764   -1.7837 H   0  0  0  0  0  0  0  0  0  0  0  0
   -1.0560   -1.8133   -0.3875 C   0  0  0  0  0  0  0  0  0  0  0  0
   -0.2374   -2.3934    0.3020 O   0  0  0  0  0  0  0  0  0  0  0  0
   -0.7974   -0.5438   -0.8666 N   0  0  0  0  0  0  0  0  0  0  0  0
   -1.4579   -0.2036   -1.5601 H   0  0  0  0  0  0  0  0  0  0  0  0
    0.5485    0.0655   -0.8839 C   0  0  1  0  0  0  0  0  0  0  0  0
    1.2220   -0.5540   -1.4873 H   0  0  0  0  0  0  0  0  0  0  0  0
    0.4346    1.4630   -1.5114 C   0  0  0  0  0  0  0  0  0  0  0  0
   -0.5266    1.9260   -1.2669 H   0  0  0  0  0  0  0  0  0  0  0  0
    1.2231    2.1102   -1.1102 H   0  0  0  0  0  0  0  0  0  0  0  0
    0.6672    1.3543   -3.3318 S   0  0  0  0  0  0  0  0  0  0  0  0
    0.7403    2.6622   -3.6643 H   0  0  0  0  0  0  0  0  0  0  0  0
    1.2018    0.2032    0.5101 C   0  0  0  0  0  0  0  0  0  0  0  0
    2.4208    0.1655    0.6143 O   0  0  0  0  0  0  0  0  0  0  0  0
    0.4551    0.6806    1.5723 N   0  0  0  0  0  0  0  0  0  0  0  0
   -0.5497    0.5692    1.4812 H   0  0  0  0  0  0  0  0  0  0  0  0
    1.0168    0.8527    2.9063 C   0  0  0  0  0  0  0  0  0  0  0  0
    1.8476    1.5658    2.8841 H   0  0  0  0  0  0  0  0  0  0  0  0
    0.2547    1.2353    3.5917 H   0  0  0  0  0  0  0  0  0  0  0  0
    1.3842   -0.1038    3.2928 H   0  0  0  0  0  0  0  0  0  0  0  0
  1  2  1  0  0  0  0
  2  3  1  0  0  0  0
  2  4  1  0  0  0  0
  2  5  1  0  0  0  0
  5  6  2  0  0  0  0
  5  7  1  0  0  0  0
  7  8  1  0  0  0  0
  7  9  1  0  0  0  0
  9 10  1  0  0  0  0
  9 11  1  0  0  0  0
  9 16  1  0  0  0  0
 11 12  1  0  0  0  0
 11 13  1  0  0  0  0
 11 14  1  0  0  0  0
 14 15  1  0  0  0  0
 16 17  2  0  0  0  0
 16 18  1  0  0  0  0
 18 19  1  0  0  0  0
 18 20  1  0  0  0  0
 20 21  1  0  0  0  0
 20 22  1  0  0  0  0
 20 23  1  0  0  0  0
M  END
$$$$

  -OEChem-02102214123D

 23 22  0     1  0  0  0  0  0999 V2000
   -2.4264   -3.4712   -0.2709 H   0  0  0  0  0  0  0  0  0  0  0  0
   -2.3844   -2.4735   -0.7173 C   0  0  0  0  0  0  0  0  0  0  0  0
   -3.2090   -1.8761   -0.3212 H   0  0  0  0  0  0  0  0  0  0  0  0
   -2.4975   -2.5682   -1.8000 H   0  0  0  0  0  0  0  0  0  0  0  0
   -1.0595   -1.8110   -0.3907 C   0  0  0  0  0  0  0  0  0  0  0  0
   -0.2470   -2.3919    0.3059 O   0  0  0  0  0  0  0  0  0  0  0  0
   -0.7958   -0.5412   -0.8649 N   0  0  0  0  0  0  0  0  0  0  0  0
   -1.4467   -0.1993   -1.5676 H   0  0  0  0  0  0  0  0  0  0  0  0
    0.5503    0.0650   -0.8734 C   0  0  1  0  0  0  0  0  0  0  0  0
    1.2213   -0.5516   -1.4821 H   0  0  0  0  0  0  0  0  0  0  0  0
    0.4365    1.4597   -1.4980 C   0  0  0  0  0  0  0  0  0  0  0  0
   -0.3970    2.0149   -1.0559 H   0  0  0  0  0  0  0  0  0  0  0  0
    1.3555    2.0225   -1.2978 H   0  0  0  0  0  0  0  0  0  0  0  0
    0.2286    1.3129   -3.3196 S   0  0  0  0  0  0  0  0  0  0  0  0
    0.3447    2.6052   -3.6978 H   0  0  0  0  0  0  0  0  0  0  0  0
    1.2053    0.2022    0.5189 C   0  0  0  0  0  0  0  0  0  0  0  0
    2.4248    0.1681    0.6187 O   0  0  0  0  0  0  0  0  0  0  0  0
    0.4605    0.6806    1.5819 N   0  0  0  0  0  0  0  0  0  0  0  0
   -0.5441    0.5639    1.4943 H   0  0  0  0  0  0  0  0  0  0  0  0
    1.0248    0.8561    2.9145 C   0  0  0  0  0  0  0  0  0  0  0  0
    1.8557    1.5690    2.8887 H   0  0  0  0  0  0  0  0  0  0  0  0
    0.2640    1.2408    3.6004 H   0  0  0  0  0  0  0  0  0  0  0  0
    1.3925   -0.0997    3.3026 H   0  0  0  0  0  0  0  0  0  0  0  0
  1  2  1  0  0  0  0
  2  3  1  0  0  0  0
  2  4  1  0  0  0  0
  2  5  1  0  0  0  0
  5  6  2  0  0  0  0
  5  7  1  0  0  0  0
  7  8  1  0  0  0  0
  7  9  1  0  0  0  0
  9 10  1  0  0  0  0
  9 11  1  0  0  0  0
  9 16  1  0  0  0  0
 11 12  1  0  0  0  0
 11 13  1  0  0  0  0
 11 14  1  0  0  0  0
 14 15  1  0  0  0  0
 16 17  2  0  0  0  0
 16 18  1  0  0  0  0
 18 19  1  0  0  0  0
 18 20  1  0  0  0  0
 20 21  1  0  0  0  0
 20 22  1  0  0  0  0
 20 23  1  0  0  0  0
M  END
$$$$

  -OEChem-02102214123D

 23 22  0     1  0  0  0  0  0999 V2000
   -2.4227   -3.4795   -0.3000 H   0  0  0  0  0  0  0  0  0  0  0  0
   -2.3874   -2.4729   -0.7264 C   0  0  0  0  0  0  0  0  0  0  0  0
   -3.2116   -1.8865   -0.3133 H   0  0  0  0  0  0  0  0  0  0  0  0
   -2.5074   -2.5464   -1.8101 H   0  0  0  0  0  0  0  0  0  0  0  0
   -1.0628   -1.8126   -0.3943 C   0  0  0  0  0  0  0  0  0  0  0  0
   -0.2505   -2.3976    0.2993 O   0  0  0  0  0  0  0  0  0  0  0  0
   -0.7968   -0.5410   -0.8610 N   0  0  0  0  0  0  0  0  0  0  0  0
   -1.4462   -0.1887   -1.5608 H   0  0  0  0  0  0  0  0  0  0  0  0
    0.5475    0.0670   -0.8610 C   0  0  1  0  0  0  0  0  0  0  0  0
    1.2128   -0.5544   -1.4705 H   0  0  0  0  0  0  0  0  0  0  0  0
    0.4460    1.4570   -1.4969 C   0  0  0  0  0  0  0  0  0  0  0  0
   -0.2193    2.0956   -0.9066 H   0  0  0  0  0  0  0  0  0  0  0  0
    1.4376    1.9237   -1.5049 H   0  0  0  0  0  0  0  0  0  0  0  0
   -0.1769    1.3247   -3.2248 S   0  0  0  0  0  0  0  0  0  0  0  0
   -0.0336    2.6002   -3.6492 H   0  0  0  0  0  0  0  0  0  0  0  0
    1.2065    0.2048    0.5281 C   0  0  0  0  0  0  0  0  0  0  0  0
    2.4266    0.1766    0.6214 O   0  0  0  0  0  0  0  0  0  0  0  0
    0.4638    0.6805    1.5935 N   0  0  0  0  0  0  0  0  0  0  0  0
   -0.5410    0.5625    1.5083 H   0  0  0  0  0  0  0  0  0  0  0  0
    1.0314    0.8573    2.9242 C   0  0  0  0  0  0  0  0  0  0  0  0
    1.8627    1.5698    2.8955 H   0  0  0  0  0  0  0  0  0  0  0  0
    0.2723    1.2432    3.6114 H   0  0  0  0  0  0  0  0  0  0  0  0
    1.3997   -0.0981    3.3128 H   0  0  0  0  0  0  0  0  0  0  0  0
  1  2  1  0  0  0  0
  2  3  1  0  0  0  0
  2  4  1  0  0  0  0
  2  5  1  0  0  0  0
  5  6  2  0  0  0  0
  5  7  1  0  0  0  0
  7  8  1  0  0  0  0
  7  9  1  0  0  0  0
  9 10  1  0  0  0  0
  9 11  1  0  0  0  0
  9 16  1  0  0  0  0
 11 12  1  0  0  0  0
 11 13  1  0  0  0  0
 11 14  1  0  0  0  0
 14 15  1  0  0  0  0
 16 17  2  0  0  0  0
 16 18  1  0  0  0  0
 18 19  1  0  0  0  0
 18 20  1  0  0  0  0
 20 21  1  0  0  0  0
 20 22  1  0  0  0  0
 20 23  1  0  0  0  0
M  END
$$$$

  -OEChem-02102214123D

 23 22  0     1  0  0  0  0  0999 V2000
   -2.4181   -3.4952   -0.3170 H   0  0  0  0  0  0  0  0  0  0  0  0
   -2.3920   -2.4804   -0.7240 C   0  0  0  0  0  0  0  0  0  0  0  0
   -3.2121   -1.9047   -0.2884 H   0  0  0  0  0  0  0  0  0  0  0  0
   -2.5267   -2.5330   -1.8071 H   0  0  0  0  0  0  0  0  0  0  0  0
   -1.0648   -1.8223   -0.3985 C   0  0  0  0  0  0  0  0  0  0  0  0
   -0.2437   -2.4126    0.2804 O   0  0  0  0  0  0  0  0  0  0  0  0
   -0.8027   -0.5473   -0.8564 N   0  0  0  0  0  0  0  0  0  0  0  0
   -1.4624   -0.1790   -1.5391 H   0  0  0  0  0  0  0  0  0  0  0  0
    0.5378    0.0691   -0.8513 C   0  0  1  0  0  0  0  0  0  0  0  0
    1.1972   -0.5622   -1.4570 H   0  0  0  0  0  0  0  0  0  0  0  0
    0.4607    1.4537   -1.5094 C   0  0  0  0  0  0  0  0  0  0  0  0
    0.0007    2.1667   -0.8171 H   0  0  0  0  0  0  0  0  0  0  0  0
    1.4757    1.8059   -1.7238 H   0  0  0  0  0  0  0  0  0  0  0  0
   -0.5270    1.4087   -3.0665 S   0  0  0  0  0  0  0  0  0  0  0  0
   -0.3562    2.6733   -3.5135 H   0  0  0  0  0  0  0  0  0  0  0  0
    1.2024    0.2069    0.5347 C   0  0  0  0  0  0  0  0  0  0  0  0
    2.4234    0.1911    0.6194 O   0  0  0  0  0  0  0  0  0  0  0  0
    0.4623    0.6738    1.6057 N   0  0  0  0  0  0  0  0  0  0  0  0
   -0.5427    0.5537    1.5245 H   0  0  0  0  0  0  0  0  0  0  0  0
    1.0352    0.8595    2.9331 C   0  0  0  0  0  0  0  0  0  0  0  0
    1.8589    1.5804    2.8991 H   0  0  0  0  0  0  0  0  0  0  0  0
    0.2753    1.2393    3.6226 H   0  0  0  0  0  0  0  0  0  0  0  0
    1.4153   -0.0910    3.3223 H   0  0  0  0  0  0  0  0  0  0  0  0
  1  2  1  0  0  0  0
  2  3  1  0  0  0  0
  2  4  1  0  0  0  0
  2  5  1  0  0  0  0
  5  6  2  0  0  0  0
  5  7  1  0  0  0  0
  7  8  1  0  0  0  0
  7  9  1  0  0  0  0
  9 10  1  0  0  0  0
  9 11  1  0  0  0  0
  9 16  1  0  0  0  0
 11 12  1  0  0  0  0
 11 13  1  0  0  0  0
 11 14  1  0  0  0  0
 14 15  1  0  0  0  0
 16 17  2  0  0  0  0
 16 18  1  0  0  0  0
 18 19  1  0  0  0  0
 18 20  1  0  0  0  0
 20 21  1  0  0  0  0
 20 22  1  0  0  0  0
 20 23  1  0  0  0  0
M  END
$$$$

  -OEChem-02102214123D

 23 22  0     1  0  0  0  0  0999 V2000
   -2.4051   -3.5095   -0.3118 H   0  0  0  0  0  0  0  0  0  0  0  0
   -2.3902   -2.4863   -0.6976 C   0  0  0  0  0  0  0  0  0  0  0  0
   -3.1909   -1.9174   -0.2192 H   0  0  0  0  0  0  0  0  0  0  0  0
   -2.5659   -2.5152   -1.7756 H   0  0  0  0  0  0  0  0  0  0  0  0
   -1.0494   -1.8385   -0.4082 C   0  0  0  0  0  0  0  0  0  0  0  0
   -0.2065   -2.4416    0.2317 O   0  0  0  0  0  0  0  0  0  0  0  0
   -0.7980   -0.5581   -0.8567 N   0  0  0  0  0  0  0  0  0  0  0  0
   -1.4848   -0.1633   -1.4970 H   0  0  0  0  0  0  0  0  0  0  0  0
    0.5334    0.0777   -0.8500 C   0  0  1  0  0  0  0  0  0  0  0  0
    1.1938   -0.5599   -1.4479 H   0  0  0  0  0  0  0  0  0  0  0  0
    0.4732    1.4576   -1.5313 C   0  0  0  0  0  0  0  0  0  0  0  0
    0.2490    2.2243   -0.7820 H   0  0  0  0  0  0  0  0  0  0  0  0
    1.4569    1.6900   -1.9539 H   0  0  0  0  0  0  0  0  0  0  0  0
   -0.8168    1.5486   -2.8506 S   0  0  0  0  0  0  0  0  0  0  0  0
   -0.6069    2.7965   -3.3268 H   0  0  0  0  0  0  0  0  0  0  0  0
    1.1971    0.2169    0.5360 C   0  0  0  0  0  0  0  0  0  0  0  0
    2.4181    0.2119    0.6214 O   0  0  0  0  0  0  0  0  0  0  0  0
    0.4517    0.6667    1.6106 N   0  0  0  0  0  0  0  0  0  0  0  0
   -0.5535    0.5534    1.5229 H   0  0  0  0  0  0  0  0  0  0  0  0
    1.0200    0.8454    2.9409 C   0  0  0  0  0  0  0  0  0  0  0  0
    1.8425    1.5680    2.9139 H   0  0  0  0  0  0  0  0  0  0  0  0
    0.2574    1.2194    3.6307 H   0  0  0  0  0  0  0  0  0  0  0  0
    1.4005   -0.1069    3.3249 H   0  0  0  0  0  0  0  0  0  0  0  0
  1  2  1  0  0  0  0
  2  3  1  0  0  0  0
  2  4  1  0  0  0  0
  2  5  1  0  0  0  0
  5  6  2  0  0  0  0
  5  7  1  0  0  0  0
  7  8  1  0  0  0  0
  7  9  1  0  0  0  0
  9 10  1  0  0  0  0
  9 11  1  0  0  0  0
  9 16  1  0  0  0  0
 11 12  1  0  0  0  0
 11 13  1  0  0  0  0
 11 14  1  0  0  0  0
 14 15  1  0  0  0  0
 16 17  2  0  0  0  0
 16 18  1  0  0  0  0
 18 19  1  0  0  0  0
 18 20  1  0  0  0  0
 20 21  1  0  0  0  0
 20 22  1  0  0  0  0
 20 23  1  0  0  0  0
M  END
$$$$

  -OEChem-02102214123D

 23 22  0     1  0  0  0  0  0999 V2000
   -2.3914   -3.5198   -0.2961 H   0  0  0  0  0  0  0  0  0  0  0  0
   -2.3856   -2.4922   -0.6704 C   0  0  0  0  0  0  0  0  0  0  0  0
   -3.1671   -1.9259   -0.1582 H   0  0  0  0  0  0  0  0  0  0  0  0
   -2.5985   -2.5078   -1.7420 H   0  0  0  0  0  0  0  0  0  0  0  0
   -1.0327   -1.8531   -0.4203 C   0  0  0  0  0  0  0  0  0  0  0  0
   -0.1689   -2.4689    0.1784 O   0  0  0  0  0  0  0  0  0  0  0  0
   -0.7890   -0.5695   -0.8629 N   0  0  0  0  0  0  0  0  0  0  0  0
   -1.5062   -0.1435   -1.4476 H   0  0  0  0  0  0  0  0  0  0  0  0
    0.5357    0.0803   -0.8557 C   0  0  1  0  0  0  0  0  0  0  0  0
    1.2019   -0.5576   -1.4471 H   0  0  0  0  0  0  0  0  0  0  0  0
    0.4852    1.4621   -1.5447 C   0  0  0  0  0  0  0  0  0  0  0  0
    0.5301    2.2509   -0.7856 H   0  0  0  0  0  0  0  0  0  0  0  0
    1.3721    1.5734   -2.1775 H   0  0  0  0  0  0  0  0  0  0  0  0
   -1.0380    1.7354   -2.5559 S   0  0  0  0  0  0  0  0  0  0  0  0
   -0.7921    2.9674   -3.0557 H   0  0  0  0  0  0  0  0  0  0  0  0
    1.1924    0.2176    0.5335 C   0  0  0  0  0  0  0  0  0  0  0  0
    2.4129    0.2166    0.6253 O   0  0  0  0  0  0  0  0  0  0  0  0
    0.4388    0.6540    1.6075 N   0  0  0  0  0  0  0  0  0  0  0  0
   -0.5671    0.5568    1.5089 H   0  0  0  0  0  0  0  0  0  0  0  0
    0.9988    0.8332    2.9409 C   0  0  0  0  0  0  0  0  0  0  0  0
    1.8137    1.5648    2.9206 H   0  0  0  0  0  0  0  0  0  0  0  0
    0.2290    1.1957    3.6287 H   0  0  0  0  0  0  0  0  0  0  0  0
    1.3879   -0.1169    3.3224 H   0  0  0  0  0  0  0  0  0  0  0  0
  1  2  1  0  0  0  0
  2  3  1  0  0  0  0
  2  4  1  0  0  0  0
  2  5  1  0  0  0  0
  5  6  2  0  0  0  0
  5  7  1  0  0  0  0
  7  8  1  0  0  0  0
  7  9  1  0  0  0  0
  9 10  1  0  0  0  0
  9 11  1  0  0  0  0
  9 16  1  0  0  0  0
 11 12  1  0  0  0  0
 11 13  1  0  0  0  0
 11 14  1  0  0  0  0
 14 15  1  0  0  0  0
 16 17  2  0  0  0  0
 16 18  1  0  0  0  0
 18 19  1  0  0  0  0
 18 20  1  0  0  0  0
 20 21  1  0  0  0  0
 20 22  1  0  0  0  0
 20 23  1  0  0  0  0
M  END
$$$$

  -OEChem-02102214123D

 23 22  0     1  0  0  0  0  0999 V2000
   -2.3773   -3.5126   -0.2640 H   0  0  0  0  0  0  0  0  0  0  0  0
   -2.3750   -2.4824   -0.6310 C   0  0  0  0  0  0  0  0  0  0  0  0
   -3.1214   -1.9089   -0.0765 H   0  0  0  0  0  0  0  0  0  0  0  0
   -2.6412   -2.4867   -1.6907 H   0  0  0  0  0  0  0  0  0  0  0  0
   -1.0022   -1.8652   -0.4433 C   0  0  0  0  0  0  0  0  0  0  0  0
   -0.1177   -2.4998    0.1031 O   0  0  0  0  0  0  0  0  0  0  0  0
   -0.7621   -0.5801   -0.8835 N   0  0  0  0  0  0  0  0  0  0  0  0
   -1.5117   -0.1156   -1.3931 H   0  0  0  0  0  0  0  0  0  0  0  0
    0.5567    0.0816   -0.8729 C   0  0  1  0  0  0  0  0  0  0  0  0
    1.2377   -0.5471   -1.4575 H   0  0  0  0  0  0  0  0  0  0  0  0
    0.4982    1.4695   -1.5545 C   0  0  0  0  0  0  0  0  0  0  0  0
    0.8237    2.2438   -0.8505 H   0  0  0  0  0  0  0  0  0  0  0  0
    1.2095    1.4767   -2.3869 H   0  0  0  0  0  0  0  0  0  0  0  0
   -1.1754    1.9291   -2.1929 S   0  0  0  0  0  0  0  0  0  0  0  0
   -0.9152    3.1402   -2.7350 H   0  0  0  0  0  0  0  0  0  0  0  0
    1.1939    0.2163    0.5265 C   0  0  0  0  0  0  0  0  0  0  0  0
    2.4129    0.2100    0.6378 O   0  0  0  0  0  0  0  0  0  0  0  0
    0.4236    0.6414    1.5934 N   0  0  0  0  0  0  0  0  0  0  0  0
   -0.5817    0.5712    1.4708 H   0  0  0  0  0  0  0  0  0  0  0  0
    0.9589    0.8111    2.9381 C   0  0  0  0  0  0  0  0  0  0  0  0
    1.7764    1.5397    2.9376 H   0  0  0  0  0  0  0  0  0  0  0  0
    0.1773    1.1725    3.6131 H   0  0  0  0  0  0  0  0  0  0  0  0
    1.3368   -0.1425    3.3220 H   0  0  0  0  0  0  0  0  0  0  0  0
  1  2  1  0  0  0  0
  2  3  1  0  0  0  0
  2  4  1  0  0  0  0
  2  5  1  0  0  0  0
  5  6  2  0  0  0  0
  5  7  1  0  0  0  0
  7  8  1  0  0  0  0
  7  9  1  0  0  0  0
  9 10  1  0  0  0  0
  9 11  1  0  0  0  0
  9 16  1  0  0  0  0
 11 12  1  0  0  0  0
 11 13  1  0  0  0  0
 11 14  1  0  0  0  0
 14 15  1  0  0  0  0
 16 17  2  0  0  0  0
 16 18  1  0  0  0  0
 18 19  1  0  0  0  0
 18 20  1  0  0  0  0
 20 21  1  0  0  0  0
 20 22  1  0  0  0  0
 20 23  1  0  0  0  0
M  END
$$$$

  -OEChem-02102214123D

 23 22  0     1  0  0  0  0  0999 V2000
   -2.3792   -3.4924   -0.2351 H   0  0  0  0  0  0  0  0  0  0  0  0
   -2.3693   -2.4629   -0.6043 C   0  0  0  0  0  0  0  0  0  0  0  0
   -3.0790   -1.8720   -0.0207 H   0  0  0  0  0  0  0  0  0  0  0  0
   -2.6790   -2.4629   -1.6522 H   0  0  0  0  0  0  0  0  0  0  0  0
   -0.9765   -1.8761   -0.4761 C   0  0  0  0  0  0  0  0  0  0  0  0
   -0.0791   -2.5367    0.0155 O   0  0  0  0  0  0  0  0  0  0  0  0
   -0.7301   -0.5918   -0.9150 N   0  0  0  0  0  0  0  0  0  0  0  0
   -1.5056   -0.0810   -1.3331 H   0  0  0  0  0  0  0  0  0  0  0  0
    0.5875    0.0715   -0.8917 C   0  0  1  0  0  0  0  0  0  0  0  0
    1.2865   -0.5435   -1.4694 H   0  0  0  0  0  0  0  0  0  0  0  0
    0.5163    1.4670   -1.5524 C   0  0  0  0  0  0  0  0  0  0  0  0
    1.0949    2.1911   -0.9676 H   0  0  0  0  0  0  0  0  0  0  0  0
    0.9890    1.4030   -2.5378 H   0  0  0  0  0  0  0  0  0  0  0  0
   -1.2059    2.1011   -1.7768 S   0  0  0  0  0  0  0  0  0  0  0  0
   -0.9603    3.3011   -2.3497 H   0  0  0  0  0  0  0  0  0  0  0  0
    1.1984    0.2033    0.5199 C   0  0  0  0  0  0  0  0  0  0  0  0
    2.4146    0.1833    0.6572 O   0  0  0  0  0  0  0  0  0  0  0  0
    0.4106    0.6260    1.5747 N   0  0  0  0  0  0  0  0  0  0  0  0
   -0.5931    0.6003    1.4246 H   0  0  0  0  0  0  0  0  0  0  0  0
    0.9217    0.8053    2.9275 C   0  0  0  0  0  0  0  0  0  0  0  0
    1.7295    1.5448    2.9381 H   0  0  0  0  0  0  0  0  0  0  0  0
    0.1248    1.1570    3.5895 H   0  0  0  0  0  0  0  0  0  0  0  0
    1.3063   -0.1426    3.3189 H   0  0  0  0  0  0  0  0  0  0  0  0
  1  2  1  0  0  0  0
  2  3  1  0  0  0  0
  2  4  1  0  0  0  0
  2  5  1  0  0  0  0
  5  6  2  0  0  0  0
  5  7  1  0  0  0  0
  7  8  1  0  0  0  0
  7  9  1  0  0  0  0
  9 10  1  0  0  0  0
  9 11  1  0  0  0  0
  9 16  1  0  0  0  0
 11 12  1  0  0  0  0
 11 13  1  0  0  0  0
 11 14  1  0  0  0  0
 14 15  1  0  0  0  0
 16 17  2  0  0  0  0
 16 18  1  0  0  0  0
 18 19  1  0  0  0  0
 18 20  1  0  0  0  0
 20 21  1  0  0  0  0
 20 22  1  0  0  0  0
 20 23  1  0  0  0  0
M  END
$$$$

  -OEChem-02102214123D

 23 22  0     1  0  0  0  0  0999 V2000
   -2.3823   -3.4658   -0.2098 H   0  0  0  0  0  0  0  0  0  0  0  0
   -2.3653   -2.4371   -0.5813 C   0  0  0  0  0  0  0  0  0  0  0  0
   -3.0301   -1.8287    0.0365 H   0  0  0  0  0  0  0  0  0  0  0  0
   -2.7266   -2.4299   -1.6125 H   0  0  0  0  0  0  0  0  0  0  0  0
   -0.9535   -1.8856   -0.5233 C   0  0  0  0  0  0  0  0  0  0  0  0
   -0.0473   -2.5752   -0.0914 O   0  0  0  0  0  0  0  0  0  0  0  0
   -0.6995   -0.6008   -0.9566 N   0  0  0  0  0  0  0  0  0  0  0  0
   -1.4912   -0.0475   -1.2779 H   0  0  0  0  0  0  0  0  0  0  0  0
    0.6196    0.0574   -0.9091 C   0  0  1  0  0  0  0  0  0  0  0  0
    1.3322   -0.5450   -1.4835 H   0  0  0  0  0  0  0  0  0  0  0  0
    0.5365    1.4565   -1.5493 C   0  0  0  0  0  0  0  0  0  0  0  0
    1.3056    2.1109   -1.1231 H   0  0  0  0  0  0  0  0  0  0  0  0
    0.7510    1.3599   -2.6184 H   0  0  0  0  0  0  0  0  0  0  0  0
   -1.1285    2.2364   -1.3619 S   0  0  0  0  0  0  0  0  0  0  0  0
   -0.9147    3.4353   -1.9498 H   0  0  0  0  0  0  0  0  0  0  0  0
    1.2044    0.1835    0.5140 C   0  0  0  0  0  0  0  0  0  0  0  0
    2.4165    0.1385    0.6784 O   0  0  0  0  0  0  0  0  0  0  0  0
    0.4006    0.6070    1.5565 N   0  0  0  0  0  0  0  0  0  0  0  0
   -0.5963    0.6573    1.3717 H   0  0  0  0  0  0  0  0  0  0  0  0
    0.8875    0.8103    2.9144 C   0  0  0  0  0  0  0  0  0  0  0  0
    1.6832    1.5624    2.9286 H   0  0  0  0  0  0  0  0  0  0  0  0
    0.0747    1.1567    3.5596 H   0  0  0  0  0  0  0  0  0  0  0  0
    1.2804   -0.1265    3.3233 H   0  0  0  0  0  0  0  0  0  0  0  0
  1  2  1  0  0  0  0
  2  3  1  0  0  0  0
  2  4  1  0  0  0  0
  2  5  1  0  0  0  0
  5  6  2  0  0  0  0
  5  7  1  0  0  0  0
  7  8  1  0  0  0  0
  7  9  1  0  0  0  0
  9 10  1  0  0  0  0
  9 11  1  0  0  0  0
  9 16  1  0  0  0  0
 11 12  1  0  0  0  0
 11 13  1  0  0  0  0
 11 14  1  0  0  0  0
 14 15  1  0  0  0  0
 16 17  2  0  0  0  0
 16 18  1  0  0  0  0
 18 19  1  0  0  0  0
 18 20  1  0  0  0  0
 20 21  1  0  0  0  0
 20 22  1  0  0  0  0
 20 23  1  0  0  0  0
M  END
$$$$

  -OEChem-02102214123D

 23 22  0     1  0  0  0  0  0999 V2000
   -2.4020   -3.4572   -0.2453 H   0  0  0  0  0  0  0  0  0  0  0  0
   -2.3768   -2.4232   -0.6008 C   0  0  0  0  0  0  0  0  0  0  0  0
   -3.0148   -1.8142    0.0437 H   0  0  0  0  0  0  0  0  0  0  0  0
   -2.7650   -2.3928   -1.6216 H   0  0  0  0  0  0  0  0  0  0  0  0
   -0.9547   -1.8965   -0.5717 C   0  0  0  0  0  0  0  0  0  0  0  0
   -0.0474   -2.6106   -0.1838 O   0  0  0  0  0  0  0  0  0  0  0  0
   -0.6920   -0.6066   -0.9846 N   0  0  0  0  0  0  0  0  0  0  0  0
   -1.4881   -0.0246   -1.2345 H   0  0  0  0  0  0  0  0  0  0  0  0
    0.6300    0.0408   -0.9005 C   0  0  1  0  0  0  0  0  0  0  0  0
    1.3464   -0.5591   -1.4728 H   0  0  0  0  0  0  0  0  0  0  0  0
    0.5473    1.4342   -1.5405 C   0  0  0  0  0  0  0  0  0  0  0  0
    1.4453    2.0094   -1.2874 H   0  0  0  0  0  0  0  0  0  0  0  0
    0.5236    1.3241   -2.6293 H   0  0  0  0  0  0  0  0  0  0  0  0
   -0.9616    2.3514   -1.0010 S   0  0  0  0  0  0  0  0  0  0  0  0
   -0.7657    3.5417   -1.6122 H   0  0  0  0  0  0  0  0  0  0  0  0
    1.2029    0.1525    0.5290 C   0  0  0  0  0  0  0  0  0  0  0  0
    2.4125    0.0835    0.7039 O   0  0  0  0  0  0  0  0  0  0  0  0
    0.3979    0.5722    1.5721 N   0  0  0  0  0  0  0  0  0  0  0  0
   -0.5796    0.7422    1.3564 H   0  0  0  0  0  0  0  0  0  0  0  0
    0.8940    0.8442    2.9145 C   0  0  0  0  0  0  0  0  0  0  0  0
    1.6267    1.6578    2.8948 H   0  0  0  0  0  0  0  0  0  0  0  0
    0.0688    1.1365    3.5707 H   0  0  0  0  0  0  0  0  0  0  0  0
    1.3694   -0.0487    3.3340 H   0  0  0  0  0  0  0  0  0  0  0  0
  1  2  1  0  0  0  0
  2  3  1  0  0  0  0
  2  4  1  0  0  0  0
  2  5  1  0  0  0  0
  5  6  2  0  0  0  0
  5  7  1  0  0  0  0
  7  8  1  0  0  0  0
  7  9  1  0  0  0  0
  9 10  1  0  0  0  0
  9 11  1  0  0  0  0
  9 16  1  0  0  0  0
 11 12  1  0  0  0  0
 11 13  1  0  0  0  0
 11 14  1  0  0  0  0
 14 15  1  0  0  0  0
 16 17  2  0  0  0  0
 16 18  1  0  0  0  0
 18 19  1  0  0  0  0
 18 20  1  0  0  0  0
 20 21  1  0  0  0  0
 20 22  1  0  0  0  0
 20 23  1  0  0  0  0
M  END
$$$$

  -OEChem-02102214123D

 23 22  0     1  0  0  0  0  0999 V2000
   -2.3996   -3.4575   -0.2718 H   0  0  0  0  0  0  0  0  0  0  0  0
   -2.3791   -2.4179   -0.6113 C   0  0  0  0  0  0  0  0  0  0  0  0
   -3.0022   -1.8179    0.0560 H   0  0  0  0  0  0  0  0  0  0  0  0
   -2.7878   -2.3706   -1.6235 H   0  0  0  0  0  0  0  0  0  0  0  0
   -0.9551   -1.8955   -0.6023 C   0  0  0  0  0  0  0  0  0  0  0  0
   -0.0428   -2.6209   -0.2488 O   0  0  0  0  0  0  0  0  0  0  0  0
   -0.6972   -0.5977   -0.9940 N   0  0  0  0  0  0  0  0  0  0  0  0
   -1.4995   -0.0066   -1.1953 H   0  0  0  0  0  0  0  0  0  0  0  0
    0.6218    0.0496   -0.8819 C   0  0  1  0  0  0  0  0  0  0  0  0
    1.3386   -0.5579   -1.4459 H   0  0  0  0  0  0  0  0  0  0  0  0
    0.5453    1.4229   -1.5594 C   0  0  0  0  0  0  0  0  0  0  0  0
    1.5261    1.9072   -1.4971 H   0  0  0  0  0  0  0  0  0  0  0  0
    0.3066    1.2936   -2.6200 H   0  0  0  0  0  0  0  0  0  0  0  0
   -0.7236    2.5031   -0.7699 S   0  0  0  0  0  0  0  0  0  0  0  0
   -0.5176    3.6642   -1.4315 H   0  0  0  0  0  0  0  0  0  0  0  0
    1.1946    0.1504    0.5496 C   0  0  0  0  0  0  0  0  0  0  0  0
    2.4030    0.0606    0.7237 O   0  0  0  0  0  0  0  0  0  0  0  0
    0.3953    0.5572    1.6025 N   0  0  0  0  0  0  0  0  0  0  0  0
   -0.5656    0.7960    1.3776 H   0  0  0  0  0  0  0  0  0  0  0  0
    0.9074    0.8432    2.9361 C   0  0  0  0  0  0  0  0  0  0  0  0
    1.6170    1.6767    2.9033 H   0  0  0  0  0  0  0  0  0  0  0  0
    0.0862    1.1122    3.6073 H   0  0  0  0  0  0  0  0  0  0  0  0
    1.4145   -0.0363    3.3472 H   0  0  0  0  0  0  0  0  0  0  0  0
  1  2  1  0  0  0  0
  2  3  1  0  0  0  0
  2  4  1  0  0  0  0
  2  5  1  0  0  0  0
  5  6  2  0  0  0  0
  5  7  1  0  0  0  0
  7  8  1  0  0  0  0
  7  9  1  0  0  0  0
  9 10  1  0  0  0  0
  9 11  1  0  0  0  0
  9 16  1  0  0  0  0
 11 12  1  0  0  0  0
 11 13  1  0  0  0  0
 11 14  1  0  0  0  0
 14 15  1  0  0  0  0
 16 17  2  0  0  0  0
 16 18  1  0  0  0  0
 18 19  1  0  0  0  0
 18 20  1  0  0  0  0
 20 21  1  0  0  0  0
 20 22  1  0  0  0  0
 20 23  1  0  0  0  0
M  END
$$$$

  -OEChem-02102214123D

 23 22  0     1  0  0  0  0  0999 V2000
   -2.3950   -3.4789   -0.3153 H   0  0  0  0  0  0  0  0  0  0  0  0
   -2.3838   -2.4324   -0.6332 C   0  0  0  0  0  0  0  0  0  0  0  0
   -3.0153   -1.8526    0.0440 H   0  0  0  0  0  0  0  0  0  0  0  0
   -2.7897   -2.3689   -1.6456 H   0  0  0  0  0  0  0  0  0  0  0  0
   -0.9652   -1.8956   -0.6089 C   0  0  0  0  0  0  0  0  0  0  0  0
   -0.0470   -2.6183   -0.2660 O   0  0  0  0  0  0  0  0  0  0  0  0
   -0.7188   -0.5895   -0.9811 N   0  0  0  0  0  0  0  0  0  0  0  0
   -1.5270   -0.0058   -1.1772 H   0  0  0  0  0  0  0  0  0  0  0  0
    0.5960    0.0651   -0.8576 C   0  0  1  0  0  0  0  0  0  0  0  0
    1.3070   -0.5538   -1.4168 H   0  0  0  0  0  0  0  0  0  0  0  0
    0.5361    1.4203   -1.5746 C   0  0  0  0  0  0  0  0  0  0  0  0
    1.5609    1.7827   -1.7115 H   0  0  0  0  0  0  0  0  0  0  0  0
    0.0946    1.2969   -2.5686 H   0  0  0  0  0  0  0  0  0  0  0  0
   -0.4072    2.6813   -0.6180 S   0  0  0  0  0  0  0  0  0  0  0  0
   -0.1566    3.7942   -1.3441 H   0  0  0  0  0  0  0  0  0  0  0  0
    1.1818    0.1561    0.5701 C   0  0  0  0  0  0  0  0  0  0  0  0
    2.3915    0.0573    0.7310 O   0  0  0  0  0  0  0  0  0  0  0  0
    0.3940    0.5448    1.6387 N   0  0  0  0  0  0  0  0  0  0  0  0
   -0.5567    0.8241    1.4189 H   0  0  0  0  0  0  0  0  0  0  0  0
    0.9310    0.8406    2.9605 C   0  0  0  0  0  0  0  0  0  0  0  0
    1.6151    1.6943    2.9136 H   0  0  0  0  0  0  0  0  0  0  0  0
    0.1191    1.0826    3.6529 H   0  0  0  0  0  0  0  0  0  0  0  0
    1.4740   -0.0246    3.3554 H   0  0  0  0  0  0  0  0  0  0  0  0
  1  2  1  0  0  0  0
  2  3  1  0  0  0  0
  2  4  1  0  0  0  0
  2  5  1  0  0  0  0
  5  6  2  0  0  0  0
  5  7  1  0  0  0  0
  7  8  1  0  0  0  0
  7  9  1  0  0  0  0
  9 10  1  0  0  0  0
  9 11  1  0  0  0  0
  9 16  1  0  0  0  0
 11 12  1  0  0  0  0
 11 13  1  0  0  0  0
 11 14  1  0  0  0  0
 14 15  1  0  0  0  0
 16 17  2  0  0  0  0
 16 18  1  0  0  0  0
 18 19  1  0  0  0  0
 18 20  1  0  0  0  0
 20 21  1  0  0  0  0
 20 22  1  0  0  0  0
 20 23  1  0  0  0  0
M  END
$$$$

  -OEChem-02102214123D

 23 22  0     1  0  0  0  0  0999 V2000
   -2.3831   -3.4906   -0.3382 H   0  0  0  0  0  0  0  0  0  0  0  0
   -2.3822   -2.4402   -0.6437 C   0  0  0  0  0  0  0  0  0  0  0  0
   -3.0229   -1.8757    0.0378 H   0  0  0  0  0  0  0  0  0  0  0  0
   -2.7843   -2.3689   -1.6572 H   0  0  0  0  0  0  0  0  0  0  0  0
   -0.9694   -1.8893   -0.6055 C   0  0  0  0  0  0  0  0  0  0  0  0
   -0.0470   -2.6062   -0.2624 O   0  0  0  0  0  0  0  0  0  0  0  0
   -0.7334   -0.5776   -0.9658 N   0  0  0  0  0  0  0  0  0  0  0  0
   -1.5460   -0.0040   -1.1707 H   0  0  0  0  0  0  0  0  0  0  0  0
    0.5784    0.0847   -0.8415 C   0  0  1  0  0  0  0  0  0  0  0  0
    1.2836   -0.5445   -1.3970 H   0  0  0  0  0  0  0  0  0  0  0  0
    0.5299    1.4277   -1.5901 C   0  0  0  0  0  0  0  0  0  0  0  0
    1.5436    1.6524   -1.9397 H   0  0  0  0  0  0  0  0  0  0  0  0
   -0.1085    1.3454   -2.4754 H   0  0  0  0  0  0  0  0  0  0  0  0
   -0.0241    2.8345   -0.5380 S   0  0  0  0  0  0  0  0  0  0  0  0
    0.2156    3.8821   -1.3579 H   0  0  0  0  0  0  0  0  0  0  0  0
    1.1739    0.1674    0.5837 C   0  0  0  0  0  0  0  0  0  0  0  0
    2.3832    0.0525    0.7376 O   0  0  0  0  0  0  0  0  0  0  0  0
    0.3933    0.5408    1.6637 N   0  0  0  0  0  0  0  0  0  0  0  0
   -0.5573    0.8275    1.4555 H   0  0  0  0  0  0  0  0  0  0  0  0
    0.9437    0.8232    2.9830 C   0  0  0  0  0  0  0  0  0  0  0  0
    1.6334    1.6725    2.9359 H   0  0  0  0  0  0  0  0  0  0  0  0
    0.1400    1.0663    3.6845 H   0  0  0  0  0  0  0  0  0  0  0  0
    1.4836   -0.0490    3.3670 H   0  0  0  0  0  0  0  0  0  0  0  0
  1  2  1  0  0  0  0
  2  3  1  0  0  0  0
  2  4  1  0  0  0  0
  2  5  1  0  0  0  0
  5  6  2  0  0  0  0
  5  7  1  0  0  0  0
  7  8  1  0  0  0  0
  7  9  1  0  0  0  0
  9 10  1  0  0  0  0
  9 11  1  0  0  0  0
  9 16  1  0  0  0  0
 11 12  1  0  0  0  0
 11 13  1  0  0  0  0
 11 14  1  0  0  0  0
 14 15  1  0  0  0  0
 16 17  2  0  0  0  0
 16 18  1  0  0  0  0
 18 19  1  0  0  0  0
 18 20  1  0  0  0  0
 20 21  1  0  0  0  0
 20 22  1  0  0  0  0
 20 23  1  0  0  0  0
M  END
$$$$

  -OEChem-02102214123D

 23 22  0     1  0  0  0  0  0999 V2000
   -2.3689   -3.4884   -0.3250 H   0  0  0  0  0  0  0  0  0  0  0  0
   -2.3722   -2.4386   -0.6324 C   0  0  0  0  0  0  0  0  0  0  0  0
   -3.0175   -1.8762    0.0465 H   0  0  0  0  0  0  0  0  0  0  0  0
   -2.7719   -2.3711   -1.6470 H   0  0  0  0  0  0  0  0  0  0  0  0
   -0.9623   -1.8806   -0.5928 C   0  0  0  0  0  0  0  0  0  0  0  0
   -0.0364   -2.5938   -0.2519 O   0  0  0  0  0  0  0  0  0  0  0  0
   -0.7337   -0.5677   -0.9546 N   0  0  0  0  0  0  0  0  0  0  0  0
   -1.5501   -0.0019   -1.1647 H   0  0  0  0  0  0  0  0  0  0  0  0
    0.5772    0.1011   -0.8415 C   0  0  1  0  0  0  0  0  0  0  0  0
    1.2809   -0.5318   -1.3949 H   0  0  0  0  0  0  0  0  0  0  0  0
    0.5259    1.4404   -1.6063 C   0  0  0  0  0  0  0  0  0  0  0  0
    1.4555    1.5286   -2.1788 H   0  0  0  0  0  0  0  0  0  0  0  0
   -0.2961    1.4380   -2.3286 H   0  0  0  0  0  0  0  0  0  0  0  0
    0.4055    2.9293   -0.5288 S   0  0  0  0  0  0  0  0  0  0  0  0
    0.6040    3.9195   -1.4270 H   0  0  0  0  0  0  0  0  0  0  0  0
    1.1736    0.1797    0.5842 C   0  0  0  0  0  0  0  0  0  0  0  0
    2.3797    0.0406    0.7444 O   0  0  0  0  0  0  0  0  0  0  0  0
    0.3894    0.5467    1.6641 N   0  0  0  0  0  0  0  0  0  0  0  0
   -0.5646    0.8230    1.4608 H   0  0  0  0  0  0  0  0  0  0  0  0
    0.9323    0.7981    2.9926 C   0  0  0  0  0  0  0  0  0  0  0  0
    1.6436    1.6302    2.9641 H   0  0  0  0  0  0  0  0  0  0  0  0
    0.1277    1.0526    3.6888 H   0  0  0  0  0  0  0  0  0  0  0  0
    1.4460   -0.0924    3.3702 H   0  0  0  0  0  0  0  0  0  0  0  0
  1  2  1  0  0  0  0
  2  3  1  0  0  0  0
  2  4  1  0  0  0  0
  2  5  1  0  0  0  0
  5  6  2  0  0  0  0
  5  7  1  0  0  0  0
  7  8  1  0  0  0  0
  7  9  1  0  0  0  0
  9 10  1  0  0  0  0
  9 11  1  0  0  0  0
  9 16  1  0  0  0  0
 11 12  1  0  0  0  0
 11 13  1  0  0  0  0
 11 14  1  0  0  0  0
 14 15  1  0  0  0  0
 16 17  2  0  0  0  0
 16 18  1  0  0  0  0
 18 19  1  0  0  0  0
 18 20  1  0  0  0  0
 20 21  1  0  0  0  0
 20 22  1  0  0  0  0
 20 23  1  0  0  0  0
M  END
$$$$

  -OEChem-02102214123D

 23 22  0     1  0  0  0  0  0999 V2000
   -2.3676   -3.4761   -0.3086 H   0  0  0  0  0  0  0  0  0  0  0  0
   -2.3660   -2.4281   -0.6221 C   0  0  0  0  0  0  0  0  0  0  0  0
   -3.0187   -1.8607    0.0454 H   0  0  0  0  0  0  0  0  0  0  0  0
   -2.7534   -2.3666   -1.6419 H   0  0  0  0  0  0  0  0  0  0  0  0
   -0.9564   -1.8705   -0.5675 C   0  0  0  0  0  0  0  0  0  0  0  0
   -0.0375   -2.5791   -0.2002 O   0  0  0  0  0  0  0  0  0  0  0  0
   -0.7222   -0.5630   -0.9457 N   0  0  0  0  0  0  0  0  0  0  0  0
   -1.5327   -0.0100   -1.2053 H   0  0  0  0  0  0  0  0  0  0  0  0
    0.5934    0.1029   -0.8508 C   0  0  1  0  0  0  0  0  0  0  0  0
    1.3005   -0.5278   -1.4023 H   0  0  0  0  0  0  0  0  0  0  0  0
    0.5257    1.4478   -1.6134 C   0  0  0  0  0  0  0  0  0  0  0  0
    1.2782    1.4161   -2.4084 H   0  0  0  0  0  0  0  0  0  0  0  0
   -0.4477    1.5627   -2.0996 H   0  0  0  0  0  0  0  0  0  0  0  0
    0.8589    2.9441   -0.5914 S   0  0  0  0  0  0  0  0  0  0  0  0
    0.9392    3.9023   -1.5406 H   0  0  0  0  0  0  0  0  0  0  0  0
    1.1829    0.1851    0.5786 C   0  0  0  0  0  0  0  0  0  0  0  0
    2.3825    0.0117    0.7541 O   0  0  0  0  0  0  0  0  0  0  0  0
    0.3925    0.5629    1.6506 N   0  0  0  0  0  0  0  0  0  0  0  0
   -0.5666    0.8188    1.4474 H   0  0  0  0  0  0  0  0  0  0  0  0
    0.9200    0.7830    2.9907 C   0  0  0  0  0  0  0  0  0  0  0  0
    1.6470    1.6021    2.9853 H   0  0  0  0  0  0  0  0  0  0  0  0
    0.1101    1.0421    3.6791 H   0  0  0  0  0  0  0  0  0  0  0  0
    1.4116   -0.1228    3.3617 H   0  0  0  0  0  0  0  0  0  0  0  0
  1  2  1  0  0  0  0
  2  3  1  0  0  0  0
  2  4  1  0  0  0  0
  2  5  1  0  0  0  0
  5  6  2  0  0  0  0
  5  7  1  0  0  0  0
  7  8  1  0  0  0  0
  7  9  1  0  0  0  0
  9 10  1  0  0  0  0
  9 11  1  0  0  0  0
  9 16  1  0  0  0  0
 11 12  1  0  0  0  0
 11 13  1  0  0  0  0
 11 14  1  0  0  0  0
 14 15  1  0  0  0  0
 16 17  2  0  0  0  0
 16 18  1  0  0  0  0
 18 19  1  0  0  0  0
 18 20  1  0  0  0  0
 20 21  1  0  0  0  0
 20 22  1  0  0  0  0
 20 23  1  0  0  0  0
M  END
$$$$

  -OEChem-02102214123D

 23 22  0     1  0  0  0  0  0999 V2000
   -2.3591   -3.4497   -0.2545 H   0  0  0  0  0  0  0  0  0  0  0  0
   -2.3510   -2.4114   -0.5984 C   0  0  0  0  0  0  0  0  0  0  0  0
   -3.0265   -1.8276    0.0312 H   0  0  0  0  0  0  0  0  0  0  0  0
   -2.7060   -2.3813   -1.6312 H   0  0  0  0  0  0  0  0  0  0  0  0
   -0.9452   -1.8476   -0.5155 C   0  0  0  0  0  0  0  0  0  0  0  0
   -0.0396   -2.5404   -0.0907 O   0  0  0  0  0  0  0  0  0  0  0  0
   -0.7008   -0.5536   -0.9330 N   0  0  0  0  0  0  0  0  0  0  0  0
   -1.4939   -0.0308   -1.2901 H   0  0  0  0  0  0  0  0  0  0  0  0
    0.6222    0.1045   -0.8736 C   0  0  1  0  0  0  0  0  0  0  0  0
    1.3342   -0.5200   -1.4254 H   0  0  0  0  0  0  0  0  0  0  0  0
    0.5214    1.4551   -1.6244 C   0  0  0  0  0  0  0  0  0  0  0  0
    0.9985    1.3362   -2.6027 H   0  0  0  0  0  0  0  0  0  0  0  0
   -0.5281    1.7048   -1.8052 H   0  0  0  0  0  0  0  0  0  0  0  0
    1.2931    2.8925   -0.7683 S   0  0  0  0  0  0  0  0  0  0  0  0
    1.1968    3.8523   -1.7142 H   0  0  0  0  0  0  0  0  0  0  0  0
    1.2041    0.2079    0.5582 C   0  0  0  0  0  0  0  0  0  0  0  0
    2.3932   -0.0082    0.7562 O   0  0  0  0  0  0  0  0  0  0  0  0
    0.4075    0.6156    1.6144 N   0  0  0  0  0  0  0  0  0  0  0  0
   -0.5691    0.7975    1.4158 H   0  0  0  0  0  0  0  0  0  0  0  0
    0.8989    0.7512    2.9791 C   0  0  0  0  0  0  0  0  0  0  0  0
    1.7120    1.4835    3.0219 H   0  0  0  0  0  0  0  0  0  0  0  0
    0.0948    1.0880    3.6401 H   0  0  0  0  0  0  0  0  0  0  0  0
    1.2707   -0.2105    3.3479 H   0  0  0  0  0  0  0  0  0  0  0  0
  1  2  1  0  0  0  0
  2  3  1  0  0  0  0
  2  4  1  0  0  0  0
  2  5  1  0  0  0  0
  5  6  2  0  0  0  0
  5  7  1  0  0  0  0
  7  8  1  0  0  0  0
  7  9  1  0  0  0  0
  9 10  1  0  0  0  0
  9 11  1  0  0  0  0
  9 16  1  0  0  0  0
 11 12  1  0  0  0  0
 11 13  1  0  0  0  0
 11 14  1  0  0  0  0
 14 15  1  0  0  0  0
 16 17  2  0  0  0  0
 16 18  1  0  0  0  0
 18 19  1  0  0  0  0
 18 20  1  0  0  0  0
 20 21  1  0  0  0  0
 20 22  1  0  0  0  0
 20 23  1  0  0  0  0
M  END
$$$$

  -OEChem-02102214123D

 23 22  0     1  0  0  0  0  0999 V2000
   -2.3712   -3.4323   -0.2281 H   0  0  0  0  0  0  0  0  0  0  0  0
   -2.3500   -2.4051   -0.6036 C   0  0  0  0  0  0  0  0  0  0  0  0
   -3.0616   -1.8071   -0.0294 H   0  0  0  0  0  0  0  0  0  0  0  0
   -2.6496   -2.4102   -1.6543 H   0  0  0  0  0  0  0  0  0  0  0  0
   -0.9537   -1.8282   -0.4627 C   0  0  0  0  0  0  0  0  0  0  0  0
   -0.0736   -2.4967    0.0456 O   0  0  0  0  0  0  0  0  0  0  0  0
   -0.6917   -0.5501   -0.9184 N   0  0  0  0  0  0  0  0  0  0  0  0
   -1.4494   -0.0777   -1.4010 H   0  0  0  0  0  0  0  0  0  0  0  0
    0.6421    0.0904   -0.8897 C   0  0  1  0  0  0  0  0  0  0  0  0
    1.3515   -0.5299   -1.4494 H   0  0  0  0  0  0  0  0  0  0  0  0
    0.5102    1.4481   -1.6175 C   0  0  0  0  0  0  0  0  0  0  0  0
    0.6732    1.2884   -2.6881 H   0  0  0  0  0  0  0  0  0  0  0  0
   -0.5070    1.8312   -1.4909 H   0  0  0  0  0  0  0  0  0  0  0  0
    1.6565    2.7607   -1.0220 S   0  0  0  0  0  0  0  0  0  0  0  0
    1.3822    3.7706   -1.8759 H   0  0  0  0  0  0  0  0  0  0  0  0
    1.2264    0.2187    0.5396 C   0  0  0  0  0  0  0  0  0  0  0  0
    2.4069   -0.0289    0.7513 O   0  0  0  0  0  0  0  0  0  0  0  0
    0.4322    0.6647    1.5819 N   0  0  0  0  0  0  0  0  0  0  0  0
   -0.5555    0.7805    1.3882 H   0  0  0  0  0  0  0  0  0  0  0  0
    0.9039    0.7552    2.9573 C   0  0  0  0  0  0  0  0  0  0  0  0
    1.7697    1.4228    3.0220 H   0  0  0  0  0  0  0  0  0  0  0  0
    0.1147    1.1512    3.6032 H   0  0  0  0  0  0  0  0  0  0  0  0
    1.1933   -0.2339    3.3275 H   0  0  0  0  0  0  0  0  0  0  0  0
  1  2  1  0  0  0  0
  2  3  1  0  0  0  0
  2  4  1  0  0  0  0
  2  5  1  0  0  0  0
  5  6  2  0  0  0  0
  5  7  1  0  0  0  0
  7  8  1  0  0  0  0
  7  9  1  0  0  0  0
  9 10  1  0  0  0  0
  9 11  1  0  0  0  0
  9 16  1  0  0  0  0
 11 12  1  0  0  0  0
 11 13  1  0  0  0  0
 11 14  1  0  0  0  0
 14 15  1  0  0  0  0
 16 17  2  0  0  0  0
 16 18  1  0  0  0  0
 18 19  1  0  0  0  0
 18 20  1  0  0  0  0
 20 21  1  0  0  0  0
 20 22  1  0  0  0  0
 20 23  1  0  0  0  0
M  END
$$$$

  -OEChem-02102214123D

 23 22  0     1  0  0  0  0  0999 V2000
   -2.3895   -3.4222   -0.2037 H   0  0  0  0  0  0  0  0  0  0  0  0
   -2.3541   -2.4107   -0.6187 C   0  0  0  0  0  0  0  0  0  0  0  0
   -3.0922   -1.7933   -0.1016 H   0  0  0  0  0  0  0  0  0  0  0  0
   -2.6068   -2.4592   -1.6805 H   0  0  0  0  0  0  0  0  0  0  0  0
   -0.9668   -1.8228   -0.4401 C   0  0  0  0  0  0  0  0  0  0  0  0
   -0.1033   -2.4739    0.1164 O   0  0  0  0  0  0  0  0  0  0  0  0
   -0.6966   -0.5532   -0.9143 N   0  0  0  0  0  0  0  0  0  0  0  0
   -1.4333   -0.1100   -1.4537 H   0  0  0  0  0  0  0  0  0  0  0  0
    0.6421    0.0767   -0.8985 C   0  0  1  0  0  0  0  0  0  0  0  0
    1.3457   -0.5395   -1.4694 H   0  0  0  0  0  0  0  0  0  0  0  0
    0.4932    1.4393   -1.6035 C   0  0  0  0  0  0  0  0  0  0  0  0
    0.3703    1.2731   -2.6783 H   0  0  0  0  0  0  0  0  0  0  0  0
   -0.4087    1.9383   -1.2351 H   0  0  0  0  0  0  0  0  0  0  0  0
    1.9111    2.5790   -1.3271 S   0  0  0  0  0  0  0  0  0  0  0  0
    1.5471    3.6523   -2.0615 H   0  0  0  0  0  0  0  0  0  0  0  0
    1.2353    0.2216    0.5253 C   0  0  0  0  0  0  0  0  0  0  0  0
    2.4153   -0.0271    0.7379 O   0  0  0  0  0  0  0  0  0  0  0  0
    0.4465    0.6897    1.5623 N   0  0  0  0  0  0  0  0  0  0  0  0
   -0.5480    0.7571    1.3800 H   0  0  0  0  0  0  0  0  0  0  0  0
    0.9216    0.7797    2.9370 C   0  0  0  0  0  0  0  0  0  0  0  0
    1.8085    1.4201    2.9943 H   0  0  0  0  0  0  0  0  0  0  0  0
    0.1462    1.2086    3.5787 H   0  0  0  0  0  0  0  0  0  0  0  0
    1.1792   -0.2143    3.3179 H   0  0  0  0  0  0  0  0  0  0  0  0
  1  2  1  0  0  0  0
  2  3  1  0  0  0  0
  2  4  1  0  0  0  0
  2  5  1  0  0  0  0
  5  6  2  0  0  0  0
  5  7  1  0  0  0  0
  7  8  1  0  0  0  0
  7  9  1  0  0  0  0
  9 10  1  0  0  0  0
  9 11  1  0  0  0  0
  9 16  1  0  0  0  0
 11 12  1  0  0  0  0
 11 13  1  0  0  0  0
 11 14  1  0  0  0  0
 14 15  1  0  0  0  0
 16 17  2  0  0  0  0
 16 18  1  0  0  0  0
 18 19  1  0  0  0  0
 18 20  1  0  0  0  0
 20 21  1  0  0  0  0
 20 22  1  0  0  0  0
 20 23  1  0  0  0  0
M  END
$$$$
