default_name
  -OEChem-02102213163D

 23 22  0     1  0  0  0  0  0999 V2000
   -2.6857   -3.6684    0.8743 H   0  0  0  0  0  0  0  0  0  0  0  0
   -2.6617   -2.6474    0.4953 C   0  0  0  0  0  0  0  0  0  0  0  0
   -3.2657   -2.0054    1.1353 H   0  0  0  0  0  0  0  0  0  0  0  0
   -3.0477   -2.6254   -0.5217 H   0  0  0  0  0  0  0  0  0  0  0  0
   -1.2337   -2.1564    0.4993 C   0  0  0  0  0  0  0  0  0  0  0  0
   -0.3327   -2.8864    0.8893 O   0  0  0  0  0  0  0  0  0  0  0  0
   -1.0277   -0.9164    0.0623 N   0  0  0  0  0  0  0  0  0  0  0  0
   -1.8237   -0.3604   -0.2157 H   0  0  0  0  0  0  0  0  0  0  0  0
    0.2713   -0.2414    0.0463 C   0  0  1  0  0  0  0  0  0  0  0  0
    0.9671   -0.8331   -0.5520 H   0  0  0  0  0  0  0  0  0  0  0  0
    0.0999    1.1316   -0.6240 C   0  0  0  0  0  0  0  0  0  0  0  0
   -0.2558    0.9835   -1.6461 H   0  0  0  0  0  0  0  0  0  0  0  0
   -0.6422    1.7147   -0.0749 H   0  0  0  0  0  0  0  0  0  0  0  0
    1.6749    2.0355   -0.6827 S   0  0  0  0  0  0  0  0  0  0  0  0
    1.2394    3.0805   -1.3968 H   0  0  0  0  0  0  0  0  0  0  0  0
    0.8363   -0.1441    1.4782 C   0  0  0  0  0  0  0  0  0  0  0  0
    2.0194   -0.4111    1.6910 O   0  0  0  0  0  0  0  0  0  0  0  0
    0.0038    0.2415    2.4522 N   0  0  0  0  0  0  0  0  0  0  0  0
   -0.9654    0.3801    2.2053 H   0  0  0  0  0  0  0  0  0  0  0  0
    0.3876    0.3897    3.8549 C   0  0  0  0  0  0  0  0  0  0  0  0
    1.2944    0.9945    3.9282 H   0  0  0  0  0  0  0  0  0  0  0  0
   -0.4130    0.8733    4.4159 H   0  0  0  0  0  0  0  0  0  0  0  0
    0.5882   -0.5926    4.2858 H   0  0  0  0  0  0  0  0  0  0  0  0
  5  6  2  0  0  0  0
  5  7  1  0  0  0  0
  2  3  1  0  0  0  0
  2  4  1  0  0  0  0
  2  5  1  0  0  0  0
  1  2  1  0  0  0  0
 16 17  2  0  0  0  0
 16 18  1  0  0  0  0
 14 15  1  0  0  0  0
 11 12  1  0  0  0  0
 11 13  1  0  0  0  0
 11 14  1  0  0  0  0
  9 10  1  0  0  0  0
  9 11  1  0  0  0  0
  9 16  1  0  0  0  0
  7  8  1  0  0  0  0
  7  9  1  0  0  0  0
 20 21  1  0  0  0  0
 20 22  1  0  0  0  0
 20 23  1  0  0  0  0
 18 19  1  0  0  0  0
 18 20  1  0  0  0  0
M  END
$$$$
default_name
  -OEChem-02102213163D

 23 22  0     1  0  0  0  0  0999 V2000
   -2.6857   -3.6684    0.8743 H   0  0  0  0  0  0  0  0  0  0  0  0
   -2.6617   -2.6474    0.4953 C   0  0  0  0  0  0  0  0  0  0  0  0
   -3.2657   -2.0054    1.1353 H   0  0  0  0  0  0  0  0  0  0  0  0
   -3.0477   -2.6254   -0.5217 H   0  0  0  0  0  0  0  0  0  0  0  0
   -1.2337   -2.1564    0.4993 C   0  0  0  0  0  0  0  0  0  0  0  0
   -0.3327   -2.8864    0.8893 O   0  0  0  0  0  0  0  0  0  0  0  0
   -1.0277   -0.9164    0.0623 N   0  0  0  0  0  0  0  0  0  0  0  0
   -1.8237   -0.3604   -0.2157 H   0  0  0  0  0  0  0  0  0  0  0  0
    0.2713   -0.2414    0.0463 C   0  0  1  0  0  0  0  0  0  0  0  0
    0.9671   -0.8331   -0.5520 H   0  0  0  0  0  0  0  0  0  0  0  0
    0.0999    1.1316   -0.6240 C   0  0  0  0  0  0  0  0  0  0  0  0
   -0.4980    1.0099   -1.5301 H   0  0  0  0  0  0  0  0  0  0  0  0
   -0.4256    1.8055    0.0557 H   0  0  0  0  0  0  0  0  0  0  0  0
    1.7072    1.8453   -1.0806 S   0  0  0  0  0  0  0  0  0  0  0  0
    1.2345    2.9225   -1.7191 H   0  0  0  0  0  0  0  0  0  0  0  0
    0.8363   -0.1441    1.4782 C   0  0  0  0  0  0  0  0  0  0  0  0
    2.0194   -0.4111    1.6910 O   0  0  0  0  0  0  0  0  0  0  0  0
    0.0038    0.2415    2.4522 N   0  0  0  0  0  0  0  0  0  0  0  0
   -0.9654    0.3801    2.2053 H   0  0  0  0  0  0  0  0  0  0  0  0
    0.3876    0.3897    3.8549 C   0  0  0  0  0  0  0  0  0  0  0  0
    1.2944    0.9945    3.9282 H   0  0  0  0  0  0  0  0  0  0  0  0
   -0.4130    0.8733    4.4159 H   0  0  0  0  0  0  0  0  0  0  0  0
    0.5882   -0.5926    4.2858 H   0  0  0  0  0  0  0  0  0  0  0  0
  5  6  2  0  0  0  0
  5  7  1  0  0  0  0
  2  3  1  0  0  0  0
  2  4  1  0  0  0  0
  2  5  1  0  0  0  0
  1  2  1  0  0  0  0
 16 17  2  0  0  0  0
 16 18  1  0  0  0  0
 14 15  1  0  0  0  0
 11 12  1  0  0  0  0
 11 13  1  0  0  0  0
 11 14  1  0  0  0  0
  9 10  1  0  0  0  0
  9 11  1  0  0  0  0
  9 16  1  0  0  0  0
  7  8  1  0  0  0  0
  7  9  1  0  0  0  0
 20 21  1  0  0  0  0
 20 22  1  0  0  0  0
 20 23  1  0  0  0  0
 18 19  1  0  0  0  0
 18 20  1  0  0  0  0
M  END
$$$$
default_name
  -OEChem-02102213163D

 23 22  0     1  0  0  0  0  0999 V2000
   -2.6857   -3.6684    0.8743 H   0  0  0  0  0  0  0  0  0  0  0  0
   -2.6617   -2.6474    0.4953 C   0  0  0  0  0  0  0  0  0  0  0  0
   -3.2657   -2.0054    1.1353 H   0  0  0  0  0  0  0  0  0  0  0  0
   -3.0477   -2.6254   -0.5217 H   0  0  0  0  0  0  0  0  0  0  0  0
   -1.2337   -2.1564    0.4993 C   0  0  0  0  0  0  0  0  0  0  0  0
   -0.3327   -2.8864    0.8893 O   0  0  0  0  0  0  0  0  0  0  0  0
   -1.0277   -0.9164    0.0623 N   0  0  0  0  0  0  0  0  0  0  0  0
   -1.8237   -0.3604   -0.2157 H   0  0  0  0  0  0  0  0  0  0  0  0
    0.2713   -0.2414    0.0463 C   0  0  1  0  0  0  0  0  0  0  0  0
    0.9671   -0.8331   -0.5520 H   0  0  0  0  0  0  0  0  0  0  0  0
    0.0999    1.1316   -0.6240 C   0  0  0  0  0  0  0  0  0  0  0  0
   -0.7021    1.0661   -1.3627 H   0  0  0  0  0  0  0  0  0  0  0  0
   -0.1760    1.8725    0.1291 H   0  0  0  0  0  0  0  0  0  0  0  0
    1.6249    1.6465   -1.4669 S   0  0  0  0  0  0  0  0  0  0  0  0
    1.1374    2.7612   -2.0247 H   0  0  0  0  0  0  0  0  0  0  0  0
    0.8363   -0.1441    1.4782 C   0  0  0  0  0  0  0  0  0  0  0  0
    2.0194   -0.4111    1.6910 O   0  0  0  0  0  0  0  0  0  0  0  0
    0.0038    0.2415    2.4522 N   0  0  0  0  0  0  0  0  0  0  0  0
   -0.9654    0.3801    2.2053 H   0  0  0  0  0  0  0  0  0  0  0  0
    0.3876    0.3897    3.8549 C   0  0  0  0  0  0  0  0  0  0  0  0
    1.2944    0.9945    3.9282 H   0  0  0  0  0  0  0  0  0  0  0  0
   -0.4130    0.8733    4.4159 H   0  0  0  0  0  0  0  0  0  0  0  0
    0.5882   -0.5926    4.2858 H   0  0  0  0  0  0  0  0  0  0  0  0
  5  6  2  0  0  0  0
  5  7  1  0  0  0  0
  2  3  1  0  0  0  0
  2  4  1  0  0  0  0
  2  5  1  0  0  0  0
  1  2  1  0  0  0  0
 16 17  2  0  0  0  0
 16 18  1  0  0  0  0
 14 15  1  0  0  0  0
 11 12  1  0  0  0  0
 11 13  1  0  0  0  0
 11 14  1  0  0  0  0
  9 10  1  0  0  0  0
  9 11  1  0  0  0  0
  9 16  1  0  0  0  0
  7  8  1  0  0  0  0
  7  9  1  0  0  0  0
 20 21  1  0  0  0  0
 20 22  1  0  0  0  0
 20 23  1  0  0  0  0
 18 19  1  0  0  0  0
 18 20  1  0  0  0  0
M  END
$$$$
default_name
  -OEChem-02102213163D

 23 22  0     1  0  0  0  0  0999 V2000
   -2.6857   -3.6684    0.8743 H   0  0  0  0  0  0  0  0  0  0  0  0
   -2.6617   -2.6474    0.4953 C   0  0  0  0  0  0  0  0  0  0  0  0
   -3.2657   -2.0054    1.1353 H   0  0  0  0  0  0  0  0  0  0  0  0
   -3.0477   -2.6254   -0.5217 H   0  0  0  0  0  0  0  0  0  0  0  0
   -1.2337   -2.1564    0.4993 C   0  0  0  0  0  0  0  0  0  0  0  0
   -0.3327   -2.8864    0.8893 O   0  0  0  0  0  0  0  0  0  0  0  0
   -1.0277   -0.9164    0.0623 N   0  0  0  0  0  0  0  0  0  0  0  0
   -1.8237   -0.3604   -0.2157 H   0  0  0  0  0  0  0  0  0  0  0  0
    0.2713   -0.2414    0.0463 C   0  0  1  0  0  0  0  0  0  0  0  0
    0.9671   -0.8331   -0.5520 H   0  0  0  0  0  0  0  0  0  0  0  0
    0.0999    1.1316   -0.6240 C   0  0  0  0  0  0  0  0  0  0  0  0
   -0.8543    1.1483   -1.1556 H   0  0  0  0  0  0  0  0  0  0  0  0
    0.0897    1.9112    0.1404 H   0  0  0  0  0  0  0  0  0  0  0  0
    1.4337    1.4525   -1.8153 S   0  0  0  0  0  0  0  0  0  0  0  0
    0.9547    2.6075   -2.2928 H   0  0  0  0  0  0  0  0  0  0  0  0
    0.8363   -0.1441    1.4782 C   0  0  0  0  0  0  0  0  0  0  0  0
    2.0194   -0.4111    1.6910 O   0  0  0  0  0  0  0  0  0  0  0  0
    0.0038    0.2415    2.4522 N   0  0  0  0  0  0  0  0  0  0  0  0
   -0.9654    0.3801    2.2053 H   0  0  0  0  0  0  0  0  0  0  0  0
    0.3876    0.3897    3.8549 C   0  0  0  0  0  0  0  0  0  0  0  0
    1.2944    0.9945    3.9282 H   0  0  0  0  0  0  0  0  0  0  0  0
   -0.4130    0.8733    4.4159 H   0  0  0  0  0  0  0  0  0  0  0  0
    0.5882   -0.5926    4.2858 H   0  0  0  0  0  0  0  0  0  0  0  0
  5  6  2  0  0  0  0
  5  7  1  0  0  0  0
  2  3  1  0  0  0  0
  2  4  1  0  0  0  0
  2  5  1  0  0  0  0
  1  2  1  0  0  0  0
 16 17  2  0  0  0  0
 16 18  1  0  0  0  0
 14 15  1  0  0  0  0
 11 12  1  0  0  0  0
 11 13  1  0  0  0  0
 11 14  1  0  0  0  0
  9 10  1  0  0  0  0
  9 11  1  0  0  0  0
  9 16  1  0  0  0  0
  7  8  1  0  0  0  0
  7  9  1  0  0  0  0
 20 21  1  0  0  0  0
 20 22  1  0  0  0  0
 20 23  1  0  0  0  0
 18 19  1  0  0  0  0
 18 20  1  0  0  0  0
M  END
$$$$
default_name
  -OEChem-02102213163D

 23 22  0     1  0  0  0  0  0999 V2000
   -2.6857   -3.6684    0.8743 H   0  0  0  0  0  0  0  0  0  0  0  0
   -2.6617   -2.6474    0.4953 C   0  0  0  0  0  0  0  0  0  0  0  0
   -3.2657   -2.0054    1.1353 H   0  0  0  0  0  0  0  0  0  0  0  0
   -3.0477   -2.6254   -0.5217 H   0  0  0  0  0  0  0  0  0  0  0  0
   -1.2337   -2.1564    0.4993 C   0  0  0  0  0  0  0  0  0  0  0  0
   -0.3327   -2.8864    0.8893 O   0  0  0  0  0  0  0  0  0  0  0  0
   -1.0277   -0.9164    0.0623 N   0  0  0  0  0  0  0  0  0  0  0  0
   -1.8237   -0.3604   -0.2157 H   0  0  0  0  0  0  0  0  0  0  0  0
    0.2713   -0.2414    0.0463 C   0  0  1  0  0  0  0  0  0  0  0  0
    0.9671   -0.8331   -0.5520 H   0  0  0  0  0  0  0  0  0  0  0  0
    0.0999    1.1316   -0.6240 C   0  0  0  0  0  0  0  0  0  0  0  0
   -0.9441    1.2508   -0.9226 H   0  0  0  0  0  0  0  0  0  0  0  0
    0.3533    1.9189    0.0888 H   0  0  0  0  0  0  0  0  0  0  0  0
    1.1466    1.2767   -2.1020 S   0  0  0  0  0  0  0  0  0  0  0  0
    0.6990    2.4720   -2.5051 H   0  0  0  0  0  0  0  0  0  0  0  0
    0.8363   -0.1441    1.4782 C   0  0  0  0  0  0  0  0  0  0  0  0
    2.0194   -0.4111    1.6910 O   0  0  0  0  0  0  0  0  0  0  0  0
    0.0038    0.2415    2.4522 N   0  0  0  0  0  0  0  0  0  0  0  0
   -0.9654    0.3801    2.2053 H   0  0  0  0  0  0  0  0  0  0  0  0
    0.3876    0.3897    3.8549 C   0  0  0  0  0  0  0  0  0  0  0  0
    1.2944    0.9945    3.9282 H   0  0  0  0  0  0  0  0  0  0  0  0
   -0.4130    0.8733    4.4159 H   0  0  0  0  0  0  0  0  0  0  0  0
    0.5882   -0.5926    4.2858 H   0  0  0  0  0  0  0  0  0  0  0  0
  5  6  2  0  0  0  0
  5  7  1  0  0  0  0
  2  3  1  0  0  0  0
  2  4  1  0  0  0  0
  2  5  1  0  0  0  0
  1  2  1  0  0  0  0
 16 17  2  0  0  0  0
 16 18  1  0  0  0  0
 14 15  1  0  0  0  0
 11 12  1  0  0  0  0
 11 13  1  0  0  0  0
 11 14  1  0  0  0  0
  9 10  1  0  0  0  0
  9 11  1  0  0  0  0
  9 16  1  0  0  0  0
  7  8  1  0  0  0  0
  7  9  1  0  0  0  0
 20 21  1  0  0  0  0
 20 22  1  0  0  0  0
 20 23  1  0  0  0  0
 18 19  1  0  0  0  0
 18 20  1  0  0  0  0
M  END
$$$$
default_name
  -OEChem-02102213163D

 23 22  0     1  0  0  0  0  0999 V2000
   -2.6857   -3.6684    0.8743 H   0  0  0  0  0  0  0  0  0  0  0  0
   -2.6617   -2.6474    0.4953 C   0  0  0  0  0  0  0  0  0  0  0  0
   -3.2657   -2.0054    1.1353 H   0  0  0  0  0  0  0  0  0  0  0  0
   -3.0477   -2.6254   -0.5217 H   0  0  0  0  0  0  0  0  0  0  0  0
   -1.2337   -2.1564    0.4993 C   0  0  0  0  0  0  0  0  0  0  0  0
   -0.3327   -2.8864    0.8893 O   0  0  0  0  0  0  0  0  0  0  0  0
   -1.0277   -0.9164    0.0623 N   0  0  0  0  0  0  0  0  0  0  0  0
   -1.8237   -0.3604   -0.2157 H   0  0  0  0  0  0  0  0  0  0  0  0
    0.2713   -0.2414    0.0463 C   0  0  1  0  0  0  0  0  0  0  0  0
    0.9671   -0.8331   -0.5520 H   0  0  0  0  0  0  0  0  0  0  0  0
    0.0999    1.1316   -0.6240 C   0  0  0  0  0  0  0  0  0  0  0  0
   -0.9654    1.3666   -0.6799 H   0  0  0  0  0  0  0  0  0  0  0  0
    0.5969    1.8952   -0.0222 H   0  0  0  0  0  0  0  0  0  0  0  0
    0.7832    1.1310   -2.3076 S   0  0  0  0  0  0  0  0  0  0  0  0
    0.3877    2.3637   -2.6472 H   0  0  0  0  0  0  0  0  0  0  0  0
    0.8363   -0.1441    1.4782 C   0  0  0  0  0  0  0  0  0  0  0  0
    2.0194   -0.4111    1.6910 O   0  0  0  0  0  0  0  0  0  0  0  0
    0.0038    0.2415    2.4522 N   0  0  0  0  0  0  0  0  0  0  0  0
   -0.9654    0.3801    2.2053 H   0  0  0  0  0  0  0  0  0  0  0  0
    0.3876    0.3897    3.8549 C   0  0  0  0  0  0  0  0  0  0  0  0
    1.2944    0.9945    3.9282 H   0  0  0  0  0  0  0  0  0  0  0  0
   -0.4130    0.8733    4.4159 H   0  0  0  0  0  0  0  0  0  0  0  0
    0.5882   -0.5926    4.2858 H   0  0  0  0  0  0  0  0  0  0  0  0
  5  6  2  0  0  0  0
  5  7  1  0  0  0  0
  2  3  1  0  0  0  0
  2  4  1  0  0  0  0
  2  5  1  0  0  0  0
  1  2  1  0  0  0  0
 16 17  2  0  0  0  0
 16 18  1  0  0  0  0
 14 15  1  0  0  0  0
 11 12  1  0  0  0  0
 11 13  1  0  0  0  0
 11 14  1  0  0  0  0
  9 10  1  0  0  0  0
  9 11  1  0  0  0  0
  9 16  1  0  0  0  0
  7  8  1  0  0  0  0
  7  9  1  0  0  0  0
 20 21  1  0  0  0  0
 20 22  1  0  0  0  0
 20 23  1  0  0  0  0
 18 19  1  0  0  0  0
 18 20  1  0  0  0  0
M  END
$$$$
default_name
  -OEChem-02102213163D

 23 22  0     1  0  0  0  0  0999 V2000
   -2.6857   -3.6684    0.8743 H   0  0  0  0  0  0  0  0  0  0  0  0
   -2.6617   -2.6474    0.4953 C   0  0  0  0  0  0  0  0  0  0  0  0
   -3.2657   -2.0054    1.1353 H   0  0  0  0  0  0  0  0  0  0  0  0
   -3.0477   -2.6254   -0.5217 H   0  0  0  0  0  0  0  0  0  0  0  0
   -1.2337   -2.1564    0.4993 C   0  0  0  0  0  0  0  0  0  0  0  0
   -0.3327   -2.8864    0.8893 O   0  0  0  0  0  0  0  0  0  0  0  0
   -1.0277   -0.9164    0.0623 N   0  0  0  0  0  0  0  0  0  0  0  0
   -1.8237   -0.3604   -0.2157 H   0  0  0  0  0  0  0  0  0  0  0  0
    0.2713   -0.2414    0.0463 C   0  0  1  0  0  0  0  0  0  0  0  0
    0.9671   -0.8331   -0.5520 H   0  0  0  0  0  0  0  0  0  0  0  0
    0.0999    1.1316   -0.6240 C   0  0  0  0  0  0  0  0  0  0  0  0
   -0.9168    1.4879   -0.4438 H   0  0  0  0  0  0  0  0  0  0  0  0
    0.8038    1.8415   -0.1850 H   0  0  0  0  0  0  0  0  0  0  0  0
    0.3682    1.0253   -2.4179 S   0  0  0  0  0  0  0  0  0  0  0  0
    0.0418    2.2902   -2.7093 H   0  0  0  0  0  0  0  0  0  0  0  0
    0.8363   -0.1441    1.4782 C   0  0  0  0  0  0  0  0  0  0  0  0
    2.0194   -0.4111    1.6910 O   0  0  0  0  0  0  0  0  0  0  0  0
    0.0038    0.2415    2.4522 N   0  0  0  0  0  0  0  0  0  0  0  0
   -0.9654    0.3801    2.2053 H   0  0  0  0  0  0  0  0  0  0  0  0
    0.3876    0.3897    3.8549 C   0  0  0  0  0  0  0  0  0  0  0  0
    1.2944    0.9945    3.9282 H   0  0  0  0  0  0  0  0  0  0  0  0
   -0.4130    0.8733    4.4159 H   0  0  0  0  0  0  0  0  0  0  0  0
    0.5882   -0.5926    4.2858 H   0  0  0  0  0  0  0  0  0  0  0  0
  5  6  2  0  0  0  0
  5  7  1  0  0  0  0
  2  3  1  0  0  0  0
  2  4  1  0  0  0  0
  2  5  1  0  0  0  0
  1  2  1  0  0  0  0
 16 17  2  0  0  0  0
 16 18  1  0  0  0  0
 14 15  1  0  0  0  0
 11 12  1  0  0  0  0
 11 13  1  0  0  0  0
 11 14  1  0  0  0  0
  9 10  1  0  0  0  0
  9 11  1  0  0  0  0
  9 16  1  0  0  0  0
  7  8  1  0  0  0  0
  7  9  1  0  0  0  0
 20 21  1  0  0  0  0
 20 22  1  0  0  0  0
 20 23  1  0  0  0  0
 18 19  1  0  0  0  0
 18 20  1  0  0  0  0
M  END
$$$$
default_name
  -OEChem-02102213163D

 23 22  0     1  0  0  0  0  0999 V2000
   -2.6857   -3.6684    0.8743 H   0  0  0  0  0  0  0  0  0  0  0  0
   -2.6617   -2.6474    0.4953 C   0  0  0  0  0  0  0  0  0  0  0  0
   -3.2657   -2.0054    1.1353 H   0  0  0  0  0  0  0  0  0  0  0  0
   -3.0477   -2.6254   -0.5217 H   0  0  0  0  0  0  0  0  0  0  0  0
   -1.2337   -2.1564    0.4993 C   0  0  0  0  0  0  0  0  0  0  0  0
   -0.3327   -2.8864    0.8893 O   0  0  0  0  0  0  0  0  0  0  0  0
   -1.0277   -0.9164    0.0623 N   0  0  0  0  0  0  0  0  0  0  0  0
   -1.8237   -0.3604   -0.2157 H   0  0  0  0  0  0  0  0  0  0  0  0
    0.2713   -0.2414    0.0463 C   0  0  1  0  0  0  0  0  0  0  0  0
    0.9671   -0.8331   -0.5520 H   0  0  0  0  0  0  0  0  0  0  0  0
    0.0999    1.1316   -0.6240 C   0  0  0  0  0  0  0  0  0  0  0  0
   -0.8017    1.6065   -0.2304 H   0  0  0  0  0  0  0  0  0  0  0  0
    0.9600    1.7616   -0.3886 H   0  0  0  0  0  0  0  0  0  0  0  0
   -0.0700    0.9668   -2.4255 S   0  0  0  0  0  0  0  0  0  0  0  0
   -0.3148    2.2564   -2.6872 H   0  0  0  0  0  0  0  0  0  0  0  0
    0.8363   -0.1441    1.4782 C   0  0  0  0  0  0  0  0  0  0  0  0
    2.0194   -0.4111    1.6910 O   0  0  0  0  0  0  0  0  0  0  0  0
    0.0038    0.2415    2.4522 N   0  0  0  0  0  0  0  0  0  0  0  0
   -0.9654    0.3801    2.2053 H   0  0  0  0  0  0  0  0  0  0  0  0
    0.3876    0.3897    3.8549 C   0  0  0  0  0  0  0  0  0  0  0  0
    1.2944    0.9945    3.9282 H   0  0  0  0  0  0  0  0  0  0  0  0
   -0.4130    0.8733    4.4159 H   0  0  0  0  0  0  0  0  0  0  0  0
    0.5882   -0.5926    4.2858 H   0  0  0  0  0  0  0  0  0  0  0  0
  5  6  2  0  0  0  0
  5  7  1  0  0  0  0
  2  3  1  0  0  0  0
  2  4  1  0  0  0  0
  2  5  1  0  0  0  0
  1  2  1  0  0  0  0
 16 17  2  0  0  0  0
 16 18  1  0  0  0  0
 14 15  1  0  0  0  0
 11 12  1  0  0  0  0
 11 13  1  0  0  0  0
 11 14  1  0  0  0  0
  9 10  1  0  0  0  0
  9 11  1  0  0  0  0
  9 16  1  0  0  0  0
  7  8  1  0  0  0  0
  7  9  1  0  0  0  0
 20 21  1  0  0  0  0
 20 22  1  0  0  0  0
 20 23  1  0  0  0  0
 18 19  1  0  0  0  0
 18 20  1  0  0  0  0
M  END
$$$$
default_name
  -OEChem-02102213163D

 23 22  0     1  0  0  0  0  0999 V2000
   -2.6857   -3.6684    0.8743 H   0  0  0  0  0  0  0  0  0  0  0  0
   -2.6617   -2.6474    0.4953 C   0  0  0  0  0  0  0  0  0  0  0  0
   -3.2657   -2.0054    1.1353 H   0  0  0  0  0  0  0  0  0  0  0  0
   -3.0477   -2.6254   -0.5217 H   0  0  0  0  0  0  0  0  0  0  0  0
   -1.2337   -2.1564    0.4993 C   0  0  0  0  0  0  0  0  0  0  0  0
   -0.3327   -2.8864    0.8893 O   0  0  0  0  0  0  0  0  0  0  0  0
   -1.0277   -0.9164    0.0623 N   0  0  0  0  0  0  0  0  0  0  0  0
   -1.8237   -0.3604   -0.2157 H   0  0  0  0  0  0  0  0  0  0  0  0
    0.2713   -0.2414    0.0463 C   0  0  1  0  0  0  0  0  0  0  0  0
    0.9671   -0.8331   -0.5520 H   0  0  0  0  0  0  0  0  0  0  0  0
    0.0999    1.1316   -0.6240 C   0  0  0  0  0  0  0  0  0  0  0  0
   -0.6278    1.7141   -0.0544 H   0  0  0  0  0  0  0  0  0  0  0  0
    1.0548    1.6610   -0.6190 H   0  0  0  0  0  0  0  0  0  0  0  0
   -0.5017    0.9596   -2.3298 S   0  0  0  0  0  0  0  0  0  0  0  0
   -0.6581    2.2647   -2.5825 H   0  0  0  0  0  0  0  0  0  0  0  0
    0.8363   -0.1441    1.4782 C   0  0  0  0  0  0  0  0  0  0  0  0
    2.0194   -0.4111    1.6910 O   0  0  0  0  0  0  0  0  0  0  0  0
    0.0038    0.2415    2.4522 N   0  0  0  0  0  0  0  0  0  0  0  0
   -0.9654    0.3801    2.2053 H   0  0  0  0  0  0  0  0  0  0  0  0
    0.3876    0.3897    3.8549 C   0  0  0  0  0  0  0  0  0  0  0  0
    1.2944    0.9945    3.9282 H   0  0  0  0  0  0  0  0  0  0  0  0
   -0.4130    0.8733    4.4159 H   0  0  0  0  0  0  0  0  0  0  0  0
    0.5882   -0.5926    4.2858 H   0  0  0  0  0  0  0  0  0  0  0  0
  5  6  2  0  0  0  0
  5  7  1  0  0  0  0
  2  3  1  0  0  0  0
  2  4  1  0  0  0  0
  2  5  1  0  0  0  0
  1  2  1  0  0  0  0
 16 17  2  0  0  0  0
 16 18  1  0  0  0  0
 14 15  1  0  0  0  0
 11 12  1  0  0  0  0
 11 13  1  0  0  0  0
 11 14  1  0  0  0  0
  9 10  1  0  0  0  0
  9 11  1  0  0  0  0
  9 16  1  0  0  0  0
  7  8  1  0  0  0  0
  7  9  1  0  0  0  0
 20 21  1  0  0  0  0
 20 22  1  0  0  0  0
 20 23  1  0  0  0  0
 18 19  1  0  0  0  0
 18 20  1  0  0  0  0
M  END
$$$$
default_name
  -OEChem-02102213163D

 23 22  0     1  0  0  0  0  0999 V2000
   -2.6857   -3.6684    0.8743 H   0  0  0  0  0  0  0  0  0  0  0  0
   -2.6617   -2.6474    0.4953 C   0  0  0  0  0  0  0  0  0  0  0  0
   -3.2657   -2.0054    1.1353 H   0  0  0  0  0  0  0  0  0  0  0  0
   -3.0477   -2.6254   -0.5217 H   0  0  0  0  0  0  0  0  0  0  0  0
   -1.2337   -2.1564    0.4993 C   0  0  0  0  0  0  0  0  0  0  0  0
   -0.3327   -2.8864    0.8893 O   0  0  0  0  0  0  0  0  0  0  0  0
   -1.0277   -0.9164    0.0623 N   0  0  0  0  0  0  0  0  0  0  0  0
   -1.8237   -0.3604   -0.2157 H   0  0  0  0  0  0  0  0  0  0  0  0
    0.2713   -0.2414    0.0463 C   0  0  1  0  0  0  0  0  0  0  0  0
    0.9671   -0.8331   -0.5520 H   0  0  0  0  0  0  0  0  0  0  0  0
    0.0999    1.1316   -0.6240 C   0  0  0  0  0  0  0  0  0  0  0  0
   -0.4069    1.8036    0.0723 H   0  0  0  0  0  0  0  0  0  0  0  0
    1.0818    1.5464   -0.8606 H   0  0  0  0  0  0  0  0  0  0  0  0
   -0.8974    1.0041   -2.1374 S   0  0  0  0  0  0  0  0  0  0  0  0
   -0.9645    2.3144   -2.4023 H   0  0  0  0  0  0  0  0  0  0  0  0
    0.8363   -0.1441    1.4782 C   0  0  0  0  0  0  0  0  0  0  0  0
    2.0194   -0.4111    1.6910 O   0  0  0  0  0  0  0  0  0  0  0  0
    0.0038    0.2415    2.4522 N   0  0  0  0  0  0  0  0  0  0  0  0
   -0.9654    0.3801    2.2053 H   0  0  0  0  0  0  0  0  0  0  0  0
    0.3876    0.3897    3.8549 C   0  0  0  0  0  0  0  0  0  0  0  0
    1.2944    0.9945    3.9282 H   0  0  0  0  0  0  0  0  0  0  0  0
   -0.4130    0.8733    4.4159 H   0  0  0  0  0  0  0  0  0  0  0  0
    0.5882   -0.5926    4.2858 H   0  0  0  0  0  0  0  0  0  0  0  0
  5  6  2  0  0  0  0
  5  7  1  0  0  0  0
  2  3  1  0  0  0  0
  2  4  1  0  0  0  0
  2  5  1  0  0  0  0
  1  2  1  0  0  0  0
 16 17  2  0  0  0  0
 16 18  1  0  0  0  0
 14 15  1  0  0  0  0
 11 12  1  0  0  0  0
 11 13  1  0  0  0  0
 11 14  1  0  0  0  0
  9 10  1  0  0  0  0
  9 11  1  0  0  0  0
  9 16  1  0  0  0  0
  7  8  1  0  0  0  0
  7  9  1  0  0  0  0
 20 21  1  0  0  0  0
 20 22  1  0  0  0  0
 20 23  1  0  0  0  0
 18 19  1  0  0  0  0
 18 20  1  0  0  0  0
M  END
$$$$
default_name
  -OEChem-02102213163D

 23 22  0     1  0  0  0  0  0999 V2000
   -2.6857   -3.6684    0.8743 H   0  0  0  0  0  0  0  0  0  0  0  0
   -2.6617   -2.6474    0.4953 C   0  0  0  0  0  0  0  0  0  0  0  0
   -3.2657   -2.0054    1.1353 H   0  0  0  0  0  0  0  0  0  0  0  0
   -3.0477   -2.6254   -0.5217 H   0  0  0  0  0  0  0  0  0  0  0  0
   -1.2337   -2.1564    0.4993 C   0  0  0  0  0  0  0  0  0  0  0  0
   -0.3327   -2.8864    0.8893 O   0  0  0  0  0  0  0  0  0  0  0  0
   -1.0277   -0.9164    0.0623 N   0  0  0  0  0  0  0  0  0  0  0  0
   -1.8237   -0.3604   -0.2157 H   0  0  0  0  0  0  0  0  0  0  0  0
    0.2713   -0.2414    0.0463 C   0  0  1  0  0  0  0  0  0  0  0  0
    0.9671   -0.8331   -0.5520 H   0  0  0  0  0  0  0  0  0  0  0  0
    0.0999    1.1316   -0.6240 C   0  0  0  0  0  0  0  0  0  0  0  0
   -0.1542    1.8687    0.1411 H   0  0  0  0  0  0  0  0  0  0  0  0
    1.0391    1.4257   -1.0969 H   0  0  0  0  0  0  0  0  0  0  0  0
   -1.2301    1.0973   -1.8615 S   0  0  0  0  0  0  0  0  0  0  0  0
   -1.2132    2.4022   -2.1588 H   0  0  0  0  0  0  0  0  0  0  0  0
    0.8363   -0.1441    1.4782 C   0  0  0  0  0  0  0  0  0  0  0  0
    2.0194   -0.4111    1.6910 O   0  0  0  0  0  0  0  0  0  0  0  0
    0.0038    0.2415    2.4522 N   0  0  0  0  0  0  0  0  0  0  0  0
   -0.9654    0.3801    2.2053 H   0  0  0  0  0  0  0  0  0  0  0  0
    0.3876    0.3897    3.8549 C   0  0  0  0  0  0  0  0  0  0  0  0
    1.2944    0.9945    3.9282 H   0  0  0  0  0  0  0  0  0  0  0  0
   -0.4130    0.8733    4.4159 H   0  0  0  0  0  0  0  0  0  0  0  0
    0.5882   -0.5926    4.2858 H   0  0  0  0  0  0  0  0  0  0  0  0
  5  6  2  0  0  0  0
  5  7  1  0  0  0  0
  2  3  1  0  0  0  0
  2  4  1  0  0  0  0
  2  5  1  0  0  0  0
  1  2  1  0  0  0  0
 16 17  2  0  0  0  0
 16 18  1  0  0  0  0
 14 15  1  0  0  0  0
 11 12  1  0  0  0  0
 11 13  1  0  0  0  0
 11 14  1  0  0  0  0
  9 10  1  0  0  0  0
  9 11  1  0  0  0  0
  9 16  1  0  0  0  0
  7  8  1  0  0  0  0
  7  9  1  0  0  0  0
 20 21  1  0  0  0  0
 20 22  1  0  0  0  0
 20 23  1  0  0  0  0
 18 19  1  0  0  0  0
 18 20  1  0  0  0  0
M  END
$$$$
default_name
  -OEChem-02102213163D

 23 22  0     1  0  0  0  0  0999 V2000
   -2.6857   -3.6684    0.8743 H   0  0  0  0  0  0  0  0  0  0  0  0
   -2.6617   -2.6474    0.4953 C   0  0  0  0  0  0  0  0  0  0  0  0
   -3.2657   -2.0054    1.1353 H   0  0  0  0  0  0  0  0  0  0  0  0
   -3.0477   -2.6254   -0.5217 H   0  0  0  0  0  0  0  0  0  0  0  0
   -1.2337   -2.1564    0.4993 C   0  0  0  0  0  0  0  0  0  0  0  0
   -0.3327   -2.8864    0.8893 O   0  0  0  0  0  0  0  0  0  0  0  0
   -1.0277   -0.9164    0.0623 N   0  0  0  0  0  0  0  0  0  0  0  0
   -1.8237   -0.3604   -0.2157 H   0  0  0  0  0  0  0  0  0  0  0  0
    0.2713   -0.2414    0.0463 C   0  0  1  0  0  0  0  0  0  0  0  0
    0.9671   -0.8331   -0.5520 H   0  0  0  0  0  0  0  0  0  0  0  0
    0.0999    1.1316   -0.6240 C   0  0  0  0  0  0  0  0  0  0  0  0
    0.1131    1.9051    0.1472 H   0  0  0  0  0  0  0  0  0  0  0  0
    0.9296    1.3071   -1.3118 H   0  0  0  0  0  0  0  0  0  0  0  0
   -1.4772    1.2328   -1.5207 S   0  0  0  0  0  0  0  0  0  0  0  0
   -1.3872    2.5221   -1.8687 H   0  0  0  0  0  0  0  0  0  0  0  0
    0.8363   -0.1441    1.4782 C   0  0  0  0  0  0  0  0  0  0  0  0
    2.0194   -0.4111    1.6910 O   0  0  0  0  0  0  0  0  0  0  0  0
    0.0038    0.2415    2.4522 N   0  0  0  0  0  0  0  0  0  0  0  0
   -0.9654    0.3801    2.2053 H   0  0  0  0  0  0  0  0  0  0  0  0
    0.3876    0.3897    3.8549 C   0  0  0  0  0  0  0  0  0  0  0  0
    1.2944    0.9945    3.9282 H   0  0  0  0  0  0  0  0  0  0  0  0
   -0.4130    0.8733    4.4159 H   0  0  0  0  0  0  0  0  0  0  0  0
    0.5882   -0.5926    4.2858 H   0  0  0  0  0  0  0  0  0  0  0  0
  5  6  2  0  0  0  0
  5  7  1  0  0  0  0
  2  3  1  0  0  0  0
  2  4  1  0  0  0  0
  2  5  1  0  0  0  0
  1  2  1  0  0  0  0
 16 17  2  0  0  0  0
 16 18  1  0  0  0  0
 14 15  1  0  0  0  0
 11 12  1  0  0  0  0
 11 13  1  0  0  0  0
 11 14  1  0  0  0  0
  9 10  1  0  0  0  0
  9 11  1  0  0  0  0
  9 16  1  0  0  0  0
  7  8  1  0  0  0  0
  7  9  1  0  0  0  0
 20 21  1  0  0  0  0
 20 22  1  0  0  0  0
 20 23  1  0  0  0  0
 18 19  1  0  0  0  0
 18 20  1  0  0  0  0
M  END
$$$$
default_name
  -OEChem-02102213163D

 23 22  0     1  0  0  0  0  0999 V2000
   -2.6857   -3.6684    0.8743 H   0  0  0  0  0  0  0  0  0  0  0  0
   -2.6617   -2.6474    0.4953 C   0  0  0  0  0  0  0  0  0  0  0  0
   -3.2657   -2.0054    1.1353 H   0  0  0  0  0  0  0  0  0  0  0  0
   -3.0477   -2.6254   -0.5217 H   0  0  0  0  0  0  0  0  0  0  0  0
   -1.2337   -2.1564    0.4993 C   0  0  0  0  0  0  0  0  0  0  0  0
   -0.3327   -2.8864    0.8893 O   0  0  0  0  0  0  0  0  0  0  0  0
   -1.0277   -0.9164    0.0623 N   0  0  0  0  0  0  0  0  0  0  0  0
   -1.8237   -0.3604   -0.2157 H   0  0  0  0  0  0  0  0  0  0  0  0
    0.2713   -0.2414    0.0463 C   0  0  1  0  0  0  0  0  0  0  0  0
    0.9671   -0.8331   -0.5520 H   0  0  0  0  0  0  0  0  0  0  0  0
    0.0999    1.1316   -0.6240 C   0  0  0  0  0  0  0  0  0  0  0  0
    0.3768    1.9102    0.0903 H   0  0  0  0  0  0  0  0  0  0  0  0
    0.7608    1.1988   -1.4906 H   0  0  0  0  0  0  0  0  0  0  0  0
   -1.6218    1.4014   -1.1383 S   0  0  0  0  0  0  0  0  0  0  0  0
   -1.4747    2.6660   -1.5517 H   0  0  0  0  0  0  0  0  0  0  0  0
    0.8363   -0.1441    1.4782 C   0  0  0  0  0  0  0  0  0  0  0  0
    2.0194   -0.4111    1.6910 O   0  0  0  0  0  0  0  0  0  0  0  0
    0.0038    0.2415    2.4522 N   0  0  0  0  0  0  0  0  0  0  0  0
   -0.9654    0.3801    2.2053 H   0  0  0  0  0  0  0  0  0  0  0  0
    0.3876    0.3897    3.8549 C   0  0  0  0  0  0  0  0  0  0  0  0
    1.2944    0.9945    3.9282 H   0  0  0  0  0  0  0  0  0  0  0  0
   -0.4130    0.8733    4.4159 H   0  0  0  0  0  0  0  0  0  0  0  0
    0.5882   -0.5926    4.2858 H   0  0  0  0  0  0  0  0  0  0  0  0
  5  6  2  0  0  0  0
  5  7  1  0  0  0  0
  2  3  1  0  0  0  0
  2  4  1  0  0  0  0
  2  5  1  0  0  0  0
  1  2  1  0  0  0  0
 16 17  2  0  0  0  0
 16 18  1  0  0  0  0
 14 15  1  0  0  0  0
 11 12  1  0  0  0  0
 11 13  1  0  0  0  0
 11 14  1  0  0  0  0
  9 10  1  0  0  0  0
  9 11  1  0  0  0  0
  9 16  1  0  0  0  0
  7  8  1  0  0  0  0
  7  9  1  0  0  0  0
 20 21  1  0  0  0  0
 20 22  1  0  0  0  0
 20 23  1  0  0  0  0
 18 19  1  0  0  0  0
 18 20  1  0  0  0  0
M  END
$$$$
default_name
  -OEChem-02102213163D

 23 22  0     1  0  0  0  0  0999 V2000
   -2.6857   -3.6684    0.8743 H   0  0  0  0  0  0  0  0  0  0  0  0
   -2.6617   -2.6474    0.4953 C   0  0  0  0  0  0  0  0  0  0  0  0
   -3.2657   -2.0054    1.1353 H   0  0  0  0  0  0  0  0  0  0  0  0
   -3.0477   -2.6254   -0.5217 H   0  0  0  0  0  0  0  0  0  0  0  0
   -1.2337   -2.1564    0.4993 C   0  0  0  0  0  0  0  0  0  0  0  0
   -0.3327   -2.8864    0.8893 O   0  0  0  0  0  0  0  0  0  0  0  0
   -1.0277   -0.9164    0.0623 N   0  0  0  0  0  0  0  0  0  0  0  0
   -1.8237   -0.3604   -0.2157 H   0  0  0  0  0  0  0  0  0  0  0  0
    0.2713   -0.2414    0.0463 C   0  0  1  0  0  0  0  0  0  0  0  0
    0.9671   -0.8331   -0.5520 H   0  0  0  0  0  0  0  0  0  0  0  0
    0.0999    1.1316   -0.6240 C   0  0  0  0  0  0  0  0  0  0  0  0
    0.6190    1.8838   -0.0258 H   0  0  0  0  0  0  0  0  0  0  0  0
    0.5441    1.1080   -1.6211 H   0  0  0  0  0  0  0  0  0  0  0  0
   -1.6540    1.5916   -0.7404 S   0  0  0  0  0  0  0  0  0  0  0  0
   -1.4698    2.8239   -1.2294 H   0  0  0  0  0  0  0  0  0  0  0  0
    0.8363   -0.1441    1.4782 C   0  0  0  0  0  0  0  0  0  0  0  0
    2.0194   -0.4111    1.6910 O   0  0  0  0  0  0  0  0  0  0  0  0
    0.0038    0.2415    2.4522 N   0  0  0  0  0  0  0  0  0  0  0  0
   -0.9654    0.3801    2.2053 H   0  0  0  0  0  0  0  0  0  0  0  0
    0.3876    0.3897    3.8549 C   0  0  0  0  0  0  0  0  0  0  0  0
    1.2944    0.9945    3.9282 H   0  0  0  0  0  0  0  0  0  0  0  0
   -0.4130    0.8733    4.4159 H   0  0  0  0  0  0  0  0  0  0  0  0
    0.5882   -0.5926    4.2858 H   0  0  0  0  0  0  0  0  0  0  0  0
  5  6  2  0  0  0  0
  5  7  1  0  0  0  0
  2  3  1  0  0  0  0
  2  4  1  0  0  0  0
  2  5  1  0  0  0  0
  1  2  1  0  0  0  0
 16 17  2  0  0  0  0
 16 18  1  0  0  0  0
 14 15  1  0  0  0  0
 11 12  1  0  0  0  0
 11 13  1  0  0  0  0
 11 14  1  0  0  0  0
  9 10  1  0  0  0  0
  9 11  1  0  0  0  0
  9 16  1  0  0  0  0
  7  8  1  0  0  0  0
  7  9  1  0  0  0  0
 20 21  1  0  0  0  0
 20 22  1  0  0  0  0
 20 23  1  0  0  0  0
 18 19  1  0  0  0  0
 18 20  1  0  0  0  0
M  END
$$$$
default_name
  -OEChem-02102213163D

 23 22  0     1  0  0  0  0  0999 V2000
   -2.6857   -3.6684    0.8743 H   0  0  0  0  0  0  0  0  0  0  0  0
   -2.6617   -2.6474    0.4953 C   0  0  0  0  0  0  0  0  0  0  0  0
   -3.2657   -2.0054    1.1353 H   0  0  0  0  0  0  0  0  0  0  0  0
   -3.0477   -2.6254   -0.5217 H   0  0  0  0  0  0  0  0  0  0  0  0
   -1.2337   -2.1564    0.4993 C   0  0  0  0  0  0  0  0  0  0  0  0
   -0.3327   -2.8864    0.8893 O   0  0  0  0  0  0  0  0  0  0  0  0
   -1.0277   -0.9164    0.0623 N   0  0  0  0  0  0  0  0  0  0  0  0
   -1.8237   -0.3604   -0.2157 H   0  0  0  0  0  0  0  0  0  0  0  0
    0.2713   -0.2414    0.0463 C   0  0  1  0  0  0  0  0  0  0  0  0
    0.9671   -0.8331   -0.5520 H   0  0  0  0  0  0  0  0  0  0  0  0
    0.0999    1.1316   -0.6240 C   0  0  0  0  0  0  0  0  0  0  0  0
    0.8231    1.8276   -0.1931 H   0  0  0  0  0  0  0  0  0  0  0  0
    0.2945    1.0409   -1.6946 H   0  0  0  0  0  0  0  0  0  0  0  0
   -1.5717    1.7905   -0.3541 S   0  0  0  0  0  0  0  0  0  0  0  0
   -1.3727    2.9852   -0.9238 H   0  0  0  0  0  0  0  0  0  0  0  0
    0.8363   -0.1441    1.4782 C   0  0  0  0  0  0  0  0  0  0  0  0
    2.0194   -0.4111    1.6910 O   0  0  0  0  0  0  0  0  0  0  0  0
    0.0038    0.2415    2.4522 N   0  0  0  0  0  0  0  0  0  0  0  0
   -0.9654    0.3801    2.2053 H   0  0  0  0  0  0  0  0  0  0  0  0
    0.3876    0.3897    3.8549 C   0  0  0  0  0  0  0  0  0  0  0  0
    1.2944    0.9945    3.9282 H   0  0  0  0  0  0  0  0  0  0  0  0
   -0.4130    0.8733    4.4159 H   0  0  0  0  0  0  0  0  0  0  0  0
    0.5882   -0.5926    4.2858 H   0  0  0  0  0  0  0  0  0  0  0  0
  5  6  2  0  0  0  0
  5  7  1  0  0  0  0
  2  3  1  0  0  0  0
  2  4  1  0  0  0  0
  2  5  1  0  0  0  0
  1  2  1  0  0  0  0
 16 17  2  0  0  0  0
 16 18  1  0  0  0  0
 14 15  1  0  0  0  0
 11 12  1  0  0  0  0
 11 13  1  0  0  0  0
 11 14  1  0  0  0  0
  9 10  1  0  0  0  0
  9 11  1  0  0  0  0
  9 16  1  0  0  0  0
  7  8  1  0  0  0  0
  7  9  1  0  0  0  0
 20 21  1  0  0  0  0
 20 22  1  0  0  0  0
 20 23  1  0  0  0  0
 18 19  1  0  0  0  0
 18 20  1  0  0  0  0
M  END
$$$$
default_name
  -OEChem-02102213163D

 23 22  0     1  0  0  0  0  0999 V2000
   -2.6857   -3.6684    0.8743 H   0  0  0  0  0  0  0  0  0  0  0  0
   -2.6617   -2.6474    0.4953 C   0  0  0  0  0  0  0  0  0  0  0  0
   -3.2657   -2.0054    1.1353 H   0  0  0  0  0  0  0  0  0  0  0  0
   -3.0477   -2.6254   -0.5217 H   0  0  0  0  0  0  0  0  0  0  0  0
   -1.2337   -2.1564    0.4993 C   0  0  0  0  0  0  0  0  0  0  0  0
   -0.3327   -2.8864    0.8893 O   0  0  0  0  0  0  0  0  0  0  0  0
   -1.0277   -0.9164    0.0623 N   0  0  0  0  0  0  0  0  0  0  0  0
   -1.8237   -0.3604   -0.2157 H   0  0  0  0  0  0  0  0  0  0  0  0
    0.2713   -0.2414    0.0463 C   0  0  1  0  0  0  0  0  0  0  0  0
    0.9671   -0.8331   -0.5520 H   0  0  0  0  0  0  0  0  0  0  0  0
    0.0999    1.1316   -0.6240 C   0  0  0  0  0  0  0  0  0  0  0  0
    0.9752    1.7455   -0.4003 H   0  0  0  0  0  0  0  0  0  0  0  0
    0.0288    1.0022   -1.7059 H   0  0  0  0  0  0  0  0  0  0  0  0
   -1.3806    1.9845   -0.0057 S   0  0  0  0  0  0  0  0  0  0  0  0
   -1.1900    3.1389   -0.6557 H   0  0  0  0  0  0  0  0  0  0  0  0
    0.8363   -0.1441    1.4782 C   0  0  0  0  0  0  0  0  0  0  0  0
    2.0194   -0.4111    1.6910 O   0  0  0  0  0  0  0  0  0  0  0  0
    0.0038    0.2415    2.4522 N   0  0  0  0  0  0  0  0  0  0  0  0
   -0.9654    0.3801    2.2053 H   0  0  0  0  0  0  0  0  0  0  0  0
    0.3876    0.3897    3.8549 C   0  0  0  0  0  0  0  0  0  0  0  0
    1.2944    0.9945    3.9282 H   0  0  0  0  0  0  0  0  0  0  0  0
   -0.4130    0.8733    4.4159 H   0  0  0  0  0  0  0  0  0  0  0  0
    0.5882   -0.5926    4.2858 H   0  0  0  0  0  0  0  0  0  0  0  0
  5  6  2  0  0  0  0
  5  7  1  0  0  0  0
  2  3  1  0  0  0  0
  2  4  1  0  0  0  0
  2  5  1  0  0  0  0
  1  2  1  0  0  0  0
 16 17  2  0  0  0  0
 16 18  1  0  0  0  0
 14 15  1  0  0  0  0
 11 12  1  0  0  0  0
 11 13  1  0  0  0  0
 11 14  1  0  0  0  0
  9 10  1  0  0  0  0
  9 11  1  0  0  0  0
  9 16  1  0  0  0  0
  7  8  1  0  0  0  0
  7  9  1  0  0  0  0
 20 21  1  0  0  0  0
 20 22  1  0  0  0  0
 20 23  1  0  0  0  0
 18 19  1  0  0  0  0
 18 20  1  0  0  0  0
M  END
$$$$
default_name
  -OEChem-02102213163D

 23 22  0     1  0  0  0  0  0999 V2000
   -2.6857   -3.6684    0.8743 H   0  0  0  0  0  0  0  0  0  0  0  0
   -2.6617   -2.6474    0.4953 C   0  0  0  0  0  0  0  0  0  0  0  0
   -3.2657   -2.0054    1.1353 H   0  0  0  0  0  0  0  0  0  0  0  0
   -3.0477   -2.6254   -0.5217 H   0  0  0  0  0  0  0  0  0  0  0  0
   -1.2337   -2.1564    0.4993 C   0  0  0  0  0  0  0  0  0  0  0  0
   -0.3327   -2.8864    0.8893 O   0  0  0  0  0  0  0  0  0  0  0  0
   -1.0277   -0.9164    0.0623 N   0  0  0  0  0  0  0  0  0  0  0  0
   -1.8237   -0.3604   -0.2157 H   0  0  0  0  0  0  0  0  0  0  0  0
    0.2713   -0.2414    0.0463 C   0  0  1  0  0  0  0  0  0  0  0  0
    0.9671   -0.8331   -0.5520 H   0  0  0  0  0  0  0  0  0  0  0  0
    0.0999    1.1316   -0.6240 C   0  0  0  0  0  0  0  0  0  0  0  0
    1.0651    1.6430   -0.6332 H   0  0  0  0  0  0  0  0  0  0  0  0
   -0.2348    0.9945   -1.6543 H   0  0  0  0  0  0  0  0  0  0  0  0
   -1.0935    2.1603    0.2810 S   0  0  0  0  0  0  0  0  0  0  0  0
   -0.9343    3.2745   -0.4434 H   0  0  0  0  0  0  0  0  0  0  0  0
    0.8363   -0.1441    1.4782 C   0  0  0  0  0  0  0  0  0  0  0  0
    2.0194   -0.4111    1.6910 O   0  0  0  0  0  0  0  0  0  0  0  0
    0.0038    0.2415    2.4522 N   0  0  0  0  0  0  0  0  0  0  0  0
   -0.9654    0.3801    2.2053 H   0  0  0  0  0  0  0  0  0  0  0  0
    0.3876    0.3897    3.8549 C   0  0  0  0  0  0  0  0  0  0  0  0
    1.2944    0.9945    3.9282 H   0  0  0  0  0  0  0  0  0  0  0  0
   -0.4130    0.8733    4.4159 H   0  0  0  0  0  0  0  0  0  0  0  0
    0.5882   -0.5926    4.2858 H   0  0  0  0  0  0  0  0  0  0  0  0
  5  6  2  0  0  0  0
  5  7  1  0  0  0  0
  2  3  1  0  0  0  0
  2  4  1  0  0  0  0
  2  5  1  0  0  0  0
  1  2  1  0  0  0  0
 16 17  2  0  0  0  0
 16 18  1  0  0  0  0
 14 15  1  0  0  0  0
 11 12  1  0  0  0  0
 11 13  1  0  0  0  0
 11 14  1  0  0  0  0
  9 10  1  0  0  0  0
  9 11  1  0  0  0  0
  9 16  1  0  0  0  0
  7  8  1  0  0  0  0
  7  9  1  0  0  0  0
 20 21  1  0  0  0  0
 20 22  1  0  0  0  0
 20 23  1  0  0  0  0
 18 19  1  0  0  0  0
 18 20  1  0  0  0  0
M  END
$$$$
default_name
  -OEChem-02102213163D

 23 22  0     1  0  0  0  0  0999 V2000
   -2.6857   -3.6684    0.8743 H   0  0  0  0  0  0  0  0  0  0  0  0
   -2.6617   -2.6474    0.4953 C   0  0  0  0  0  0  0  0  0  0  0  0
   -3.2657   -2.0054    1.1353 H   0  0  0  0  0  0  0  0  0  0  0  0
   -3.0477   -2.6254   -0.5217 H   0  0  0  0  0  0  0  0  0  0  0  0
   -1.2337   -2.1564    0.4993 C   0  0  0  0  0  0  0  0  0  0  0  0
   -0.3327   -2.8864    0.8893 O   0  0  0  0  0  0  0  0  0  0  0  0
   -1.0277   -0.9164    0.0623 N   0  0  0  0  0  0  0  0  0  0  0  0
   -1.8237   -0.3604   -0.2157 H   0  0  0  0  0  0  0  0  0  0  0  0
    0.2713   -0.2414    0.0463 C   0  0  1  0  0  0  0  0  0  0  0  0
    0.9671   -0.8331   -0.5520 H   0  0  0  0  0  0  0  0  0  0  0  0
    0.0999    1.1316   -0.6240 C   0  0  0  0  0  0  0  0  0  0  0  0
    1.0864    1.5271   -0.8760 H   0  0  0  0  0  0  0  0  0  0  0  0
   -0.4784    1.0183   -1.5432 H   0  0  0  0  0  0  0  0  0  0  0  0
   -0.7300    2.3060    0.4865 S   0  0  0  0  0  0  0  0  0  0  0  0
   -0.6229    3.3827   -0.3013 H   0  0  0  0  0  0  0  0  0  0  0  0
    0.8363   -0.1441    1.4782 C   0  0  0  0  0  0  0  0  0  0  0  0
    2.0194   -0.4111    1.6910 O   0  0  0  0  0  0  0  0  0  0  0  0
    0.0038    0.2415    2.4522 N   0  0  0  0  0  0  0  0  0  0  0  0
   -0.9654    0.3801    2.2053 H   0  0  0  0  0  0  0  0  0  0  0  0
    0.3876    0.3897    3.8549 C   0  0  0  0  0  0  0  0  0  0  0  0
    1.2944    0.9945    3.9282 H   0  0  0  0  0  0  0  0  0  0  0  0
   -0.4130    0.8733    4.4159 H   0  0  0  0  0  0  0  0  0  0  0  0
    0.5882   -0.5926    4.2858 H   0  0  0  0  0  0  0  0  0  0  0  0
  5  6  2  0  0  0  0
  5  7  1  0  0  0  0
  2  3  1  0  0  0  0
  2  4  1  0  0  0  0
  2  5  1  0  0  0  0
  1  2  1  0  0  0  0
 16 17  2  0  0  0  0
 16 18  1  0  0  0  0
 14 15  1  0  0  0  0
 11 12  1  0  0  0  0
 11 13  1  0  0  0  0
 11 14  1  0  0  0  0
  9 10  1  0  0  0  0
  9 11  1  0  0  0  0
  9 16  1  0  0  0  0
  7  8  1  0  0  0  0
  7  9  1  0  0  0  0
 20 21  1  0  0  0  0
 20 22  1  0  0  0  0
 20 23  1  0  0  0  0
 18 19  1  0  0  0  0
 18 20  1  0  0  0  0
M  END
$$$$
default_name
  -OEChem-02102213163D

 23 22  0     1  0  0  0  0  0999 V2000
   -2.6857   -3.6684    0.8743 H   0  0  0  0  0  0  0  0  0  0  0  0
   -2.6617   -2.6474    0.4953 C   0  0  0  0  0  0  0  0  0  0  0  0
   -3.2657   -2.0054    1.1353 H   0  0  0  0  0  0  0  0  0  0  0  0
   -3.0477   -2.6254   -0.5217 H   0  0  0  0  0  0  0  0  0  0  0  0
   -1.2337   -2.1564    0.4993 C   0  0  0  0  0  0  0  0  0  0  0  0
   -0.3327   -2.8864    0.8893 O   0  0  0  0  0  0  0  0  0  0  0  0
   -1.0277   -0.9164    0.0623 N   0  0  0  0  0  0  0  0  0  0  0  0
   -1.8237   -0.3604   -0.2157 H   0  0  0  0  0  0  0  0  0  0  0  0
    0.2713   -0.2414    0.0463 C   0  0  1  0  0  0  0  0  0  0  0  0
    0.9671   -0.8331   -0.5520 H   0  0  0  0  0  0  0  0  0  0  0  0
    0.0999    1.1316   -0.6240 C   0  0  0  0  0  0  0  0  0  0  0  0
    1.0378    1.4058   -1.1121 H   0  0  0  0  0  0  0  0  0  0  0  0
   -0.6853    1.0719   -1.3804 H   0  0  0  0  0  0  0  0  0  0  0  0
   -0.3151    2.4117    0.5968 S   0  0  0  0  0  0  0  0  0  0  0  0
   -0.2771    3.4562   -0.2392 H   0  0  0  0  0  0  0  0  0  0  0  0
    0.8363   -0.1441    1.4782 C   0  0  0  0  0  0  0  0  0  0  0  0
    2.0194   -0.4111    1.6910 O   0  0  0  0  0  0  0  0  0  0  0  0
    0.0038    0.2415    2.4522 N   0  0  0  0  0  0  0  0  0  0  0  0
   -0.9654    0.3801    2.2053 H   0  0  0  0  0  0  0  0  0  0  0  0
    0.3876    0.3897    3.8549 C   0  0  0  0  0  0  0  0  0  0  0  0
    1.2944    0.9945    3.9282 H   0  0  0  0  0  0  0  0  0  0  0  0
   -0.4130    0.8733    4.4159 H   0  0  0  0  0  0  0  0  0  0  0  0
    0.5882   -0.5926    4.2858 H   0  0  0  0  0  0  0  0  0  0  0  0
  5  6  2  0  0  0  0
  5  7  1  0  0  0  0
  2  3  1  0  0  0  0
  2  4  1  0  0  0  0
  2  5  1  0  0  0  0
  1  2  1  0  0  0  0
 16 17  2  0  0  0  0
 16 18  1  0  0  0  0
 14 15  1  0  0  0  0
 11 12  1  0  0  0  0
 11 13  1  0  0  0  0
 11 14  1  0  0  0  0
  9 10  1  0  0  0  0
  9 11  1  0  0  0  0
  9 16  1  0  0  0  0
  7  8  1  0  0  0  0
  7  9  1  0  0  0  0
 20 21  1  0  0  0  0
 20 22  1  0  0  0  0
 20 23  1  0  0  0  0
 18 19  1  0  0  0  0
 18 20  1  0  0  0  0
M  END
$$$$
default_name
  -OEChem-02102213163D

 23 22  0     1  0  0  0  0  0999 V2000
   -2.6857   -3.6684    0.8743 H   0  0  0  0  0  0  0  0  0  0  0  0
   -2.6617   -2.6474    0.4953 C   0  0  0  0  0  0  0  0  0  0  0  0
   -3.2657   -2.0054    1.1353 H   0  0  0  0  0  0  0  0  0  0  0  0
   -3.0477   -2.6254   -0.5217 H   0  0  0  0  0  0  0  0  0  0  0  0
   -1.2337   -2.1564    0.4993 C   0  0  0  0  0  0  0  0  0  0  0  0
   -0.3327   -2.8864    0.8893 O   0  0  0  0  0  0  0  0  0  0  0  0
   -1.0277   -0.9164    0.0623 N   0  0  0  0  0  0  0  0  0  0  0  0
   -1.8237   -0.3604   -0.2157 H   0  0  0  0  0  0  0  0  0  0  0  0
    0.2713   -0.2414    0.0463 C   0  0  1  0  0  0  0  0  0  0  0  0
    0.9671   -0.8331   -0.5520 H   0  0  0  0  0  0  0  0  0  0  0  0
    0.0999    1.1316   -0.6240 C   0  0  0  0  0  0  0  0  0  0  0  0
    0.9227    1.2873   -1.3254 H   0  0  0  0  0  0  0  0  0  0  0  0
   -0.8415    1.1518   -1.1768 H   0  0  0  0  0  0  0  0  0  0  0  0
    0.1232    2.4701    0.6044 S   0  0  0  0  0  0  0  0  0  0  0  0
    0.0795    3.4900   -0.2613 H   0  0  0  0  0  0  0  0  0  0  0  0
    0.8363   -0.1441    1.4782 C   0  0  0  0  0  0  0  0  0  0  0  0
    2.0194   -0.4111    1.6910 O   0  0  0  0  0  0  0  0  0  0  0  0
    0.0038    0.2415    2.4522 N   0  0  0  0  0  0  0  0  0  0  0  0
   -0.9654    0.3801    2.2053 H   0  0  0  0  0  0  0  0  0  0  0  0
    0.3876    0.3897    3.8549 C   0  0  0  0  0  0  0  0  0  0  0  0
    1.2944    0.9945    3.9282 H   0  0  0  0  0  0  0  0  0  0  0  0
   -0.4130    0.8733    4.4159 H   0  0  0  0  0  0  0  0  0  0  0  0
    0.5882   -0.5926    4.2858 H   0  0  0  0  0  0  0  0  0  0  0  0
  5  6  2  0  0  0  0
  5  7  1  0  0  0  0
  2  3  1  0  0  0  0
  2  4  1  0  0  0  0
  2  5  1  0  0  0  0
  1  2  1  0  0  0  0
 16 17  2  0  0  0  0
 16 18  1  0  0  0  0
 14 15  1  0  0  0  0
 11 12  1  0  0  0  0
 11 13  1  0  0  0  0
 11 14  1  0  0  0  0
  9 10  1  0  0  0  0
  9 11  1  0  0  0  0
  9 16  1  0  0  0  0
  7  8  1  0  0  0  0
  7  9  1  0  0  0  0
 20 21  1  0  0  0  0
 20 22  1  0  0  0  0
 20 23  1  0  0  0  0
 18 19  1  0  0  0  0
 18 20  1  0  0  0  0
M  END
$$$$
default_name
  -OEChem-02102213163D

 23 22  0     1  0  0  0  0  0999 V2000
   -2.6857   -3.6684    0.8743 H   0  0  0  0  0  0  0  0  0  0  0  0
   -2.6617   -2.6474    0.4953 C   0  0  0  0  0  0  0  0  0  0  0  0
   -3.2657   -2.0054    1.1353 H   0  0  0  0  0  0  0  0  0  0  0  0
   -3.0477   -2.6254   -0.5217 H   0  0  0  0  0  0  0  0  0  0  0  0
   -1.2337   -2.1564    0.4993 C   0  0  0  0  0  0  0  0  0  0  0  0
   -0.3327   -2.8864    0.8893 O   0  0  0  0  0  0  0  0  0  0  0  0
   -1.0277   -0.9164    0.0623 N   0  0  0  0  0  0  0  0  0  0  0  0
   -1.8237   -0.3604   -0.2157 H   0  0  0  0  0  0  0  0  0  0  0  0
    0.2713   -0.2414    0.0463 C   0  0  1  0  0  0  0  0  0  0  0  0
    0.9671   -0.8331   -0.5520 H   0  0  0  0  0  0  0  0  0  0  0  0
    0.0999    1.1316   -0.6240 C   0  0  0  0  0  0  0  0  0  0  0  0
    0.7487    1.1796   -1.5014 H   0  0  0  0  0  0  0  0  0  0  0  0
   -0.9363    1.2525   -0.9464 H   0  0  0  0  0  0  0  0  0  0  0  0
    0.5549    2.4774    0.5088 S   0  0  0  0  0  0  0  0  0  0  0  0
    0.4228    3.4818   -0.3660 H   0  0  0  0  0  0  0  0  0  0  0  0
    0.8363   -0.1441    1.4782 C   0  0  0  0  0  0  0  0  0  0  0  0
    2.0194   -0.4111    1.6910 O   0  0  0  0  0  0  0  0  0  0  0  0
    0.0038    0.2415    2.4522 N   0  0  0  0  0  0  0  0  0  0  0  0
   -0.9654    0.3801    2.2053 H   0  0  0  0  0  0  0  0  0  0  0  0
    0.3876    0.3897    3.8549 C   0  0  0  0  0  0  0  0  0  0  0  0
    1.2944    0.9945    3.9282 H   0  0  0  0  0  0  0  0  0  0  0  0
   -0.4130    0.8733    4.4159 H   0  0  0  0  0  0  0  0  0  0  0  0
    0.5882   -0.5926    4.2858 H   0  0  0  0  0  0  0  0  0  0  0  0
  5  6  2  0  0  0  0
  5  7  1  0  0  0  0
  2  3  1  0  0  0  0
  2  4  1  0  0  0  0
  2  5  1  0  0  0  0
  1  2  1  0  0  0  0
 16 17  2  0  0  0  0
 16 18  1  0  0  0  0
 14 15  1  0  0  0  0
 11 12  1  0  0  0  0
 11 13  1  0  0  0  0
 11 14  1  0  0  0  0
  9 10  1  0  0  0  0
  9 11  1  0  0  0  0
  9 16  1  0  0  0  0
  7  8  1  0  0  0  0
  7  9  1  0  0  0  0
 20 21  1  0  0  0  0
 20 22  1  0  0  0  0
 20 23  1  0  0  0  0
 18 19  1  0  0  0  0
 18 20  1  0  0  0  0
M  END
$$$$
default_name
  -OEChem-02102213163D

 23 22  0     1  0  0  0  0  0999 V2000
   -2.6857   -3.6684    0.8743 H   0  0  0  0  0  0  0  0  0  0  0  0
   -2.6617   -2.6474    0.4953 C   0  0  0  0  0  0  0  0  0  0  0  0
   -3.2657   -2.0054    1.1353 H   0  0  0  0  0  0  0  0  0  0  0  0
   -3.0477   -2.6254   -0.5217 H   0  0  0  0  0  0  0  0  0  0  0  0
   -1.2337   -2.1564    0.4993 C   0  0  0  0  0  0  0  0  0  0  0  0
   -0.3327   -2.8864    0.8893 O   0  0  0  0  0  0  0  0  0  0  0  0
   -1.0277   -0.9164    0.0623 N   0  0  0  0  0  0  0  0  0  0  0  0
   -1.8237   -0.3604   -0.2157 H   0  0  0  0  0  0  0  0  0  0  0  0
    0.2713   -0.2414    0.0463 C   0  0  1  0  0  0  0  0  0  0  0  0
    0.9671   -0.8331   -0.5520 H   0  0  0  0  0  0  0  0  0  0  0  0
    0.0999    1.1316   -0.6240 C   0  0  0  0  0  0  0  0  0  0  0  0
    0.5279    1.0902   -1.6281 H   0  0  0  0  0  0  0  0  0  0  0  0
   -0.9633    1.3670   -0.7048 H   0  0  0  0  0  0  0  0  0  0  0  0
    0.9505    2.4329    0.3164 S   0  0  0  0  0  0  0  0  0  0  0  0
    0.7292    3.4321   -0.5462 H   0  0  0  0  0  0  0  0  0  0  0  0
    0.8363   -0.1441    1.4782 C   0  0  0  0  0  0  0  0  0  0  0  0
    2.0194   -0.4111    1.6910 O   0  0  0  0  0  0  0  0  0  0  0  0
    0.0038    0.2415    2.4522 N   0  0  0  0  0  0  0  0  0  0  0  0
   -0.9654    0.3801    2.2053 H   0  0  0  0  0  0  0  0  0  0  0  0
    0.3876    0.3897    3.8549 C   0  0  0  0  0  0  0  0  0  0  0  0
    1.2944    0.9945    3.9282 H   0  0  0  0  0  0  0  0  0  0  0  0
   -0.4130    0.8733    4.4159 H   0  0  0  0  0  0  0  0  0  0  0  0
    0.5882   -0.5926    4.2858 H   0  0  0  0  0  0  0  0  0  0  0  0
  5  6  2  0  0  0  0
  5  7  1  0  0  0  0
  2  3  1  0  0  0  0
  2  4  1  0  0  0  0
  2  5  1  0  0  0  0
  1  2  1  0  0  0  0
 16 17  2  0  0  0  0
 16 18  1  0  0  0  0
 14 15  1  0  0  0  0
 11 12  1  0  0  0  0
 11 13  1  0  0  0  0
 11 14  1  0  0  0  0
  9 10  1  0  0  0  0
  9 11  1  0  0  0  0
  9 16  1  0  0  0  0
  7  8  1  0  0  0  0
  7  9  1  0  0  0  0
 20 21  1  0  0  0  0
 20 22  1  0  0  0  0
 20 23  1  0  0  0  0
 18 19  1  0  0  0  0
 18 20  1  0  0  0  0
M  END
$$$$
default_name
  -OEChem-02102213163D

 23 22  0     1  0  0  0  0  0999 V2000
   -2.6857   -3.6684    0.8743 H   0  0  0  0  0  0  0  0  0  0  0  0
   -2.6617   -2.6474    0.4953 C   0  0  0  0  0  0  0  0  0  0  0  0
   -3.2657   -2.0054    1.1353 H   0  0  0  0  0  0  0  0  0  0  0  0
   -3.0477   -2.6254   -0.5217 H   0  0  0  0  0  0  0  0  0  0  0  0
   -1.2337   -2.1564    0.4993 C   0  0  0  0  0  0  0  0  0  0  0  0
   -0.3327   -2.8864    0.8893 O   0  0  0  0  0  0  0  0  0  0  0  0
   -1.0277   -0.9164    0.0623 N   0  0  0  0  0  0  0  0  0  0  0  0
   -1.8237   -0.3604   -0.2157 H   0  0  0  0  0  0  0  0  0  0  0  0
    0.2713   -0.2414    0.0463 C   0  0  1  0  0  0  0  0  0  0  0  0
    0.9671   -0.8331   -0.5520 H   0  0  0  0  0  0  0  0  0  0  0  0
    0.0999    1.1316   -0.6240 C   0  0  0  0  0  0  0  0  0  0  0  0
    0.2752    1.0251   -1.6969 H   0  0  0  0  0  0  0  0  0  0  0  0
   -0.9205    1.4877   -0.4686 H   0  0  0  0  0  0  0  0  0  0  0  0
    1.2832    2.3397    0.0404 S   0  0  0  0  0  0  0  0  0  0  0  0
    0.9779    3.3442   -0.7897 H   0  0  0  0  0  0  0  0  0  0  0  0
    0.8363   -0.1441    1.4782 C   0  0  0  0  0  0  0  0  0  0  0  0
    2.0194   -0.4111    1.6910 O   0  0  0  0  0  0  0  0  0  0  0  0
    0.0038    0.2415    2.4522 N   0  0  0  0  0  0  0  0  0  0  0  0
   -0.9654    0.3801    2.2053 H   0  0  0  0  0  0  0  0  0  0  0  0
    0.3876    0.3897    3.8549 C   0  0  0  0  0  0  0  0  0  0  0  0
    1.2944    0.9945    3.9282 H   0  0  0  0  0  0  0  0  0  0  0  0
   -0.4130    0.8733    4.4159 H   0  0  0  0  0  0  0  0  0  0  0  0
    0.5882   -0.5926    4.2858 H   0  0  0  0  0  0  0  0  0  0  0  0
  5  6  2  0  0  0  0
  5  7  1  0  0  0  0
  2  3  1  0  0  0  0
  2  4  1  0  0  0  0
  2  5  1  0  0  0  0
  1  2  1  0  0  0  0
 16 17  2  0  0  0  0
 16 18  1  0  0  0  0
 14 15  1  0  0  0  0
 11 12  1  0  0  0  0
 11 13  1  0  0  0  0
 11 14  1  0  0  0  0
  9 10  1  0  0  0  0
  9 11  1  0  0  0  0
  9 16  1  0  0  0  0
  7  8  1  0  0  0  0
  7  9  1  0  0  0  0
 20 21  1  0  0  0  0
 20 22  1  0  0  0  0
 20 23  1  0  0  0  0
 18 19  1  0  0  0  0
 18 20  1  0  0  0  0
M  END
$$$$
default_name
  -OEChem-02102213163D

 23 22  0     1  0  0  0  0  0999 V2000
   -2.6857   -3.6684    0.8743 H   0  0  0  0  0  0  0  0  0  0  0  0
   -2.6617   -2.6474    0.4953 C   0  0  0  0  0  0  0  0  0  0  0  0
   -3.2657   -2.0054    1.1353 H   0  0  0  0  0  0  0  0  0  0  0  0
   -3.0477   -2.6254   -0.5217 H   0  0  0  0  0  0  0  0  0  0  0  0
   -1.2337   -2.1564    0.4993 C   0  0  0  0  0  0  0  0  0  0  0  0
   -0.3327   -2.8864    0.8893 O   0  0  0  0  0  0  0  0  0  0  0  0
   -1.0277   -0.9164    0.0623 N   0  0  0  0  0  0  0  0  0  0  0  0
   -1.8237   -0.3604   -0.2157 H   0  0  0  0  0  0  0  0  0  0  0  0
    0.2713   -0.2414    0.0463 C   0  0  1  0  0  0  0  0  0  0  0  0
    0.9671   -0.8331   -0.5520 H   0  0  0  0  0  0  0  0  0  0  0  0
    0.0999    1.1316   -0.6240 C   0  0  0  0  0  0  0  0  0  0  0  0
    0.0079    0.9887   -1.7030 H   0  0  0  0  0  0  0  0  0  0  0  0
   -0.8110    1.6063   -0.2537 H   0  0  0  0  0  0  0  0  0  0  0  0
    1.5303    2.2042   -0.3004 S   0  0  0  0  0  0  0  0  0  0  0  0
    1.1519    3.2243   -1.0798 H   0  0  0  0  0  0  0  0  0  0  0  0
    0.8363   -0.1441    1.4782 C   0  0  0  0  0  0  0  0  0  0  0  0
    2.0194   -0.4111    1.6910 O   0  0  0  0  0  0  0  0  0  0  0  0
    0.0038    0.2415    2.4522 N   0  0  0  0  0  0  0  0  0  0  0  0
   -0.9654    0.3801    2.2053 H   0  0  0  0  0  0  0  0  0  0  0  0
    0.3876    0.3897    3.8549 C   0  0  0  0  0  0  0  0  0  0  0  0
    1.2944    0.9945    3.9282 H   0  0  0  0  0  0  0  0  0  0  0  0
   -0.4130    0.8733    4.4159 H   0  0  0  0  0  0  0  0  0  0  0  0
    0.5882   -0.5926    4.2858 H   0  0  0  0  0  0  0  0  0  0  0  0
  5  6  2  0  0  0  0
  5  7  1  0  0  0  0
  2  3  1  0  0  0  0
  2  4  1  0  0  0  0
  2  5  1  0  0  0  0
  1  2  1  0  0  0  0
 16 17  2  0  0  0  0
 16 18  1  0  0  0  0
 14 15  1  0  0  0  0
 11 12  1  0  0  0  0
 11 13  1  0  0  0  0
 11 14  1  0  0  0  0
  9 10  1  0  0  0  0
  9 11  1  0  0  0  0
  9 16  1  0  0  0  0
  7  8  1  0  0  0  0
  7  9  1  0  0  0  0
 20 21  1  0  0  0  0
 20 22  1  0  0  0  0
 20 23  1  0  0  0  0
 18 19  1  0  0  0  0
 18 20  1  0  0  0  0
M  END
$$$$
