
  -OEChem-04042215573D

 23 22  0     1  0  0  0  0  0999 V2000
   -2.6891   -3.6929    0.6218 H   0  0  0  0  0  0  0  0  0  0  0  0
   -2.6669   -2.6737    0.2261 C   0  0  0  0  0  0  0  0  0  0  0  0
   -3.2343   -2.0237    0.8963 H   0  0  0  0  0  0  0  0  0  0  0  0
   -3.1363   -2.6685   -0.7606 H   0  0  0  0  0  0  0  0  0  0  0  0
   -1.2344   -2.1862    0.1212 C   0  0  0  0  0  0  0  0  0  0  0  0
   -0.3129   -2.9290    0.4178 O   0  0  0  0  0  0  0  0  0  0  0  0
   -0.9764   -0.9040   -0.3154 N   0  0  0  0  0  0  0  0  0  0  0  0
   -1.7771   -0.2852   -0.4388 H   0  0  0  0  0  0  0  0  0  0  0  0
    0.3490   -0.2654   -0.2868 C   0  0  1  0  0  0  0  0  0  0  0  0
    1.0220   -0.8163    0.3786 H   0  0  0  0  0  0  0  0  0  0  0  0
    0.9365   -0.2781   -1.7000 C   0  0  0  0  0  0  0  0  0  0  0  0
    1.0151   -1.3126   -2.0504 H   0  0  0  0  0  0  0  0  0  0  0  0
    0.2675    0.2598   -2.3802 H   0  0  0  0  0  0  0  0  0  0  0  0
    2.6008    0.5083   -1.7257 S   0  0  0  0  0  0  0  0  0  0  0  0
    2.9167    0.3954   -3.0349 H   0  0  0  0  0  0  0  0  0  0  0  0
    0.2338    1.1733    0.2554 C   0  0  0  0  0  0  0  0  0  0  0  0
   -0.7344    1.8593   -0.0580 O   0  0  0  0  0  0  0  0  0  0  0  0
    1.1317    1.6497    1.1924 N   0  0  0  0  0  0  0  0  0  0  0  0
    1.9655    1.0905    1.3522 H   0  0  0  0  0  0  0  0  0  0  0  0
    1.0880    3.0085    1.7175 C   0  0  0  0  0  0  0  0  0  0  0  0
    0.1123    3.2151    2.1698 H   0  0  0  0  0  0  0  0  0  0  0  0
    1.8568    3.1416    2.4846 H   0  0  0  0  0  0  0  0  0  0  0  0
    1.2661    3.7340    0.9169 H   0  0  0  0  0  0  0  0  0  0  0  0
  1  2  1  0  0  0  0
  2  3  1  0  0  0  0
  2  4  1  0  0  0  0
  2  5  1  0  0  0  0
  5  6  2  0  0  0  0
  5  7  1  0  0  0  0
  7  8  1  0  0  0  0
  7  9  1  0  0  0  0
  9 10  1  0  0  0  0
  9 11  1  0  0  0  0
  9 16  1  0  0  0  0
 11 12  1  0  0  0  0
 11 13  1  0  0  0  0
 11 14  1  0  0  0  0
 14 15  1  0  0  0  0
 16 17  2  0  0  0  0
 16 18  1  0  0  0  0
 18 19  1  0  0  0  0
 18 20  1  0  0  0  0
 20 21  1  0  0  0  0
 20 22  1  0  0  0  0
 20 23  1  0  0  0  0
M  END
$$$$

  -OEChem-04042215573D

 23 22  0     1  0  0  0  0  0999 V2000
   -2.6797   -3.7118    0.6160 H   0  0  0  0  0  0  0  0  0  0  0  0
   -2.6671   -2.6917    0.2221 C   0  0  0  0  0  0  0  0  0  0  0  0
   -3.2419   -2.0487    0.8930 H   0  0  0  0  0  0  0  0  0  0  0  0
   -3.1348   -2.6887   -0.7654 H   0  0  0  0  0  0  0  0  0  0  0  0
   -1.2396   -2.1897    0.1200 C   0  0  0  0  0  0  0  0  0  0  0  0
   -0.3121   -2.9249    0.4160 O   0  0  0  0  0  0  0  0  0  0  0  0
   -0.9952   -0.9036   -0.3135 N   0  0  0  0  0  0  0  0  0  0  0  0
   -1.8033   -0.2956   -0.4408 H   0  0  0  0  0  0  0  0  0  0  0  0
    0.3234   -0.2506   -0.2918 C   0  0  1  0  0  0  0  0  0  0  0  0
    0.9945   -0.8068    0.3714 H   0  0  0  0  0  0  0  0  0  0  0  0
    0.9188   -0.2586   -1.7008 C   0  0  0  0  0  0  0  0  0  0  0  0
    0.7908   -1.2523   -2.1432 H   0  0  0  0  0  0  0  0  0  0  0  0
    0.3953    0.4644   -2.3357 H   0  0  0  0  0  0  0  0  0  0  0  0
    2.7147    0.1346   -1.6276 S   0  0  0  0  0  0  0  0  0  0  0  0
    3.0522    0.0260   -2.9317 H   0  0  0  0  0  0  0  0  0  0  0  0
    0.2266    1.1869    0.2515 C   0  0  0  0  0  0  0  0  0  0  0  0
   -0.7323    1.8856   -0.0605 O   0  0  0  0  0  0  0  0  0  0  0  0
    1.1414    1.6540    1.1760 N   0  0  0  0  0  0  0  0  0  0  0  0
    1.9615    1.0765    1.3431 H   0  0  0  0  0  0  0  0  0  0  0  0
    1.1130    3.0085    1.7127 C   0  0  0  0  0  0  0  0  0  0  0  0
    0.1442    3.2174    2.1788 H   0  0  0  0  0  0  0  0  0  0  0  0
    1.8919    3.1300    2.4717 H   0  0  0  0  0  0  0  0  0  0  0  0
    1.2860    3.7393    0.9158 H   0  0  0  0  0  0  0  0  0  0  0  0
  1  2  1  0  0  0  0
  2  3  1  0  0  0  0
  2  4  1  0  0  0  0
  2  5  1  0  0  0  0
  5  6  2  0  0  0  0
  5  7  1  0  0  0  0
  7  8  1  0  0  0  0
  7  9  1  0  0  0  0
  9 10  1  0  0  0  0
  9 11  1  0  0  0  0
  9 16  1  0  0  0  0
 11 12  1  0  0  0  0
 11 13  1  0  0  0  0
 11 14  1  0  0  0  0
 14 15  1  0  0  0  0
 16 17  2  0  0  0  0
 16 18  1  0  0  0  0
 18 19  1  0  0  0  0
 18 20  1  0  0  0  0
 20 21  1  0  0  0  0
 20 22  1  0  0  0  0
 20 23  1  0  0  0  0
M  END
$$$$

  -OEChem-04042215573D

 23 22  0     1  0  0  0  0  0999 V2000
   -2.6776   -3.7262    0.5957 H   0  0  0  0  0  0  0  0  0  0  0  0
   -2.6684   -2.7008    0.2157 C   0  0  0  0  0  0  0  0  0  0  0  0
   -3.2458   -2.0686    0.8946 H   0  0  0  0  0  0  0  0  0  0  0  0
   -3.1361   -2.6870   -0.7716 H   0  0  0  0  0  0  0  0  0  0  0  0
   -1.2426   -2.1922    0.1202 C   0  0  0  0  0  0  0  0  0  0  0  0
   -0.3135   -2.9231    0.4215 O   0  0  0  0  0  0  0  0  0  0  0  0
   -1.0054   -0.9032   -0.3095 N   0  0  0  0  0  0  0  0  0  0  0  0
   -1.8183   -0.3038   -0.4445 H   0  0  0  0  0  0  0  0  0  0  0  0
    0.3085   -0.2390   -0.2937 C   0  0  1  0  0  0  0  0  0  0  0  0
    0.9758   -0.7978    0.3712 H   0  0  0  0  0  0  0  0  0  0  0  0
    0.9134   -0.2454   -1.7013 C   0  0  0  0  0  0  0  0  0  0  0  0
    0.5838   -1.1431   -2.2350 H   0  0  0  0  0  0  0  0  0  0  0  0
    0.5734    0.6264   -2.2709 H   0  0  0  0  0  0  0  0  0  0  0  0
    2.7497   -0.2796   -1.5921 S   0  0  0  0  0  0  0  0  0  0  0  0
    3.0823   -0.3712   -2.8988 H   0  0  0  0  0  0  0  0  0  0  0  0
    0.2227    1.1973    0.2517 C   0  0  0  0  0  0  0  0  0  0  0  0
   -0.7262    1.9069   -0.0646 O   0  0  0  0  0  0  0  0  0  0  0  0
    1.1487    1.6601    1.1671 N   0  0  0  0  0  0  0  0  0  0  0  0
    1.9500    1.0635    1.3575 H   0  0  0  0  0  0  0  0  0  0  0  0
    1.1268    3.0107    1.7142 C   0  0  0  0  0  0  0  0  0  0  0  0
    0.1727    3.2071    2.2146 H   0  0  0  0  0  0  0  0  0  0  0  0
    1.9308    3.1350    2.4461 H   0  0  0  0  0  0  0  0  0  0  0  0
    1.2657    3.7487    0.9173 H   0  0  0  0  0  0  0  0  0  0  0  0
  1  2  1  0  0  0  0
  2  3  1  0  0  0  0
  2  4  1  0  0  0  0
  2  5  1  0  0  0  0
  5  6  2  0  0  0  0
  5  7  1  0  0  0  0
  7  8  1  0  0  0  0
  7  9  1  0  0  0  0
  9 10  1  0  0  0  0
  9 11  1  0  0  0  0
  9 16  1  0  0  0  0
 11 12  1  0  0  0  0
 11 13  1  0  0  0  0
 11 14  1  0  0  0  0
 14 15  1  0  0  0  0
 16 17  2  0  0  0  0
 16 18  1  0  0  0  0
 18 19  1  0  0  0  0
 18 20  1  0  0  0  0
 20 21  1  0  0  0  0
 20 22  1  0  0  0  0
 20 23  1  0  0  0  0
M  END
$$$$

  -OEChem-04042215573D

 23 22  0     1  0  0  0  0  0999 V2000
   -2.6768   -3.7302    0.5786 H   0  0  0  0  0  0  0  0  0  0  0  0
   -2.6656   -2.7020    0.2062 C   0  0  0  0  0  0  0  0  0  0  0  0
   -3.2564   -2.0770    0.8802 H   0  0  0  0  0  0  0  0  0  0  0  0
   -3.1172   -2.6829   -0.7885 H   0  0  0  0  0  0  0  0  0  0  0  0
   -1.2407   -2.1865    0.1370 C   0  0  0  0  0  0  0  0  0  0  0  0
   -0.3157   -2.9085    0.4695 O   0  0  0  0  0  0  0  0  0  0  0  0
   -1.0025   -0.8988   -0.2967 N   0  0  0  0  0  0  0  0  0  0  0  0
   -1.8155   -0.3073   -0.4613 H   0  0  0  0  0  0  0  0  0  0  0  0
    0.3118   -0.2338   -0.2906 C   0  0  1  0  0  0  0  0  0  0  0  0
    0.9810   -0.7877    0.3766 H   0  0  0  0  0  0  0  0  0  0  0  0
    0.9129   -0.2419   -1.7048 C   0  0  0  0  0  0  0  0  0  0  0  0
    0.3841   -0.9733   -2.3249 H   0  0  0  0  0  0  0  0  0  0  0  0
    0.7988    0.7376   -2.1821 H   0  0  0  0  0  0  0  0  0  0  0  0
    2.6879   -0.7201   -1.6372 S   0  0  0  0  0  0  0  0  0  0  0  0
    2.9890   -0.7786   -2.9531 H   0  0  0  0  0  0  0  0  0  0  0  0
    0.2263    1.2033    0.2523 C   0  0  0  0  0  0  0  0  0  0  0  0
   -0.7148    1.9182   -0.0744 O   0  0  0  0  0  0  0  0  0  0  0  0
    1.1569    1.6687    1.1616 N   0  0  0  0  0  0  0  0  0  0  0  0
    1.9336    1.0536    1.3911 H   0  0  0  0  0  0  0  0  0  0  0  0
    1.1264    3.0130    1.7243 C   0  0  0  0  0  0  0  0  0  0  0  0
    0.1787    3.1905    2.2437 H   0  0  0  0  0  0  0  0  0  0  0  0
    1.9419    3.1407    2.4428 H   0  0  0  0  0  0  0  0  0  0  0  0
    1.2407    3.7619    0.9336 H   0  0  0  0  0  0  0  0  0  0  0  0
  1  2  1  0  0  0  0
  2  3  1  0  0  0  0
  2  4  1  0  0  0  0
  2  5  1  0  0  0  0
  5  6  2  0  0  0  0
  5  7  1  0  0  0  0
  7  8  1  0  0  0  0
  7  9  1  0  0  0  0
  9 10  1  0  0  0  0
  9 11  1  0  0  0  0
  9 16  1  0  0  0  0
 11 12  1  0  0  0  0
 11 13  1  0  0  0  0
 11 14  1  0  0  0  0
 14 15  1  0  0  0  0
 16 17  2  0  0  0  0
 16 18  1  0  0  0  0
 18 19  1  0  0  0  0
 18 20  1  0  0  0  0
 20 21  1  0  0  0  0
 20 22  1  0  0  0  0
 20 23  1  0  0  0  0
M  END
$$$$

  -OEChem-04042215573D

 23 22  0     1  0  0  0  0  0999 V2000
   -2.6779   -3.7257    0.5711 H   0  0  0  0  0  0  0  0  0  0  0  0
   -2.6620   -2.6979    0.1976 C   0  0  0  0  0  0  0  0  0  0  0  0
   -3.2698   -2.0737    0.8570 H   0  0  0  0  0  0  0  0  0  0  0  0
   -3.0910   -2.6823   -0.8071 H   0  0  0  0  0  0  0  0  0  0  0  0
   -1.2373   -2.1783    0.1603 C   0  0  0  0  0  0  0  0  0  0  0  0
   -0.3219   -2.8900    0.5381 O   0  0  0  0  0  0  0  0  0  0  0  0
   -0.9907   -0.8954   -0.2831 N   0  0  0  0  0  0  0  0  0  0  0  0
   -1.7986   -0.3078   -0.4821 H   0  0  0  0  0  0  0  0  0  0  0  0
    0.3284   -0.2400   -0.2829 C   0  0  1  0  0  0  0  0  0  0  0  0
    1.0054   -0.7859    0.3829 H   0  0  0  0  0  0  0  0  0  0  0  0
    0.9139   -0.2437   -1.7068 C   0  0  0  0  0  0  0  0  0  0  0  0
    0.2164   -0.7297   -2.3967 H   0  0  0  0  0  0  0  0  0  0  0  0
    1.0656    0.7801   -2.0660 H   0  0  0  0  0  0  0  0  0  0  0  0
    2.5146   -1.1492   -1.7406 S   0  0  0  0  0  0  0  0  0  0  0  0
    2.7915   -1.1368   -3.0630 H   0  0  0  0  0  0  0  0  0  0  0  0
    0.2364    1.2000    0.2525 C   0  0  0  0  0  0  0  0  0  0  0  0
   -0.6905    1.9205   -0.1010 O   0  0  0  0  0  0  0  0  0  0  0  0
    1.1626    1.6730    1.1625 N   0  0  0  0  0  0  0  0  0  0  0  0
    1.9087    1.0416    1.4432 H   0  0  0  0  0  0  0  0  0  0  0  0
    1.1163    3.0143    1.7314 C   0  0  0  0  0  0  0  0  0  0  0  0
    0.1758    3.1696    2.2707 H   0  0  0  0  0  0  0  0  0  0  0  0
    1.9439    3.1572    2.4330 H   0  0  0  0  0  0  0  0  0  0  0  0
    1.1989    3.7685    0.9418 H   0  0  0  0  0  0  0  0  0  0  0  0
  1  2  1  0  0  0  0
  2  3  1  0  0  0  0
  2  4  1  0  0  0  0
  2  5  1  0  0  0  0
  5  6  2  0  0  0  0
  5  7  1  0  0  0  0
  7  8  1  0  0  0  0
  7  9  1  0  0  0  0
  9 10  1  0  0  0  0
  9 11  1  0  0  0  0
  9 16  1  0  0  0  0
 11 12  1  0  0  0  0
 11 13  1  0  0  0  0
 11 14  1  0  0  0  0
 14 15  1  0  0  0  0
 16 17  2  0  0  0  0
 16 18  1  0  0  0  0
 18 19  1  0  0  0  0
 18 20  1  0  0  0  0
 20 21  1  0  0  0  0
 20 22  1  0  0  0  0
 20 23  1  0  0  0  0
M  END
$$$$

  -OEChem-04042215573D

 23 22  0     1  0  0  0  0  0999 V2000
   -2.6811   -3.7244    0.5688 H   0  0  0  0  0  0  0  0  0  0  0  0
   -2.6576   -2.7004    0.1857 C   0  0  0  0  0  0  0  0  0  0  0  0
   -3.2903   -2.0729    0.8179 H   0  0  0  0  0  0  0  0  0  0  0  0
   -3.0527   -2.6968   -0.8329 H   0  0  0  0  0  0  0  0  0  0  0  0
   -1.2350   -2.1740    0.1910 C   0  0  0  0  0  0  0  0  0  0  0  0
   -0.3331   -2.8701    0.6266 O   0  0  0  0  0  0  0  0  0  0  0  0
   -0.9796   -0.8969   -0.2640 N   0  0  0  0  0  0  0  0  0  0  0  0
   -1.7808   -0.3183   -0.5094 H   0  0  0  0  0  0  0  0  0  0  0  0
    0.3443   -0.2524   -0.2691 C   0  0  1  0  0  0  0  0  0  0  0  0
    1.0343   -0.7919    0.3882 H   0  0  0  0  0  0  0  0  0  0  0  0
    0.9064   -0.2426   -1.7023 C   0  0  0  0  0  0  0  0  0  0  0  0
    0.1054   -0.4314   -2.4242 H   0  0  0  0  0  0  0  0  0  0  0  0
    1.3318    0.7392   -1.9376 H   0  0  0  0  0  0  0  0  0  0  0  0
    2.2275   -1.5086   -1.8860 S   0  0  0  0  0  0  0  0  0  0  0  0
    2.5168   -1.3975   -3.2008 H   0  0  0  0  0  0  0  0  0  0  0  0
    0.2447    1.1911    0.2570 C   0  0  0  0  0  0  0  0  0  0  0  0
   -0.6653    1.9173   -0.1270 O   0  0  0  0  0  0  0  0  0  0  0  0
    1.1656    1.6720    1.1684 N   0  0  0  0  0  0  0  0  0  0  0  0
    1.8835    1.0292    1.4931 H   0  0  0  0  0  0  0  0  0  0  0  0
    1.1141    3.0172    1.7277 C   0  0  0  0  0  0  0  0  0  0  0  0
    0.1731    3.1731    2.2658 H   0  0  0  0  0  0  0  0  0  0  0  0
    1.9417    3.1670    2.4280 H   0  0  0  0  0  0  0  0  0  0  0  0
    1.1943    3.7667    0.9332 H   0  0  0  0  0  0  0  0  0  0  0  0
  1  2  1  0  0  0  0
  2  3  1  0  0  0  0
  2  4  1  0  0  0  0
  2  5  1  0  0  0  0
  5  6  2  0  0  0  0
  5  7  1  0  0  0  0
  7  8  1  0  0  0  0
  7  9  1  0  0  0  0
  9 10  1  0  0  0  0
  9 11  1  0  0  0  0
  9 16  1  0  0  0  0
 11 12  1  0  0  0  0
 11 13  1  0  0  0  0
 11 14  1  0  0  0  0
 14 15  1  0  0  0  0
 16 17  2  0  0  0  0
 16 18  1  0  0  0  0
 18 19  1  0  0  0  0
 18 20  1  0  0  0  0
 20 21  1  0  0  0  0
 20 22  1  0  0  0  0
 20 23  1  0  0  0  0
M  END
$$$$

  -OEChem-04042215573D

 23 22  0     1  0  0  0  0  0999 V2000
   -2.6762   -3.7360    0.5521 H   0  0  0  0  0  0  0  0  0  0  0  0
   -2.6505   -2.7133    0.1655 C   0  0  0  0  0  0  0  0  0  0  0  0
   -3.3166   -2.0914    0.7684 H   0  0  0  0  0  0  0  0  0  0  0  0
   -3.0030   -2.7194   -0.8686 H   0  0  0  0  0  0  0  0  0  0  0  0
   -1.2362   -2.1686    0.2265 C   0  0  0  0  0  0  0  0  0  0  0  0
   -0.3501   -2.8391    0.7300 O   0  0  0  0  0  0  0  0  0  0  0  0
   -0.9758   -0.8968   -0.2400 N   0  0  0  0  0  0  0  0  0  0  0  0
   -1.7681   -0.3382   -0.5506 H   0  0  0  0  0  0  0  0  0  0  0  0
    0.3511   -0.2594   -0.2520 C   0  0  1  0  0  0  0  0  0  0  0  0
    1.0520   -0.7992    0.3937 H   0  0  0  0  0  0  0  0  0  0  0  0
    0.8902   -0.2391   -1.6916 C   0  0  0  0  0  0  0  0  0  0  0  0
    0.0640   -0.1352   -2.4026 H   0  0  0  0  0  0  0  0  0  0  0  0
    1.5522    0.6227   -1.8293 H   0  0  0  0  0  0  0  0  0  0  0  0
    1.8539   -1.7639   -2.0469 S   0  0  0  0  0  0  0  0  0  0  0  0
    2.1819   -1.5716   -3.3430 H   0  0  0  0  0  0  0  0  0  0  0  0
    0.2541    1.1880    0.2630 C   0  0  0  0  0  0  0  0  0  0  0  0
   -0.6394    1.9215   -0.1451 O   0  0  0  0  0  0  0  0  0  0  0  0
    1.1760    1.6734    1.1711 N   0  0  0  0  0  0  0  0  0  0  0  0
    1.8679    1.0209    1.5303 H   0  0  0  0  0  0  0  0  0  0  0  0
    1.1249    3.0227    1.7202 C   0  0  0  0  0  0  0  0  0  0  0  0
    0.1833    3.1838    2.2556 H   0  0  0  0  0  0  0  0  0  0  0  0
    1.9517    3.1774    2.4202 H   0  0  0  0  0  0  0  0  0  0  0  0
    1.2071    3.7658    0.9200 H   0  0  0  0  0  0  0  0  0  0  0  0
  1  2  1  0  0  0  0
  2  3  1  0  0  0  0
  2  4  1  0  0  0  0
  2  5  1  0  0  0  0
  5  6  2  0  0  0  0
  5  7  1  0  0  0  0
  7  8  1  0  0  0  0
  7  9  1  0  0  0  0
  9 10  1  0  0  0  0
  9 11  1  0  0  0  0
  9 16  1  0  0  0  0
 11 12  1  0  0  0  0
 11 13  1  0  0  0  0
 11 14  1  0  0  0  0
 14 15  1  0  0  0  0
 16 17  2  0  0  0  0
 16 18  1  0  0  0  0
 18 19  1  0  0  0  0
 18 20  1  0  0  0  0
 20 21  1  0  0  0  0
 20 22  1  0  0  0  0
 20 23  1  0  0  0  0
M  END
$$$$

  -OEChem-04042215573D

 23 22  0     1  0  0  0  0  0999 V2000
   -2.6652   -3.7564    0.5311 H   0  0  0  0  0  0  0  0  0  0  0  0
   -2.6438   -2.7335    0.1449 C   0  0  0  0  0  0  0  0  0  0  0  0
   -3.3416   -2.1232    0.7233 H   0  0  0  0  0  0  0  0  0  0  0  0
   -2.9595   -2.7463   -0.9010 H   0  0  0  0  0  0  0  0  0  0  0  0
   -1.2423   -2.1636    0.2554 C   0  0  0  0  0  0  0  0  0  0  0  0
   -0.3685   -2.8077    0.8131 O   0  0  0  0  0  0  0  0  0  0  0  0
   -0.9833   -0.8937   -0.2180 N   0  0  0  0  0  0  0  0  0  0  0  0
   -1.7656   -0.3635   -0.5950 H   0  0  0  0  0  0  0  0  0  0  0  0
    0.3442   -0.2580   -0.2377 C   0  0  1  0  0  0  0  0  0  0  0  0
    1.0495   -0.8032    0.3981 H   0  0  0  0  0  0  0  0  0  0  0  0
    0.8719   -0.2357   -1.6802 C   0  0  0  0  0  0  0  0  0  0  0  0
    0.0898    0.1256   -2.3563 H   0  0  0  0  0  0  0  0  0  0  0  0
    1.7174    0.4566   -1.7514 H   0  0  0  0  0  0  0  0  0  0  0  0
    1.4388   -1.9043   -2.2070 S   0  0  0  0  0  0  0  0  0  0  0  0
    1.8349   -1.6595   -3.4748 H   0  0  0  0  0  0  0  0  0  0  0  0
    0.2592    1.1926    0.2706 C   0  0  0  0  0  0  0  0  0  0  0  0
   -0.6214    1.9353   -0.1485 O   0  0  0  0  0  0  0  0  0  0  0  0
    1.1889    1.6774    1.1715 N   0  0  0  0  0  0  0  0  0  0  0  0
    1.8648    1.0177    1.5475 H   0  0  0  0  0  0  0  0  0  0  0  0
    1.1463    3.0302    1.7137 C   0  0  0  0  0  0  0  0  0  0  0  0
    0.2059    3.2002    2.2488 H   0  0  0  0  0  0  0  0  0  0  0  0
    1.9743    3.1836    2.4125 H   0  0  0  0  0  0  0  0  0  0  0  0
    1.2324    3.7685    0.9094 H   0  0  0  0  0  0  0  0  0  0  0  0
  1  2  1  0  0  0  0
  2  3  1  0  0  0  0
  2  4  1  0  0  0  0
  2  5  1  0  0  0  0
  5  6  2  0  0  0  0
  5  7  1  0  0  0  0
  7  8  1  0  0  0  0
  7  9  1  0  0  0  0
  9 10  1  0  0  0  0
  9 11  1  0  0  0  0
  9 16  1  0  0  0  0
 11 12  1  0  0  0  0
 11 13  1  0  0  0  0
 11 14  1  0  0  0  0
 14 15  1  0  0  0  0
 16 17  2  0  0  0  0
 16 18  1  0  0  0  0
 18 19  1  0  0  0  0
 18 20  1  0  0  0  0
 20 21  1  0  0  0  0
 20 22  1  0  0  0  0
 20 23  1  0  0  0  0
M  END
$$$$

  -OEChem-04042215573D

 23 22  0     1  0  0  0  0  0999 V2000
   -2.6536   -3.7776    0.5151 H   0  0  0  0  0  0  0  0  0  0  0  0
   -2.6385   -2.7564    0.1242 C   0  0  0  0  0  0  0  0  0  0  0  0
   -3.3691   -2.1572    0.6727 H   0  0  0  0  0  0  0  0  0  0  0  0
   -2.9149   -2.7809   -0.9327 H   0  0  0  0  0  0  0  0  0  0  0  0
   -1.2539   -2.1576    0.2818 C   0  0  0  0  0  0  0  0  0  0  0  0
   -0.3858   -2.7803    0.8732 O   0  0  0  0  0  0  0  0  0  0  0  0
   -1.0035   -0.8870   -0.1950 N   0  0  0  0  0  0  0  0  0  0  0  0
   -1.7765   -0.3896   -0.6305 H   0  0  0  0  0  0  0  0  0  0  0  0
    0.3226   -0.2484   -0.2271 C   0  0  1  0  0  0  0  0  0  0  0  0
    1.0264   -0.7993    0.4049 H   0  0  0  0  0  0  0  0  0  0  0  0
    0.8554   -0.2328   -1.6690 C   0  0  0  0  0  0  0  0  0  0  0  0
    0.1764    0.3484   -2.3022 H   0  0  0  0  0  0  0  0  0  0  0  0
    1.8331    0.2597   -1.6902 H   0  0  0  0  0  0  0  0  0  0  0  0
    1.0231   -1.9305   -2.3612 S   0  0  0  0  0  0  0  0  0  0  0  0
    1.5000   -1.6658   -3.5969 H   0  0  0  0  0  0  0  0  0  0  0  0
    0.2557    1.2041    0.2789 C   0  0  0  0  0  0  0  0  0  0  0  0
   -0.6176    1.9573   -0.1364 O   0  0  0  0  0  0  0  0  0  0  0  0
    1.2014    1.6820    1.1670 N   0  0  0  0  0  0  0  0  0  0  0  0
    1.8673    1.0142    1.5466 H   0  0  0  0  0  0  0  0  0  0  0  0
    1.1755    3.0358    1.7072 C   0  0  0  0  0  0  0  0  0  0  0  0
    0.2488    3.2088    2.2645 H   0  0  0  0  0  0  0  0  0  0  0  0
    2.0208    3.1889    2.3851 H   0  0  0  0  0  0  0  0  0  0  0  0
    1.2438    3.7723    0.8994 H   0  0  0  0  0  0  0  0  0  0  0  0
  1  2  1  0  0  0  0
  2  3  1  0  0  0  0
  2  4  1  0  0  0  0
  2  5  1  0  0  0  0
  5  6  2  0  0  0  0
  5  7  1  0  0  0  0
  7  8  1  0  0  0  0
  7  9  1  0  0  0  0
  9 10  1  0  0  0  0
  9 11  1  0  0  0  0
  9 16  1  0  0  0  0
 11 12  1  0  0  0  0
 11 13  1  0  0  0  0
 11 14  1  0  0  0  0
 14 15  1  0  0  0  0
 16 17  2  0  0  0  0
 16 18  1  0  0  0  0
 18 19  1  0  0  0  0
 18 20  1  0  0  0  0
 20 21  1  0  0  0  0
 20 22  1  0  0  0  0
 20 23  1  0  0  0  0
M  END
$$$$

  -OEChem-04042215573D

 23 22  0     1  0  0  0  0  0999 V2000
   -2.6514   -3.7764    0.5402 H   0  0  0  0  0  0  0  0  0  0  0  0
   -2.6370   -2.7664    0.1212 C   0  0  0  0  0  0  0  0  0  0  0  0
   -3.3885   -2.1609    0.6333 H   0  0  0  0  0  0  0  0  0  0  0  0
   -2.8844   -2.8235   -0.9416 H   0  0  0  0  0  0  0  0  0  0  0  0
   -1.2635   -2.1476    0.2979 C   0  0  0  0  0  0  0  0  0  0  0  0
   -0.3930   -2.7593    0.8977 O   0  0  0  0  0  0  0  0  0  0  0  0
   -1.0214   -0.8761   -0.1808 N   0  0  0  0  0  0  0  0  0  0  0  0
   -1.7869   -0.4027   -0.6539 H   0  0  0  0  0  0  0  0  0  0  0  0
    0.3046   -0.2379   -0.2281 C   0  0  1  0  0  0  0  0  0  0  0  0
    1.0044   -0.7929    0.4045 H   0  0  0  0  0  0  0  0  0  0  0  0
    0.8495   -0.2362   -1.6696 C   0  0  0  0  0  0  0  0  0  0  0  0
    0.3258    0.5307   -2.2511 H   0  0  0  0  0  0  0  0  0  0  0  0
    1.9118    0.0274   -1.6537 H   0  0  0  0  0  0  0  0  0  0  0  0
    0.6329   -1.8536   -2.5277 S   0  0  0  0  0  0  0  0  0  0  0  0
    1.1892   -1.5889   -3.7298 H   0  0  0  0  0  0  0  0  0  0  0  0
    0.2524    1.2149    0.2794 C   0  0  0  0  0  0  0  0  0  0  0  0
   -0.6203    1.9750   -0.1243 O   0  0  0  0  0  0  0  0  0  0  0  0
    1.2133    1.6861    1.1547 N   0  0  0  0  0  0  0  0  0  0  0  0
    1.8676    1.0089    1.5375 H   0  0  0  0  0  0  0  0  0  0  0  0
    1.1909    3.0340    1.7104 C   0  0  0  0  0  0  0  0  0  0  0  0
    0.2776    3.1930    2.2935 H   0  0  0  0  0  0  0  0  0  0  0  0
    2.0524    3.1868    2.3676 H   0  0  0  0  0  0  0  0  0  0  0  0
    1.2317    3.7802    0.9099 H   0  0  0  0  0  0  0  0  0  0  0  0
  1  2  1  0  0  0  0
  2  3  1  0  0  0  0
  2  4  1  0  0  0  0
  2  5  1  0  0  0  0
  5  6  2  0  0  0  0
  5  7  1  0  0  0  0
  7  8  1  0  0  0  0
  7  9  1  0  0  0  0
  9 10  1  0  0  0  0
  9 11  1  0  0  0  0
  9 16  1  0  0  0  0
 11 12  1  0  0  0  0
 11 13  1  0  0  0  0
 11 14  1  0  0  0  0
 14 15  1  0  0  0  0
 16 17  2  0  0  0  0
 16 18  1  0  0  0  0
 18 19  1  0  0  0  0
 18 20  1  0  0  0  0
 20 21  1  0  0  0  0
 20 22  1  0  0  0  0
 20 23  1  0  0  0  0
M  END
$$$$

  -OEChem-04042215573D

 23 22  0     1  0  0  0  0  0999 V2000
   -2.6418   -3.7908    0.5295 H   0  0  0  0  0  0  0  0  0  0  0  0
   -2.6386   -2.7757    0.1229 C   0  0  0  0  0  0  0  0  0  0  0  0
   -3.3958   -2.1841    0.6429 H   0  0  0  0  0  0  0  0  0  0  0  0
   -2.8867   -2.8218   -0.9403 H   0  0  0  0  0  0  0  0  0  0  0  0
   -1.2717   -2.1447    0.3056 C   0  0  0  0  0  0  0  0  0  0  0  0
   -0.3938   -2.7537    0.8979 O   0  0  0  0  0  0  0  0  0  0  0  0
   -1.0403   -0.8697   -0.1692 N   0  0  0  0  0  0  0  0  0  0  0  0
   -1.8007   -0.4168   -0.6700 H   0  0  0  0  0  0  0  0  0  0  0  0
    0.2842   -0.2287   -0.2287 C   0  0  1  0  0  0  0  0  0  0  0  0
    0.9810   -0.7843    0.4065 H   0  0  0  0  0  0  0  0  0  0  0  0
    0.8453   -0.2370   -1.6690 C   0  0  0  0  0  0  0  0  0  0  0  0
    0.5255    0.6753   -2.1850 H   0  0  0  0  0  0  0  0  0  0  0  0
    1.9390   -0.2243   -1.6267 H   0  0  0  0  0  0  0  0  0  0  0  0
    0.2861   -1.6722   -2.6868 S   0  0  0  0  0  0  0  0  0  0  0  0
    0.9194   -1.4259   -3.8542 H   0  0  0  0  0  0  0  0  0  0  0  0
    0.2398    1.2225    0.2869 C   0  0  0  0  0  0  0  0  0  0  0  0
   -0.6329    1.9886   -0.1046 O   0  0  0  0  0  0  0  0  0  0  0  0
    1.2129    1.6874    1.1523 N   0  0  0  0  0  0  0  0  0  0  0  0
    1.8671    1.0062    1.5279 H   0  0  0  0  0  0  0  0  0  0  0  0
    1.2056    3.0355    1.7077 C   0  0  0  0  0  0  0  0  0  0  0  0
    0.3026    3.1991    2.3055 H   0  0  0  0  0  0  0  0  0  0  0  0
    2.0785    3.1846    2.3505 H   0  0  0  0  0  0  0  0  0  0  0  0
    1.2377    3.7809    0.9060 H   0  0  0  0  0  0  0  0  0  0  0  0
  1  2  1  0  0  0  0
  2  3  1  0  0  0  0
  2  4  1  0  0  0  0
  2  5  1  0  0  0  0
  5  6  2  0  0  0  0
  5  7  1  0  0  0  0
  7  8  1  0  0  0  0
  7  9  1  0  0  0  0
  9 10  1  0  0  0  0
  9 11  1  0  0  0  0
  9 16  1  0  0  0  0
 11 12  1  0  0  0  0
 11 13  1  0  0  0  0
 11 14  1  0  0  0  0
 14 15  1  0  0  0  0
 16 17  2  0  0  0  0
 16 18  1  0  0  0  0
 18 19  1  0  0  0  0
 18 20  1  0  0  0  0
 20 21  1  0  0  0  0
 20 22  1  0  0  0  0
 20 23  1  0  0  0  0
M  END
$$$$

  -OEChem-04042215573D

 23 22  0     1  0  0  0  0  0999 V2000
   -2.6380   -3.7985    0.5154 H   0  0  0  0  0  0  0  0  0  0  0  0
   -2.6430   -2.7724    0.1375 C   0  0  0  0  0  0  0  0  0  0  0  0
   -3.3839   -2.1936    0.6943 H   0  0  0  0  0  0  0  0  0  0  0  0
   -2.9201   -2.7878   -0.9195 H   0  0  0  0  0  0  0  0  0  0  0  0
   -1.2704   -2.1481    0.3008 C   0  0  0  0  0  0  0  0  0  0  0  0
   -0.3804   -2.7680    0.8633 O   0  0  0  0  0  0  0  0  0  0  0  0
   -1.0439   -0.8702   -0.1667 N   0  0  0  0  0  0  0  0  0  0  0  0
   -1.8056   -0.4192   -0.6676 H   0  0  0  0  0  0  0  0  0  0  0  0
    0.2780   -0.2258   -0.2347 C   0  0  1  0  0  0  0  0  0  0  0  0
    0.9757   -0.7783    0.4023 H   0  0  0  0  0  0  0  0  0  0  0  0
    0.8461   -0.2350   -1.6756 C   0  0  0  0  0  0  0  0  0  0  0  0
    0.7683    0.7708   -2.1031 H   0  0  0  0  0  0  0  0  0  0  0  0
    1.9098   -0.4897   -1.6342 H   0  0  0  0  0  0  0  0  0  0  0  0
   -0.0094   -1.3926   -2.8343 S   0  0  0  0  0  0  0  0  0  0  0  0
    0.6998   -1.1959   -3.9672 H   0  0  0  0  0  0  0  0  0  0  0  0
    0.2301    1.2219    0.2917 C   0  0  0  0  0  0  0  0  0  0  0  0
   -0.6494    1.9865   -0.0870 O   0  0  0  0  0  0  0  0  0  0  0  0
    1.2077    1.6871    1.1522 N   0  0  0  0  0  0  0  0  0  0  0  0
    1.8758    1.0108    1.5115 H   0  0  0  0  0  0  0  0  0  0  0  0
    1.2025    3.0350    1.7083 C   0  0  0  0  0  0  0  0  0  0  0  0
    0.2878    3.2089    2.2849 H   0  0  0  0  0  0  0  0  0  0  0  0
    2.0612    3.1739    2.3721 H   0  0  0  0  0  0  0  0  0  0  0  0
    1.2612    3.7802    0.9080 H   0  0  0  0  0  0  0  0  0  0  0  0
  1  2  1  0  0  0  0
  2  3  1  0  0  0  0
  2  4  1  0  0  0  0
  2  5  1  0  0  0  0
  5  6  2  0  0  0  0
  5  7  1  0  0  0  0
  7  8  1  0  0  0  0
  7  9  1  0  0  0  0
  9 10  1  0  0  0  0
  9 11  1  0  0  0  0
  9 16  1  0  0  0  0
 11 12  1  0  0  0  0
 11 13  1  0  0  0  0
 11 14  1  0  0  0  0
 14 15  1  0  0  0  0
 16 17  2  0  0  0  0
 16 18  1  0  0  0  0
 18 19  1  0  0  0  0
 18 20  1  0  0  0  0
 20 21  1  0  0  0  0
 20 22  1  0  0  0  0
 20 23  1  0  0  0  0
M  END
$$$$

  -OEChem-04042215573D

 23 22  0     1  0  0  0  0  0999 V2000
   -2.6312   -3.7971    0.5104 H   0  0  0  0  0  0  0  0  0  0  0  0
   -2.6378   -2.7693    0.1371 C   0  0  0  0  0  0  0  0  0  0  0  0
   -3.3798   -2.1946    0.6964 H   0  0  0  0  0  0  0  0  0  0  0  0
   -2.9152   -2.7802   -0.9198 H   0  0  0  0  0  0  0  0  0  0  0  0
   -1.2664   -2.1434    0.3028 C   0  0  0  0  0  0  0  0  0  0  0  0
   -0.3726   -2.7662    0.8558 O   0  0  0  0  0  0  0  0  0  0  0  0
   -1.0390   -0.8666   -0.1650 N   0  0  0  0  0  0  0  0  0  0  0  0
   -1.7933   -0.4231   -0.6845 H   0  0  0  0  0  0  0  0  0  0  0  0
    0.2840   -0.2263   -0.2343 C   0  0  1  0  0  0  0  0  0  0  0  0
    0.9859   -0.7717    0.4041 H   0  0  0  0  0  0  0  0  0  0  0  0
    0.8462   -0.2353   -1.6786 C   0  0  0  0  0  0  0  0  0  0  0  0
    1.0484    0.7909   -2.0049 H   0  0  0  0  0  0  0  0  0  0  0  0
    1.8025   -0.7678   -1.6736 H   0  0  0  0  0  0  0  0  0  0  0  0
   -0.2567   -1.0293   -2.9325 S   0  0  0  0  0  0  0  0  0  0  0  0
    0.4822   -0.8875   -4.0547 H   0  0  0  0  0  0  0  0  0  0  0  0
    0.2289    1.2210    0.2941 C   0  0  0  0  0  0  0  0  0  0  0  0
   -0.6500    1.9855   -0.0855 O   0  0  0  0  0  0  0  0  0  0  0  0
    1.2040    1.6876    1.1569 N   0  0  0  0  0  0  0  0  0  0  0  0
    1.8699    1.0115    1.5202 H   0  0  0  0  0  0  0  0  0  0  0  0
    1.1963    3.0359    1.7122 C   0  0  0  0  0  0  0  0  0  0  0  0
    0.2851    3.2050    2.2957 H   0  0  0  0  0  0  0  0  0  0  0  0
    2.0598    3.1796    2.3688 H   0  0  0  0  0  0  0  0  0  0  0  0
    1.2447    3.7813    0.9112 H   0  0  0  0  0  0  0  0  0  0  0  0
  1  2  1  0  0  0  0
  2  3  1  0  0  0  0
  2  4  1  0  0  0  0
  2  5  1  0  0  0  0
  5  6  2  0  0  0  0
  5  7  1  0  0  0  0
  7  8  1  0  0  0  0
  7  9  1  0  0  0  0
  9 10  1  0  0  0  0
  9 11  1  0  0  0  0
  9 16  1  0  0  0  0
 11 12  1  0  0  0  0
 11 13  1  0  0  0  0
 11 14  1  0  0  0  0
 14 15  1  0  0  0  0
 16 17  2  0  0  0  0
 16 18  1  0  0  0  0
 18 19  1  0  0  0  0
 18 20  1  0  0  0  0
 20 21  1  0  0  0  0
 20 22  1  0  0  0  0
 20 23  1  0  0  0  0
M  END
$$$$

  -OEChem-04042215573D

 23 22  0     1  0  0  0  0  0999 V2000
   -2.6349   -3.7805    0.5274 H   0  0  0  0  0  0  0  0  0  0  0  0
   -2.6357   -2.7561    0.1446 C   0  0  0  0  0  0  0  0  0  0  0  0
   -3.3640   -2.1686    0.7087 H   0  0  0  0  0  0  0  0  0  0  0  0
   -2.9278   -2.7736   -0.9083 H   0  0  0  0  0  0  0  0  0  0  0  0
   -1.2562   -2.1427    0.2871 C   0  0  0  0  0  0  0  0  0  0  0  0
   -0.3566   -2.7761    0.8181 O   0  0  0  0  0  0  0  0  0  0  0  0
   -1.0237   -0.8674   -0.1806 N   0  0  0  0  0  0  0  0  0  0  0  0
   -1.7781   -0.4124   -0.6915 H   0  0  0  0  0  0  0  0  0  0  0  0
    0.2993   -0.2276   -0.2409 C   0  0  1  0  0  0  0  0  0  0  0  0
    1.0045   -0.7652    0.4006 H   0  0  0  0  0  0  0  0  0  0  0  0
    0.8557   -0.2366   -1.6847 C   0  0  0  0  0  0  0  0  0  0  0  0
    1.3266    0.7261   -1.9124 H   0  0  0  0  0  0  0  0  0  0  0  0
    1.6361   -1.0021   -1.7431 H   0  0  0  0  0  0  0  0  0  0  0  0
   -0.4045   -0.6144   -2.9839 S   0  0  0  0  0  0  0  0  0  0  0  0
    0.3499   -0.5504   -4.1027 H   0  0  0  0  0  0  0  0  0  0  0  0
    0.2340    1.2205    0.2855 C   0  0  0  0  0  0  0  0  0  0  0  0
   -0.6511    1.9802   -0.0888 O   0  0  0  0  0  0  0  0  0  0  0  0
    1.2011    1.6889    1.1567 N   0  0  0  0  0  0  0  0  0  0  0  0
    1.8701    1.0154    1.5189 H   0  0  0  0  0  0  0  0  0  0  0  0
    1.1784    3.0320    1.7240 C   0  0  0  0  0  0  0  0  0  0  0  0
    0.2643    3.1871    2.3070 H   0  0  0  0  0  0  0  0  0  0  0  0
    2.0388    3.1787    2.3842 H   0  0  0  0  0  0  0  0  0  0  0  0
    1.2216    3.7845    0.9294 H   0  0  0  0  0  0  0  0  0  0  0  0
  1  2  1  0  0  0  0
  2  3  1  0  0  0  0
  2  4  1  0  0  0  0
  2  5  1  0  0  0  0
  5  6  2  0  0  0  0
  5  7  1  0  0  0  0
  7  8  1  0  0  0  0
  7  9  1  0  0  0  0
  9 10  1  0  0  0  0
  9 11  1  0  0  0  0
  9 16  1  0  0  0  0
 11 12  1  0  0  0  0
 11 13  1  0  0  0  0
 11 14  1  0  0  0  0
 14 15  1  0  0  0  0
 16 17  2  0  0  0  0
 16 18  1  0  0  0  0
 18 19  1  0  0  0  0
 18 20  1  0  0  0  0
 20 21  1  0  0  0  0
 20 22  1  0  0  0  0
 20 23  1  0  0  0  0
M  END
$$$$

  -OEChem-04042215573D

 23 22  0     1  0  0  0  0  0999 V2000
   -2.6426   -3.7665    0.5193 H   0  0  0  0  0  0  0  0  0  0  0  0
   -2.6367   -2.7411    0.1393 C   0  0  0  0  0  0  0  0  0  0  0  0
   -3.3509   -2.1470    0.7145 H   0  0  0  0  0  0  0  0  0  0  0  0
   -2.9431   -2.7521   -0.9095 H   0  0  0  0  0  0  0  0  0  0  0  0
   -1.2481   -2.1442    0.2649 C   0  0  0  0  0  0  0  0  0  0  0  0
   -0.3443   -2.7932    0.7689 O   0  0  0  0  0  0  0  0  0  0  0  0
   -1.0076   -0.8698   -0.2000 N   0  0  0  0  0  0  0  0  0  0  0  0
   -1.7695   -0.3898   -0.6764 H   0  0  0  0  0  0  0  0  0  0  0  0
    0.3127   -0.2248   -0.2448 C   0  0  1  0  0  0  0  0  0  0  0  0
    1.0141   -0.7586    0.4041 H   0  0  0  0  0  0  0  0  0  0  0  0
    0.8706   -0.2476   -1.6824 C   0  0  0  0  0  0  0  0  0  0  0  0
    1.5618    0.5889   -1.8294 H   0  0  0  0  0  0  0  0  0  0  0  0
    1.4410   -1.1728   -1.8123 H   0  0  0  0  0  0  0  0  0  0  0  0
   -0.4415   -0.2027   -2.9824 S   0  0  0  0  0  0  0  0  0  0  0  0
    0.3064   -0.2173   -4.1071 H   0  0  0  0  0  0  0  0  0  0  0  0
    0.2416    1.2247    0.2774 C   0  0  0  0  0  0  0  0  0  0  0  0
   -0.6637    1.9726   -0.0714 O   0  0  0  0  0  0  0  0  0  0  0  0
    1.2003    1.6943    1.1575 N   0  0  0  0  0  0  0  0  0  0  0  0
    1.8851    1.0288    1.5040 H   0  0  0  0  0  0  0  0  0  0  0  0
    1.1651    3.0331    1.7344 C   0  0  0  0  0  0  0  0  0  0  0  0
    0.2566    3.1702    2.3302 H   0  0  0  0  0  0  0  0  0  0  0  0
    2.0321    3.1886    2.3836 H   0  0  0  0  0  0  0  0  0  0  0  0
    1.1863    3.7916    0.9446 H   0  0  0  0  0  0  0  0  0  0  0  0
  1  2  1  0  0  0  0
  2  3  1  0  0  0  0
  2  4  1  0  0  0  0
  2  5  1  0  0  0  0
  5  6  2  0  0  0  0
  5  7  1  0  0  0  0
  7  8  1  0  0  0  0
  7  9  1  0  0  0  0
  9 10  1  0  0  0  0
  9 11  1  0  0  0  0
  9 16  1  0  0  0  0
 11 12  1  0  0  0  0
 11 13  1  0  0  0  0
 11 14  1  0  0  0  0
 14 15  1  0  0  0  0
 16 17  2  0  0  0  0
 16 18  1  0  0  0  0
 18 19  1  0  0  0  0
 18 20  1  0  0  0  0
 20 21  1  0  0  0  0
 20 22  1  0  0  0  0
 20 23  1  0  0  0  0
M  END
$$$$

  -OEChem-04042215573D

 23 22  0     1  0  0  0  0  0999 V2000
   -2.6486   -3.7401    0.5347 H   0  0  0  0  0  0  0  0  0  0  0  0
   -2.6402   -2.7164    0.1506 C   0  0  0  0  0  0  0  0  0  0  0  0
   -3.3232   -2.1092    0.7496 H   0  0  0  0  0  0  0  0  0  0  0  0
   -2.9851   -2.7260   -0.8862 H   0  0  0  0  0  0  0  0  0  0  0  0
   -1.2385   -2.1419    0.2234 C   0  0  0  0  0  0  0  0  0  0  0  0
   -0.3249   -2.8106    0.6816 O   0  0  0  0  0  0  0  0  0  0  0  0
   -0.9962   -0.8659   -0.2357 N   0  0  0  0  0  0  0  0  0  0  0  0
   -1.7743   -0.3506   -0.6449 H   0  0  0  0  0  0  0  0  0  0  0  0
    0.3196   -0.2118   -0.2623 C   0  0  1  0  0  0  0  0  0  0  0  0
    1.0097   -0.7439    0.3998 H   0  0  0  0  0  0  0  0  0  0  0  0
    0.8935   -0.2668   -1.6876 C   0  0  0  0  0  0  0  0  0  0  0  0
    1.7568    0.4022   -1.7654 H   0  0  0  0  0  0  0  0  0  0  0  0
    1.2440   -1.2858   -1.8821 H   0  0  0  0  0  0  0  0  0  0  0  0
   -0.3525    0.1772   -2.9739 S   0  0  0  0  0  0  0  0  0  0  0  0
    0.3857    0.0736   -4.1001 H   0  0  0  0  0  0  0  0  0  0  0  0
    0.2485    1.2388    0.2580 C   0  0  0  0  0  0  0  0  0  0  0  0
   -0.6861    1.9711   -0.0437 O   0  0  0  0  0  0  0  0  0  0  0  0
    1.2023    1.7033    1.1462 N   0  0  0  0  0  0  0  0  0  0  0  0
    1.9019    1.0426    1.4717 H   0  0  0  0  0  0  0  0  0  0  0  0
    1.1443    3.0257    1.7581 C   0  0  0  0  0  0  0  0  0  0  0  0
    0.2444    3.1239    2.3745 H   0  0  0  0  0  0  0  0  0  0  0  0
    2.0200    3.1871    2.3941 H   0  0  0  0  0  0  0  0  0  0  0  0
    1.1301    3.8044    0.9880 H   0  0  0  0  0  0  0  0  0  0  0  0
  1  2  1  0  0  0  0
  2  3  1  0  0  0  0
  2  4  1  0  0  0  0
  2  5  1  0  0  0  0
  5  6  2  0  0  0  0
  5  7  1  0  0  0  0
  7  8  1  0  0  0  0
  7  9  1  0  0  0  0
  9 10  1  0  0  0  0
  9 11  1  0  0  0  0
  9 16  1  0  0  0  0
 11 12  1  0  0  0  0
 11 13  1  0  0  0  0
 11 14  1  0  0  0  0
 14 15  1  0  0  0  0
 16 17  2  0  0  0  0
 16 18  1  0  0  0  0
 18 19  1  0  0  0  0
 18 20  1  0  0  0  0
 20 21  1  0  0  0  0
 20 22  1  0  0  0  0
 20 23  1  0  0  0  0
M  END
$$$$

  -OEChem-04042215573D

 23 22  0     1  0  0  0  0  0999 V2000
   -2.6495   -3.7176    0.5401 H   0  0  0  0  0  0  0  0  0  0  0  0
   -2.6436   -2.6896    0.1670 C   0  0  0  0  0  0  0  0  0  0  0  0
   -3.2920   -2.0802    0.8011 H   0  0  0  0  0  0  0  0  0  0  0  0
   -3.0332   -2.6827   -0.8538 H   0  0  0  0  0  0  0  0  0  0  0  0
   -1.2320   -2.1350    0.1849 C   0  0  0  0  0  0  0  0  0  0  0  0
   -0.3070   -2.8244    0.5861 O   0  0  0  0  0  0  0  0  0  0  0  0
   -0.9927   -0.8559   -0.2677 N   0  0  0  0  0  0  0  0  0  0  0  0
   -1.7898   -0.3046   -0.5829 H   0  0  0  0  0  0  0  0  0  0  0  0
    0.3186   -0.1928   -0.2858 C   0  0  1  0  0  0  0  0  0  0  0  0
    0.9937   -0.7247    0.3917 H   0  0  0  0  0  0  0  0  0  0  0  0
    0.9171   -0.2860   -1.6964 C   0  0  0  0  0  0  0  0  0  0  0  0
    1.9055    0.1843   -1.7039 H   0  0  0  0  0  0  0  0  0  0  0  0
    1.0488   -1.3417   -1.9561 H   0  0  0  0  0  0  0  0  0  0  0  0
   -0.1469    0.5183   -2.9672 S   0  0  0  0  0  0  0  0  0  0  0  0
    0.5722    0.3002   -4.0895 H   0  0  0  0  0  0  0  0  0  0  0  0
    0.2486    1.2578    0.2374 C   0  0  0  0  0  0  0  0  0  0  0  0
   -0.7280    1.9616    0.0080 O   0  0  0  0  0  0  0  0  0  0  0  0
    1.2035    1.7172    1.1275 N   0  0  0  0  0  0  0  0  0  0  0  0
    1.9396    1.0730    1.4010 H   0  0  0  0  0  0  0  0  0  0  0  0
    1.1206    3.0141    1.7890 C   0  0  0  0  0  0  0  0  0  0  0  0
    0.2276    3.0657    2.4207 H   0  0  0  0  0  0  0  0  0  0  0  0
    2.0005    3.1746    2.4195 H   0  0  0  0  0  0  0  0  0  0  0  0
    1.0755    3.8199    1.0487 H   0  0  0  0  0  0  0  0  0  0  0  0
  1  2  1  0  0  0  0
  2  3  1  0  0  0  0
  2  4  1  0  0  0  0
  2  5  1  0  0  0  0
  5  6  2  0  0  0  0
  5  7  1  0  0  0  0
  7  8  1  0  0  0  0
  7  9  1  0  0  0  0
  9 10  1  0  0  0  0
  9 11  1  0  0  0  0
  9 16  1  0  0  0  0
 11 12  1  0  0  0  0
 11 13  1  0  0  0  0
 11 14  1  0  0  0  0
 14 15  1  0  0  0  0
 16 17  2  0  0  0  0
 16 18  1  0  0  0  0
 18 19  1  0  0  0  0
 18 20  1  0  0  0  0
 20 21  1  0  0  0  0
 20 22  1  0  0  0  0
 20 23  1  0  0  0  0
M  END
$$$$

  -OEChem-04042215573D

 23 22  0     1  0  0  0  0  0999 V2000
   -2.6506   -3.6941    0.5617 H   0  0  0  0  0  0  0  0  0  0  0  0
   -2.6466   -2.6640    0.1948 C   0  0  0  0  0  0  0  0  0  0  0  0
   -3.2525   -2.0487    0.8643 H   0  0  0  0  0  0  0  0  0  0  0  0
   -3.0868   -2.6443   -0.8051 H   0  0  0  0  0  0  0  0  0  0  0  0
   -1.2273   -2.1314    0.1457 C   0  0  0  0  0  0  0  0  0  0  0  0
   -0.2936   -2.8397    0.4888 O   0  0  0  0  0  0  0  0  0  0  0  0
   -0.9927   -0.8480   -0.2978 N   0  0  0  0  0  0  0  0  0  0  0  0
   -1.8010   -0.2694   -0.5229 H   0  0  0  0  0  0  0  0  0  0  0  0
    0.3170   -0.1810   -0.3101 C   0  0  1  0  0  0  0  0  0  0  0  0
    0.9783   -0.7152    0.3794 H   0  0  0  0  0  0  0  0  0  0  0  0
    0.9420   -0.2973   -1.7087 C   0  0  0  0  0  0  0  0  0  0  0  0
    2.0072   -0.0547   -1.6430 H   0  0  0  0  0  0  0  0  0  0  0  0
    0.8604   -1.3332   -2.0546 H   0  0  0  0  0  0  0  0  0  0  0  0
    0.1604    0.8265   -2.9396 S   0  0  0  0  0  0  0  0  0  0  0  0
    0.8483    0.5113   -4.0584 H   0  0  0  0  0  0  0  0  0  0  0  0
    0.2413    1.2658    0.2237 C   0  0  0  0  0  0  0  0  0  0  0  0
   -0.7676    1.9408    0.0502 O   0  0  0  0  0  0  0  0  0  0  0  0
    1.1943    1.7220    1.1176 N   0  0  0  0  0  0  0  0  0  0  0  0
    1.9642    1.0998    1.3444 H   0  0  0  0  0  0  0  0  0  0  0  0
    1.0918    2.9993    1.8137 C   0  0  0  0  0  0  0  0  0  0  0  0
    0.2050    3.0153    2.4562 H   0  0  0  0  0  0  0  0  0  0  0  0
    1.9750    3.1621    2.4388 H   0  0  0  0  0  0  0  0  0  0  0  0
    1.0214    3.8230    1.0954 H   0  0  0  0  0  0  0  0  0  0  0  0
  1  2  1  0  0  0  0
  2  3  1  0  0  0  0
  2  4  1  0  0  0  0
  2  5  1  0  0  0  0
  5  6  2  0  0  0  0
  5  7  1  0  0  0  0
  7  8  1  0  0  0  0
  7  9  1  0  0  0  0
  9 10  1  0  0  0  0
  9 11  1  0  0  0  0
  9 16  1  0  0  0  0
 11 12  1  0  0  0  0
 11 13  1  0  0  0  0
 11 14  1  0  0  0  0
 14 15  1  0  0  0  0
 16 17  2  0  0  0  0
 16 18  1  0  0  0  0
 18 19  1  0  0  0  0
 18 20  1  0  0  0  0
 20 21  1  0  0  0  0
 20 22  1  0  0  0  0
 20 23  1  0  0  0  0
M  END
$$$$

  -OEChem-04042215573D

 23 22  0     1  0  0  0  0  0999 V2000
   -2.6478   -3.6809    0.5813 H   0  0  0  0  0  0  0  0  0  0  0  0
   -2.6475   -2.6497    0.2170 C   0  0  0  0  0  0  0  0  0  0  0  0
   -3.2210   -2.0305    0.9110 H   0  0  0  0  0  0  0  0  0  0  0  0
   -3.1254   -2.6226   -0.7651 H   0  0  0  0  0  0  0  0  0  0  0  0
   -1.2256   -2.1315    0.1149 C   0  0  0  0  0  0  0  0  0  0  0  0
   -0.2866   -2.8544    0.4097 O   0  0  0  0  0  0  0  0  0  0  0  0
   -0.9945   -0.8438   -0.3187 N   0  0  0  0  0  0  0  0  0  0  0  0
   -1.8063   -0.2475   -0.4771 H   0  0  0  0  0  0  0  0  0  0  0  0
    0.3166   -0.1776   -0.3252 C   0  0  1  0  0  0  0  0  0  0  0  0
    0.9676   -0.7160    0.3711 H   0  0  0  0  0  0  0  0  0  0  0  0
    0.9618   -0.3019   -1.7171 C   0  0  0  0  0  0  0  0  0  0  0  0
    2.0495   -0.3166   -1.5968 H   0  0  0  0  0  0  0  0  0  0  0  0
    0.6720   -1.2560   -2.1696 H   0  0  0  0  0  0  0  0  0  0  0  0
    0.5322    1.0790   -2.8559 S   0  0  0  0  0  0  0  0  0  0  0  0
    1.1671    0.6962   -3.9850 H   0  0  0  0  0  0  0  0  0  0  0  0
    0.2316    1.2640    0.2228 C   0  0  0  0  0  0  0  0  0  0  0  0
   -0.7956    1.9186    0.0764 O   0  0  0  0  0  0  0  0  0  0  0  0
    1.1790    1.7190    1.1232 N   0  0  0  0  0  0  0  0  0  0  0  0
    1.9781    1.1210    1.3102 H   0  0  0  0  0  0  0  0  0  0  0  0
    1.0691    2.9919    1.8259 C   0  0  0  0  0  0  0  0  0  0  0  0
    0.1720    3.0069    2.4540 H   0  0  0  0  0  0  0  0  0  0  0  0
    1.9422    3.1472    2.4669 H   0  0  0  0  0  0  0  0  0  0  0  0
    1.0131    3.8201    1.1115 H   0  0  0  0  0  0  0  0  0  0  0  0
  1  2  1  0  0  0  0
  2  3  1  0  0  0  0
  2  4  1  0  0  0  0
  2  5  1  0  0  0  0
  5  6  2  0  0  0  0
  5  7  1  0  0  0  0
  7  8  1  0  0  0  0
  7  9  1  0  0  0  0
  9 10  1  0  0  0  0
  9 11  1  0  0  0  0
  9 16  1  0  0  0  0
 11 12  1  0  0  0  0
 11 13  1  0  0  0  0
 11 14  1  0  0  0  0
 14 15  1  0  0  0  0
 16 17  2  0  0  0  0
 16 18  1  0  0  0  0
 18 19  1  0  0  0  0
 18 20  1  0  0  0  0
 20 21  1  0  0  0  0
 20 22  1  0  0  0  0
 20 23  1  0  0  0  0
M  END
$$$$

  -OEChem-04042215573D

 23 22  0     1  0  0  0  0  0999 V2000
   -2.6500   -3.6766    0.5820 H   0  0  0  0  0  0  0  0  0  0  0  0
   -2.6488   -2.6425    0.2267 C   0  0  0  0  0  0  0  0  0  0  0  0
   -3.2029   -2.0251    0.9379 H   0  0  0  0  0  0  0  0  0  0  0  0
   -3.1463   -2.6028   -0.7453 H   0  0  0  0  0  0  0  0  0  0  0  0
   -1.2250   -2.1352    0.0996 C   0  0  0  0  0  0  0  0  0  0  0  0
   -0.2860   -2.8684    0.3670 O   0  0  0  0  0  0  0  0  0  0  0  0
   -0.9922   -0.8454   -0.3274 N   0  0  0  0  0  0  0  0  0  0  0  0
   -1.8025   -0.2370   -0.4439 H   0  0  0  0  0  0  0  0  0  0  0  0
    0.3227   -0.1850   -0.3277 C   0  0  1  0  0  0  0  0  0  0  0  0
    0.9698   -0.7248    0.3711 H   0  0  0  0  0  0  0  0  0  0  0  0
    0.9761   -0.3048   -1.7202 C   0  0  0  0  0  0  0  0  0  0  0  0
    2.0225   -0.5960   -1.5857 H   0  0  0  0  0  0  0  0  0  0  0  0
    0.4904   -1.1070   -2.2857 H   0  0  0  0  0  0  0  0  0  0  0  0
    0.9419    1.2473   -2.7111 S   0  0  0  0  0  0  0  0  0  0  0  0
    1.5127    0.8354   -3.8641 H   0  0  0  0  0  0  0  0  0  0  0  0
    0.2236    1.2517    0.2312 C   0  0  0  0  0  0  0  0  0  0  0  0
   -0.8108    1.8951    0.0816 O   0  0  0  0  0  0  0  0  0  0  0  0
    1.1603    1.7092    1.1411 N   0  0  0  0  0  0  0  0  0  0  0  0
    1.9812    1.1337    1.3018 H   0  0  0  0  0  0  0  0  0  0  0  0
    1.0526    2.9929    1.8236 C   0  0  0  0  0  0  0  0  0  0  0  0
    0.1491    3.0244    2.4415 H   0  0  0  0  0  0  0  0  0  0  0  0
    1.9198    3.1507    2.4719 H   0  0  0  0  0  0  0  0  0  0  0  0
    1.0108    3.8110    1.0966 H   0  0  0  0  0  0  0  0  0  0  0  0
  1  2  1  0  0  0  0
  2  3  1  0  0  0  0
  2  4  1  0  0  0  0
  2  5  1  0  0  0  0
  5  6  2  0  0  0  0
  5  7  1  0  0  0  0
  7  8  1  0  0  0  0
  7  9  1  0  0  0  0
  9 10  1  0  0  0  0
  9 11  1  0  0  0  0
  9 16  1  0  0  0  0
 11 12  1  0  0  0  0
 11 13  1  0  0  0  0
 11 14  1  0  0  0  0
 14 15  1  0  0  0  0
 16 17  2  0  0  0  0
 16 18  1  0  0  0  0
 18 19  1  0  0  0  0
 18 20  1  0  0  0  0
 20 21  1  0  0  0  0
 20 22  1  0  0  0  0
 20 23  1  0  0  0  0
M  END
$$$$

  -OEChem-04042215573D

 23 22  0     1  0  0  0  0  0999 V2000
   -2.6587   -3.6631    0.5979 H   0  0  0  0  0  0  0  0  0  0  0  0
   -2.6487   -2.6311    0.2361 C   0  0  0  0  0  0  0  0  0  0  0  0
   -3.1904   -2.0033    0.9477 H   0  0  0  0  0  0  0  0  0  0  0  0
   -3.1534   -2.5919   -0.7321 H   0  0  0  0  0  0  0  0  0  0  0  0
   -1.2204   -2.1403    0.0950 C   0  0  0  0  0  0  0  0  0  0  0  0
   -0.2877   -2.8843    0.3539 O   0  0  0  0  0  0  0  0  0  0  0  0
   -0.9762   -0.8527   -0.3323 N   0  0  0  0  0  0  0  0  0  0  0  0
   -1.7798   -0.2312   -0.4249 H   0  0  0  0  0  0  0  0  0  0  0  0
    0.3463   -0.2070   -0.3223 C   0  0  1  0  0  0  0  0  0  0  0  0
    0.9971   -0.7450    0.3745 H   0  0  0  0  0  0  0  0  0  0  0  0
    0.9910   -0.3079   -1.7229 C   0  0  0  0  0  0  0  0  0  0  0  0
    1.9177   -0.8842   -1.6380 H   0  0  0  0  0  0  0  0  0  0  0  0
    0.3265   -0.8682   -2.3888 H   0  0  0  0  0  0  0  0  0  0  0  0
    1.3755    1.3115   -2.5146 S   0  0  0  0  0  0  0  0  0  0  0  0
    1.8362    0.9113   -3.7201 H   0  0  0  0  0  0  0  0  0  0  0  0
    0.2249    1.2272    0.2396 C   0  0  0  0  0  0  0  0  0  0  0  0
   -0.8072    1.8672    0.0582 O   0  0  0  0  0  0  0  0  0  0  0  0
    1.1413    1.6922    1.1659 N   0  0  0  0  0  0  0  0  0  0  0  0
    1.9802    1.1392    1.3129 H   0  0  0  0  0  0  0  0  0  0  0  0
    1.0314    2.9933    1.8137 C   0  0  0  0  0  0  0  0  0  0  0  0
    0.0998    3.0598    2.3856 H   0  0  0  0  0  0  0  0  0  0  0  0
    1.8690    3.1459    2.5011 H   0  0  0  0  0  0  0  0  0  0  0  0
    1.0450    3.7945    1.0672 H   0  0  0  0  0  0  0  0  0  0  0  0
  1  2  1  0  0  0  0
  2  3  1  0  0  0  0
  2  4  1  0  0  0  0
  2  5  1  0  0  0  0
  5  6  2  0  0  0  0
  5  7  1  0  0  0  0
  7  8  1  0  0  0  0
  7  9  1  0  0  0  0
  9 10  1  0  0  0  0
  9 11  1  0  0  0  0
  9 16  1  0  0  0  0
 11 12  1  0  0  0  0
 11 13  1  0  0  0  0
 11 14  1  0  0  0  0
 14 15  1  0  0  0  0
 16 17  2  0  0  0  0
 16 18  1  0  0  0  0
 18 19  1  0  0  0  0
 18 20  1  0  0  0  0
 20 21  1  0  0  0  0
 20 22  1  0  0  0  0
 20 23  1  0  0  0  0
M  END
$$$$

  -OEChem-04042215573D

 23 22  0     1  0  0  0  0  0999 V2000
   -2.6699   -3.6533    0.6167 H   0  0  0  0  0  0  0  0  0  0  0  0
   -2.6508   -2.6261    0.2417 C   0  0  0  0  0  0  0  0  0  0  0  0
   -3.1892   -1.9850    0.9440 H   0  0  0  0  0  0  0  0  0  0  0  0
   -3.1531   -2.5954   -0.7281 H   0  0  0  0  0  0  0  0  0  0  0  0
   -1.2179   -2.1491    0.0984 C   0  0  0  0  0  0  0  0  0  0  0  0
   -0.2926   -2.9007    0.3614 O   0  0  0  0  0  0  0  0  0  0  0  0
   -0.9600   -0.8653   -0.3325 N   0  0  0  0  0  0  0  0  0  0  0  0
   -1.7565   -0.2341   -0.4216 H   0  0  0  0  0  0  0  0  0  0  0  0
    0.3702   -0.2355   -0.3117 C   0  0  1  0  0  0  0  0  0  0  0  0
    1.0294   -0.7722    0.3783 H   0  0  0  0  0  0  0  0  0  0  0  0
    0.9947   -0.3107   -1.7215 C   0  0  0  0  0  0  0  0  0  0  0  0
    1.7305   -1.1211   -1.7394 H   0  0  0  0  0  0  0  0  0  0  0  0
    0.2139   -0.5678   -2.4449 H   0  0  0  0  0  0  0  0  0  0  0  0
    1.7863    1.2533   -2.2918 S   0  0  0  0  0  0  0  0  0  0  0  0
    2.1537    0.9142   -3.5472 H   0  0  0  0  0  0  0  0  0  0  0  0
    0.2319    1.1990    0.2472 C   0  0  0  0  0  0  0  0  0  0  0  0
   -0.7881    1.8442    0.0196 O   0  0  0  0  0  0  0  0  0  0  0  0
    1.1275    1.6739    1.1886 N   0  0  0  0  0  0  0  0  0  0  0  0
    1.9760    1.1355    1.3357 H   0  0  0  0  0  0  0  0  0  0  0  0
    1.0202    2.9962    1.7930 C   0  0  0  0  0  0  0  0  0  0  0  0
    0.0619    3.1048    2.3119 H   0  0  0  0  0  0  0  0  0  0  0  0
    1.8236    3.1461    2.5206 H   0  0  0  0  0  0  0  0  0  0  0  0
    1.0963    3.7745    1.0263 H   0  0  0  0  0  0  0  0  0  0  0  0
  1  2  1  0  0  0  0
  2  3  1  0  0  0  0
  2  4  1  0  0  0  0
  2  5  1  0  0  0  0
  5  6  2  0  0  0  0
  5  7  1  0  0  0  0
  7  8  1  0  0  0  0
  7  9  1  0  0  0  0
  9 10  1  0  0  0  0
  9 11  1  0  0  0  0
  9 16  1  0  0  0  0
 11 12  1  0  0  0  0
 11 13  1  0  0  0  0
 11 14  1  0  0  0  0
 14 15  1  0  0  0  0
 16 17  2  0  0  0  0
 16 18  1  0  0  0  0
 18 19  1  0  0  0  0
 18 20  1  0  0  0  0
 20 21  1  0  0  0  0
 20 22  1  0  0  0  0
 20 23  1  0  0  0  0
M  END
$$$$

  -OEChem-04042215573D

 23 22  0     1  0  0  0  0  0999 V2000
   -2.6824   -3.6592    0.6157 H   0  0  0  0  0  0  0  0  0  0  0  0
   -2.6550   -2.6340    0.2362 C   0  0  0  0  0  0  0  0  0  0  0  0
   -3.2017   -1.9881    0.9274 H   0  0  0  0  0  0  0  0  0  0  0  0
   -3.1427   -2.6068   -0.7412 H   0  0  0  0  0  0  0  0  0  0  0  0
   -1.2192   -2.1614    0.1113 C   0  0  0  0  0  0  0  0  0  0  0  0
   -0.2996   -2.9138    0.3913 O   0  0  0  0  0  0  0  0  0  0  0  0
   -0.9532   -0.8813   -0.3250 N   0  0  0  0  0  0  0  0  0  0  0  0
   -1.7471   -0.2489   -0.4271 H   0  0  0  0  0  0  0  0  0  0  0  0
    0.3792   -0.2574   -0.2969 C   0  0  1  0  0  0  0  0  0  0  0  0
    1.0462   -0.7948    0.3850 H   0  0  0  0  0  0  0  0  0  0  0  0
    0.9821   -0.3084   -1.7123 C   0  0  0  0  0  0  0  0  0  0  0  0
    1.4974   -1.2649   -1.8481 H   0  0  0  0  0  0  0  0  0  0  0  0
    0.1696   -0.2648   -2.4453 H   0  0  0  0  0  0  0  0  0  0  0  0
    2.1336    1.0846   -2.0736 S   0  0  0  0  0  0  0  0  0  0  0  0
    2.4443    0.8335   -3.3647 H   0  0  0  0  0  0  0  0  0  0  0  0
    0.2361    1.1794    0.2532 C   0  0  0  0  0  0  0  0  0  0  0  0
   -0.7646    1.8371   -0.0194 O   0  0  0  0  0  0  0  0  0  0  0  0
    1.1213    1.6601    1.2009 N   0  0  0  0  0  0  0  0  0  0  0  0
    1.9698    1.1226    1.3525 H   0  0  0  0  0  0  0  0  0  0  0  0
    1.0312    3.0012    1.7642 C   0  0  0  0  0  0  0  0  0  0  0  0
    0.0596    3.1515    2.2466 H   0  0  0  0  0  0  0  0  0  0  0  0
    1.8135    3.1488    2.5147 H   0  0  0  0  0  0  0  0  0  0  0  0
    1.1554    3.7544    0.9793 H   0  0  0  0  0  0  0  0  0  0  0  0
  1  2  1  0  0  0  0
  2  3  1  0  0  0  0
  2  4  1  0  0  0  0
  2  5  1  0  0  0  0
  5  6  2  0  0  0  0
  5  7  1  0  0  0  0
  7  8  1  0  0  0  0
  7  9  1  0  0  0  0
  9 10  1  0  0  0  0
  9 11  1  0  0  0  0
  9 16  1  0  0  0  0
 11 12  1  0  0  0  0
 11 13  1  0  0  0  0
 11 14  1  0  0  0  0
 14 15  1  0  0  0  0
 16 17  2  0  0  0  0
 16 18  1  0  0  0  0
 18 19  1  0  0  0  0
 18 20  1  0  0  0  0
 20 21  1  0  0  0  0
 20 22  1  0  0  0  0
 20 23  1  0  0  0  0
M  END
$$$$

  -OEChem-04042215573D

 23 22  0     1  0  0  0  0  0999 V2000
   -2.6922   -3.6690    0.6179 H   0  0  0  0  0  0  0  0  0  0  0  0
   -2.6624   -2.6439    0.2379 C   0  0  0  0  0  0  0  0  0  0  0  0
   -3.2074   -1.9965    0.9292 H   0  0  0  0  0  0  0  0  0  0  0  0
   -3.1504   -2.6157   -0.7393 H   0  0  0  0  0  0  0  0  0  0  0  0
   -1.2255   -2.1742    0.1124 C   0  0  0  0  0  0  0  0  0  0  0  0
   -0.3080   -2.9272    0.3960 O   0  0  0  0  0  0  0  0  0  0  0  0
   -0.9581   -0.8947   -0.3256 N   0  0  0  0  0  0  0  0  0  0  0  0
   -1.7527   -0.2644   -0.4325 H   0  0  0  0  0  0  0  0  0  0  0  0
    0.3732   -0.2687   -0.2930 C   0  0  1  0  0  0  0  0  0  0  0  0
    1.0430   -0.8121    0.3816 H   0  0  0  0  0  0  0  0  0  0  0  0
    0.9668   -0.2995   -1.7076 C   0  0  0  0  0  0  0  0  0  0  0  0
    1.2598   -1.3255   -1.9536 H   0  0  0  0  0  0  0  0  0  0  0  0
    0.1998    0.0111   -2.4250 H   0  0  0  0  0  0  0  0  0  0  0  0
    2.4151    0.8257   -1.8802 S   0  0  0  0  0  0  0  0  0  0  0  0
    2.7181    0.6535   -3.1861 H   0  0  0  0  0  0  0  0  0  0  0  0
    0.2390    1.1697    0.2511 C   0  0  0  0  0  0  0  0  0  0  0  0
   -0.7466    1.8387   -0.0463 O   0  0  0  0  0  0  0  0  0  0  0  0
    1.1233    1.6520    1.1983 N   0  0  0  0  0  0  0  0  0  0  0  0
    1.9682    1.1095    1.3549 H   0  0  0  0  0  0  0  0  0  0  0  0
    1.0469    3.0029    1.7398 C   0  0  0  0  0  0  0  0  0  0  0  0
    0.0761    3.1710    2.2178 H   0  0  0  0  0  0  0  0  0  0  0  0
    1.8296    3.1547    2.4891 H   0  0  0  0  0  0  0  0  0  0  0  0
    1.1802    3.7421    0.9430 H   0  0  0  0  0  0  0  0  0  0  0  0
  1  2  1  0  0  0  0
  2  3  1  0  0  0  0
  2  4  1  0  0  0  0
  2  5  1  0  0  0  0
  5  6  2  0  0  0  0
  5  7  1  0  0  0  0
  7  8  1  0  0  0  0
  7  9  1  0  0  0  0
  9 10  1  0  0  0  0
  9 11  1  0  0  0  0
  9 16  1  0  0  0  0
 11 12  1  0  0  0  0
 11 13  1  0  0  0  0
 11 14  1  0  0  0  0
 14 15  1  0  0  0  0
 16 17  2  0  0  0  0
 16 18  1  0  0  0  0
 18 19  1  0  0  0  0
 18 20  1  0  0  0  0
 20 21  1  0  0  0  0
 20 22  1  0  0  0  0
 20 23  1  0  0  0  0
M  END
$$$$
