default_name
  -OEChem-01062215323D

 36 35  0     1  0  0  0  0  0999 V2000
   -4.2256   -3.6731    1.8584 H   0  0  0  0  0  0  0  0  0  0  0  0
   -4.2396   -2.6781    1.4144 C   0  0  0  0  0  0  0  0  0  0  0  0
   -4.9506   -2.0521    1.9514 H   0  0  0  0  0  0  0  0  0  0  0  0
   -4.5266   -2.7521    0.3674 H   0  0  0  0  0  0  0  0  0  0  0  0
   -2.8576   -2.0761    1.5184 C   0  0  0  0  0  0  0  0  0  0  0  0
   -1.9456   -2.7051    2.0404 O   0  0  0  0  0  0  0  0  0  0  0  0
   -2.6926   -0.8481    1.0174 N   0  0  0  0  0  0  0  0  0  0  0  0
   -3.4926   -0.3971    0.5954 H   0  0  0  0  0  0  0  0  0  0  0  0
   -1.4216   -0.1071    1.0434 C   0  0  1  0  0  0  0  0  0  0  0  0
   -1.1278    0.0355    2.0847 H   0  0  0  0  0  0  0  0  0  0  0  0
   -0.3467   -0.9571    0.3367 C   0  0  0  0  0  0  0  0  0  0  0  0
   -0.7150   -1.2312   -0.6539 H   0  0  0  0  0  0  0  0  0  0  0  0
    0.5562   -0.3561    0.2084 H   0  0  0  0  0  0  0  0  0  0  0  0
    0.0085   -2.2456    1.0929 C   0  0  0  0  0  0  0  0  0  0  0  0
    0.3908   -1.9982    2.0842 H   0  0  0  0  0  0  0  0  0  0  0  0
   -0.8852   -2.8621    1.1950 H   0  0  0  0  0  0  0  0  0  0  0  0
    1.0811   -3.0258    0.3208 C   0  0  0  0  0  0  0  0  0  0  0  0
    0.7001   -3.2460   -0.6791 H   0  0  0  0  0  0  0  0  0  0  0  0
    1.9698   -2.3970    0.2289 H   0  0  0  0  0  0  0  0  0  0  0  0
    1.4375   -4.2879    1.0012 N   0  3  0  0  0  0  0  0  0  0  0  0
    0.9911   -4.4665    1.8845 H   0  0  0  0  0  0  0  0  0  0  0  0
    2.2853   -5.2017    0.5593 C   0  0  0  0  0  0  0  0  0  0  0  0
    2.9184   -5.0701   -0.5726 N   0  0  0  0  0  0  0  0  0  0  0  0
    2.7542   -4.2479   -1.1260 H   0  0  0  0  0  0  0  0  0  0  0  0
    3.5588   -5.7729   -0.8932 H   0  0  0  0  0  0  0  0  0  0  0  0
    2.5172   -6.2782    1.2555 N   0  0  0  0  0  0  0  0  0  0  0  0
    2.0524   -6.4244    2.1350 H   0  0  0  0  0  0  0  0  0  0  0  0
    3.1610   -6.9689    0.9165 H   0  0  0  0  0  0  0  0  0  0  0  0
   -1.5875    1.2644    0.3857 C   0  0  0  0  0  0  0  0  0  0  0  0
   -2.6698    1.5777   -0.0954 O   0  0  0  0  0  0  0  0  0  0  0  0
   -0.5085    2.0518    0.3372 N   0  0  0  0  0  0  0  0  0  0  0  0
    0.3307    1.7297    0.7909 H   0  0  0  0  0  0  0  0  0  0  0  0
   -0.4980    3.3909   -0.2542 C   0  0  0  0  0  0  0  0  0  0  0  0
   -1.1628    4.0488    0.3096 H   0  0  0  0  0  0  0  0  0  0  0  0
    0.5106    3.8057   -0.2376 H   0  0  0  0  0  0  0  0  0  0  0  0
   -0.8516    3.3461   -1.2866 H   0  0  0  0  0  0  0  0  0  0  0  0
  5  6  2  0  0  0  0
  5  7  1  0  0  0  0
  2  3  1  0  0  0  0
  2  4  1  0  0  0  0
  2  5  1  0  0  0  0
  1  2  1  0  0  0  0
 29 30  2  0  0  0  0
 29 31  1  0  0  0  0
 26 27  1  0  0  0  0
 26 28  1  0  0  0  0
 23 24  1  0  0  0  0
 23 25  1  0  0  0  0
 22 23  1  0  0  0  0
 22 26  1  0  0  0  0
 20 21  1  0  0  0  0
 20 22  2  0  0  0  0
 17 18  1  0  0  0  0
 17 19  1  0  0  0  0
 17 20  1  0  0  0  0
 14 15  1  0  0  0  0
 14 16  1  0  0  0  0
 14 17  1  0  0  0  0
 11 12  1  0  0  0  0
 11 13  1  0  0  0  0
 11 14  1  0  0  0  0
  9 10  1  0  0  0  0
  9 11  1  0  0  0  0
  9 29  1  0  0  0  0
  7  8  1  0  0  0  0
  7  9  1  0  0  0  0
 33 34  1  0  0  0  0
 33 35  1  0  0  0  0
 33 36  1  0  0  0  0
 31 32  1  0  0  0  0
 31 33  1  0  0  0  0
M  CHG  1  20   1
M  END
$$$$
default_name
  -OEChem-01062215323D

 36 35  0     1  0  0  0  0  0999 V2000
   -4.2256   -3.6731    1.8584 H   0  0  0  0  0  0  0  0  0  0  0  0
   -4.2396   -2.6781    1.4144 C   0  0  0  0  0  0  0  0  0  0  0  0
   -4.9506   -2.0521    1.9514 H   0  0  0  0  0  0  0  0  0  0  0  0
   -4.5266   -2.7521    0.3674 H   0  0  0  0  0  0  0  0  0  0  0  0
   -2.8576   -2.0761    1.5184 C   0  0  0  0  0  0  0  0  0  0  0  0
   -1.9456   -2.7051    2.0404 O   0  0  0  0  0  0  0  0  0  0  0  0
   -2.6926   -0.8481    1.0174 N   0  0  0  0  0  0  0  0  0  0  0  0
   -3.4926   -0.3971    0.5954 H   0  0  0  0  0  0  0  0  0  0  0  0
   -1.4216   -0.1071    1.0434 C   0  0  1  0  0  0  0  0  0  0  0  0
   -1.1278    0.0355    2.0847 H   0  0  0  0  0  0  0  0  0  0  0  0
   -0.3467   -0.9571    0.3367 C   0  0  0  0  0  0  0  0  0  0  0  0
   -0.7150   -1.2312   -0.6539 H   0  0  0  0  0  0  0  0  0  0  0  0
    0.5562   -0.3561    0.2084 H   0  0  0  0  0  0  0  0  0  0  0  0
    0.0085   -2.2456    1.0929 C   0  0  0  0  0  0  0  0  0  0  0  0
    0.3908   -1.9982    2.0842 H   0  0  0  0  0  0  0  0  0  0  0  0
   -0.8852   -2.8621    1.1950 H   0  0  0  0  0  0  0  0  0  0  0  0
    1.0811   -3.0258    0.3208 C   0  0  0  0  0  0  0  0  0  0  0  0
    0.7001   -3.2460   -0.6791 H   0  0  0  0  0  0  0  0  0  0  0  0
    1.9698   -2.3970    0.2289 H   0  0  0  0  0  0  0  0  0  0  0  0
    1.4375   -4.2879    1.0012 N   0  3  0  0  0  0  0  0  0  0  0  0
    0.9911   -4.4665    1.8845 H   0  0  0  0  0  0  0  0  0  0  0  0
    2.2853   -5.2017    0.5593 C   0  0  0  0  0  0  0  0  0  0  0  0
    2.9184   -5.0701   -0.5726 N   0  0  0  0  0  0  0  0  0  0  0  0
    2.7542   -4.2479   -1.1260 H   0  0  0  0  0  0  0  0  0  0  0  0
    3.5588   -5.7729   -0.8932 H   0  0  0  0  0  0  0  0  0  0  0  0
    2.5172   -6.2782    1.2555 N   0  0  0  0  0  0  0  0  0  0  0  0
    2.0524   -6.4244    2.1350 H   0  0  0  0  0  0  0  0  0  0  0  0
    3.1610   -6.9689    0.9165 H   0  0  0  0  0  0  0  0  0  0  0  0
   -1.5875    1.2644    0.3857 C   0  0  0  0  0  0  0  0  0  0  0  0
   -2.7120    1.6924    0.1544 O   0  0  0  0  0  0  0  0  0  0  0  0
   -0.4712    1.9222    0.0575 N   0  0  0  0  0  0  0  0  0  0  0  0
    0.4109    1.5128    0.3185 H   0  0  0  0  0  0  0  0  0  0  0  0
   -0.4546    3.2423   -0.5750 C   0  0  0  0  0  0  0  0  0  0  0  0
   -0.8944    3.9803    0.0991 H   0  0  0  0  0  0  0  0  0  0  0  0
    0.5687    3.5390   -0.8084 H   0  0  0  0  0  0  0  0  0  0  0  0
   -1.0423    3.2228   -1.4954 H   0  0  0  0  0  0  0  0  0  0  0  0
  5  6  2  0  0  0  0
  5  7  1  0  0  0  0
  2  3  1  0  0  0  0
  2  4  1  0  0  0  0
  2  5  1  0  0  0  0
  1  2  1  0  0  0  0
 29 30  2  0  0  0  0
 29 31  1  0  0  0  0
 26 27  1  0  0  0  0
 26 28  1  0  0  0  0
 23 24  1  0  0  0  0
 23 25  1  0  0  0  0
 22 23  1  0  0  0  0
 22 26  1  0  0  0  0
 20 21  1  0  0  0  0
 20 22  2  0  0  0  0
 17 18  1  0  0  0  0
 17 19  1  0  0  0  0
 17 20  1  0  0  0  0
 14 15  1  0  0  0  0
 14 16  1  0  0  0  0
 14 17  1  0  0  0  0
 11 12  1  0  0  0  0
 11 13  1  0  0  0  0
 11 14  1  0  0  0  0
  9 10  1  0  0  0  0
  9 11  1  0  0  0  0
  9 29  1  0  0  0  0
  7  8  1  0  0  0  0
  7  9  1  0  0  0  0
 33 34  1  0  0  0  0
 33 35  1  0  0  0  0
 33 36  1  0  0  0  0
 31 32  1  0  0  0  0
 31 33  1  0  0  0  0
M  CHG  1  20   1
M  END
$$$$
default_name
  -OEChem-01062215323D

 36 35  0     1  0  0  0  0  0999 V2000
   -4.2256   -3.6731    1.8584 H   0  0  0  0  0  0  0  0  0  0  0  0
   -4.2396   -2.6781    1.4144 C   0  0  0  0  0  0  0  0  0  0  0  0
   -4.9506   -2.0521    1.9514 H   0  0  0  0  0  0  0  0  0  0  0  0
   -4.5266   -2.7521    0.3674 H   0  0  0  0  0  0  0  0  0  0  0  0
   -2.8576   -2.0761    1.5184 C   0  0  0  0  0  0  0  0  0  0  0  0
   -1.9456   -2.7051    2.0404 O   0  0  0  0  0  0  0  0  0  0  0  0
   -2.6926   -0.8481    1.0174 N   0  0  0  0  0  0  0  0  0  0  0  0
   -3.4926   -0.3971    0.5954 H   0  0  0  0  0  0  0  0  0  0  0  0
   -1.4216   -0.1071    1.0434 C   0  0  1  0  0  0  0  0  0  0  0  0
   -1.1278    0.0355    2.0847 H   0  0  0  0  0  0  0  0  0  0  0  0
   -0.3467   -0.9571    0.3367 C   0  0  0  0  0  0  0  0  0  0  0  0
   -0.7150   -1.2312   -0.6539 H   0  0  0  0  0  0  0  0  0  0  0  0
    0.5562   -0.3561    0.2084 H   0  0  0  0  0  0  0  0  0  0  0  0
    0.0085   -2.2456    1.0929 C   0  0  0  0  0  0  0  0  0  0  0  0
    0.3908   -1.9982    2.0842 H   0  0  0  0  0  0  0  0  0  0  0  0
   -0.8852   -2.8621    1.1950 H   0  0  0  0  0  0  0  0  0  0  0  0
    1.0811   -3.0258    0.3208 C   0  0  0  0  0  0  0  0  0  0  0  0
    0.7001   -3.2460   -0.6791 H   0  0  0  0  0  0  0  0  0  0  0  0
    1.9698   -2.3970    0.2289 H   0  0  0  0  0  0  0  0  0  0  0  0
    1.4375   -4.2879    1.0012 N   0  3  0  0  0  0  0  0  0  0  0  0
    0.9911   -4.4665    1.8845 H   0  0  0  0  0  0  0  0  0  0  0  0
    2.2853   -5.2017    0.5593 C   0  0  0  0  0  0  0  0  0  0  0  0
    2.9184   -5.0701   -0.5726 N   0  0  0  0  0  0  0  0  0  0  0  0
    2.7542   -4.2479   -1.1260 H   0  0  0  0  0  0  0  0  0  0  0  0
    3.5588   -5.7729   -0.8932 H   0  0  0  0  0  0  0  0  0  0  0  0
    2.5172   -6.2782    1.2555 N   0  0  0  0  0  0  0  0  0  0  0  0
    2.0524   -6.4244    2.1350 H   0  0  0  0  0  0  0  0  0  0  0  0
    3.1610   -6.9689    0.9165 H   0  0  0  0  0  0  0  0  0  0  0  0
   -1.5875    1.2644    0.3857 C   0  0  0  0  0  0  0  0  0  0  0  0
   -2.6819    1.8149    0.4023 O   0  0  0  0  0  0  0  0  0  0  0  0
   -0.5144    1.7850   -0.2177 N   0  0  0  0  0  0  0  0  0  0  0  0
    0.3548    1.2812   -0.1503 H   0  0  0  0  0  0  0  0  0  0  0  0
   -0.5037    3.0849   -0.8909 C   0  0  0  0  0  0  0  0  0  0  0  0
   -0.6915    3.8785   -0.1645 H   0  0  0  0  0  0  0  0  0  0  0  0
    0.4627    3.2589   -1.3658 H   0  0  0  0  0  0  0  0  0  0  0  0
   -1.2886    3.1191   -1.6495 H   0  0  0  0  0  0  0  0  0  0  0  0
  5  6  2  0  0  0  0
  5  7  1  0  0  0  0
  2  3  1  0  0  0  0
  2  4  1  0  0  0  0
  2  5  1  0  0  0  0
  1  2  1  0  0  0  0
 29 30  2  0  0  0  0
 29 31  1  0  0  0  0
 26 27  1  0  0  0  0
 26 28  1  0  0  0  0
 23 24  1  0  0  0  0
 23 25  1  0  0  0  0
 22 23  1  0  0  0  0
 22 26  1  0  0  0  0
 20 21  1  0  0  0  0
 20 22  2  0  0  0  0
 17 18  1  0  0  0  0
 17 19  1  0  0  0  0
 17 20  1  0  0  0  0
 14 15  1  0  0  0  0
 14 16  1  0  0  0  0
 14 17  1  0  0  0  0
 11 12  1  0  0  0  0
 11 13  1  0  0  0  0
 11 14  1  0  0  0  0
  9 10  1  0  0  0  0
  9 11  1  0  0  0  0
  9 29  1  0  0  0  0
  7  8  1  0  0  0  0
  7  9  1  0  0  0  0
 33 34  1  0  0  0  0
 33 35  1  0  0  0  0
 33 36  1  0  0  0  0
 31 32  1  0  0  0  0
 31 33  1  0  0  0  0
M  CHG  1  20   1
M  END
$$$$
default_name
  -OEChem-01062215323D

 36 35  0     1  0  0  0  0  0999 V2000
   -4.2256   -3.6731    1.8584 H   0  0  0  0  0  0  0  0  0  0  0  0
   -4.2396   -2.6781    1.4144 C   0  0  0  0  0  0  0  0  0  0  0  0
   -4.9506   -2.0521    1.9514 H   0  0  0  0  0  0  0  0  0  0  0  0
   -4.5266   -2.7521    0.3674 H   0  0  0  0  0  0  0  0  0  0  0  0
   -2.8576   -2.0761    1.5184 C   0  0  0  0  0  0  0  0  0  0  0  0
   -1.9456   -2.7051    2.0404 O   0  0  0  0  0  0  0  0  0  0  0  0
   -2.6926   -0.8481    1.0174 N   0  0  0  0  0  0  0  0  0  0  0  0
   -3.4926   -0.3971    0.5954 H   0  0  0  0  0  0  0  0  0  0  0  0
   -1.4216   -0.1071    1.0434 C   0  0  1  0  0  0  0  0  0  0  0  0
   -1.1278    0.0355    2.0847 H   0  0  0  0  0  0  0  0  0  0  0  0
   -0.3467   -0.9571    0.3367 C   0  0  0  0  0  0  0  0  0  0  0  0
   -0.7150   -1.2312   -0.6539 H   0  0  0  0  0  0  0  0  0  0  0  0
    0.5562   -0.3561    0.2084 H   0  0  0  0  0  0  0  0  0  0  0  0
    0.0085   -2.2456    1.0929 C   0  0  0  0  0  0  0  0  0  0  0  0
    0.3908   -1.9982    2.0842 H   0  0  0  0  0  0  0  0  0  0  0  0
   -0.8852   -2.8621    1.1950 H   0  0  0  0  0  0  0  0  0  0  0  0
    1.0811   -3.0258    0.3208 C   0  0  0  0  0  0  0  0  0  0  0  0
    0.7001   -3.2460   -0.6791 H   0  0  0  0  0  0  0  0  0  0  0  0
    1.9698   -2.3970    0.2289 H   0  0  0  0  0  0  0  0  0  0  0  0
    1.4375   -4.2879    1.0012 N   0  3  0  0  0  0  0  0  0  0  0  0
    0.9911   -4.4665    1.8845 H   0  0  0  0  0  0  0  0  0  0  0  0
    2.2853   -5.2017    0.5593 C   0  0  0  0  0  0  0  0  0  0  0  0
    2.9184   -5.0701   -0.5726 N   0  0  0  0  0  0  0  0  0  0  0  0
    2.7542   -4.2479   -1.1260 H   0  0  0  0  0  0  0  0  0  0  0  0
    3.5588   -5.7729   -0.8932 H   0  0  0  0  0  0  0  0  0  0  0  0
    2.5172   -6.2782    1.2555 N   0  0  0  0  0  0  0  0  0  0  0  0
    2.0524   -6.4244    2.1350 H   0  0  0  0  0  0  0  0  0  0  0  0
    3.1610   -6.9689    0.9165 H   0  0  0  0  0  0  0  0  0  0  0  0
   -1.5875    1.2644    0.3857 C   0  0  0  0  0  0  0  0  0  0  0  0
   -2.5818    1.9368    0.6313 O   0  0  0  0  0  0  0  0  0  0  0  0
   -0.6353    1.6496   -0.4696 N   0  0  0  0  0  0  0  0  0  0  0  0
    0.1660    1.0506   -0.5837 H   0  0  0  0  0  0  0  0  0  0  0  0
   -0.6419    2.9294   -1.1801 C   0  0  0  0  0  0  0  0  0  0  0  0
   -0.5680    3.7501   -0.4634 H   0  0  0  0  0  0  0  0  0  0  0  0
    0.1998    2.9845   -1.8717 H   0  0  0  0  0  0  0  0  0  0  0  0
   -1.5739    3.0420   -1.7383 H   0  0  0  0  0  0  0  0  0  0  0  0
  5  6  2  0  0  0  0
  5  7  1  0  0  0  0
  2  3  1  0  0  0  0
  2  4  1  0  0  0  0
  2  5  1  0  0  0  0
  1  2  1  0  0  0  0
 29 30  2  0  0  0  0
 29 31  1  0  0  0  0
 26 27  1  0  0  0  0
 26 28  1  0  0  0  0
 23 24  1  0  0  0  0
 23 25  1  0  0  0  0
 22 23  1  0  0  0  0
 22 26  1  0  0  0  0
 20 21  1  0  0  0  0
 20 22  2  0  0  0  0
 17 18  1  0  0  0  0
 17 19  1  0  0  0  0
 17 20  1  0  0  0  0
 14 15  1  0  0  0  0
 14 16  1  0  0  0  0
 14 17  1  0  0  0  0
 11 12  1  0  0  0  0
 11 13  1  0  0  0  0
 11 14  1  0  0  0  0
  9 10  1  0  0  0  0
  9 11  1  0  0  0  0
  9 29  1  0  0  0  0
  7  8  1  0  0  0  0
  7  9  1  0  0  0  0
 33 34  1  0  0  0  0
 33 35  1  0  0  0  0
 33 36  1  0  0  0  0
 31 32  1  0  0  0  0
 31 33  1  0  0  0  0
M  CHG  1  20   1
M  END
$$$$
default_name
  -OEChem-01062215323D

 36 35  0     1  0  0  0  0  0999 V2000
   -4.2256   -3.6731    1.8584 H   0  0  0  0  0  0  0  0  0  0  0  0
   -4.2396   -2.6781    1.4144 C   0  0  0  0  0  0  0  0  0  0  0  0
   -4.9506   -2.0521    1.9514 H   0  0  0  0  0  0  0  0  0  0  0  0
   -4.5266   -2.7521    0.3674 H   0  0  0  0  0  0  0  0  0  0  0  0
   -2.8576   -2.0761    1.5184 C   0  0  0  0  0  0  0  0  0  0  0  0
   -1.9456   -2.7051    2.0404 O   0  0  0  0  0  0  0  0  0  0  0  0
   -2.6926   -0.8481    1.0174 N   0  0  0  0  0  0  0  0  0  0  0  0
   -3.4926   -0.3971    0.5954 H   0  0  0  0  0  0  0  0  0  0  0  0
   -1.4216   -0.1071    1.0434 C   0  0  1  0  0  0  0  0  0  0  0  0
   -1.1278    0.0355    2.0847 H   0  0  0  0  0  0  0  0  0  0  0  0
   -0.3467   -0.9571    0.3367 C   0  0  0  0  0  0  0  0  0  0  0  0
   -0.7150   -1.2312   -0.6539 H   0  0  0  0  0  0  0  0  0  0  0  0
    0.5562   -0.3561    0.2084 H   0  0  0  0  0  0  0  0  0  0  0  0
    0.0085   -2.2456    1.0929 C   0  0  0  0  0  0  0  0  0  0  0  0
    0.3908   -1.9982    2.0842 H   0  0  0  0  0  0  0  0  0  0  0  0
   -0.8852   -2.8621    1.1950 H   0  0  0  0  0  0  0  0  0  0  0  0
    1.0811   -3.0258    0.3208 C   0  0  0  0  0  0  0  0  0  0  0  0
    0.7001   -3.2460   -0.6791 H   0  0  0  0  0  0  0  0  0  0  0  0
    1.9698   -2.3970    0.2289 H   0  0  0  0  0  0  0  0  0  0  0  0
    1.4375   -4.2879    1.0012 N   0  3  0  0  0  0  0  0  0  0  0  0
    0.9911   -4.4665    1.8845 H   0  0  0  0  0  0  0  0  0  0  0  0
    2.2853   -5.2017    0.5593 C   0  0  0  0  0  0  0  0  0  0  0  0
    2.9184   -5.0701   -0.5726 N   0  0  0  0  0  0  0  0  0  0  0  0
    2.7542   -4.2479   -1.1260 H   0  0  0  0  0  0  0  0  0  0  0  0
    3.5588   -5.7729   -0.8932 H   0  0  0  0  0  0  0  0  0  0  0  0
    2.5172   -6.2782    1.2555 N   0  0  0  0  0  0  0  0  0  0  0  0
    2.0524   -6.4244    2.1350 H   0  0  0  0  0  0  0  0  0  0  0  0
    3.1610   -6.9689    0.9165 H   0  0  0  0  0  0  0  0  0  0  0  0
   -1.5875    1.2644    0.3857 C   0  0  0  0  0  0  0  0  0  0  0  0
   -2.4184    2.0499    0.8258 O   0  0  0  0  0  0  0  0  0  0  0  0
   -0.8256    1.5251   -0.6811 N   0  0  0  0  0  0  0  0  0  0  0  0
   -0.1426    0.8366   -0.9519 H   0  0  0  0  0  0  0  0  0  0  0  0
   -0.8597    2.7865   -1.4231 C   0  0  0  0  0  0  0  0  0  0  0  0
   -0.5324    3.6039   -0.7771 H   0  0  0  0  0  0  0  0  0  0  0  0
   -0.2020    2.7345   -2.2917 H   0  0  0  0  0  0  0  0  0  0  0  0
   -1.8786    2.9968   -1.7556 H   0  0  0  0  0  0  0  0  0  0  0  0
  5  6  2  0  0  0  0
  5  7  1  0  0  0  0
  2  3  1  0  0  0  0
  2  4  1  0  0  0  0
  2  5  1  0  0  0  0
  1  2  1  0  0  0  0
 29 30  2  0  0  0  0
 29 31  1  0  0  0  0
 26 27  1  0  0  0  0
 26 28  1  0  0  0  0
 23 24  1  0  0  0  0
 23 25  1  0  0  0  0
 22 23  1  0  0  0  0
 22 26  1  0  0  0  0
 20 21  1  0  0  0  0
 20 22  2  0  0  0  0
 17 18  1  0  0  0  0
 17 19  1  0  0  0  0
 17 20  1  0  0  0  0
 14 15  1  0  0  0  0
 14 16  1  0  0  0  0
 14 17  1  0  0  0  0
 11 12  1  0  0  0  0
 11 13  1  0  0  0  0
 11 14  1  0  0  0  0
  9 10  1  0  0  0  0
  9 11  1  0  0  0  0
  9 29  1  0  0  0  0
  7  8  1  0  0  0  0
  7  9  1  0  0  0  0
 33 34  1  0  0  0  0
 33 35  1  0  0  0  0
 33 36  1  0  0  0  0
 31 32  1  0  0  0  0
 31 33  1  0  0  0  0
M  CHG  1  20   1
M  END
$$$$
default_name
  -OEChem-01062215323D

 36 35  0     1  0  0  0  0  0999 V2000
   -4.2256   -3.6731    1.8584 H   0  0  0  0  0  0  0  0  0  0  0  0
   -4.2396   -2.6781    1.4144 C   0  0  0  0  0  0  0  0  0  0  0  0
   -4.9506   -2.0521    1.9514 H   0  0  0  0  0  0  0  0  0  0  0  0
   -4.5266   -2.7521    0.3674 H   0  0  0  0  0  0  0  0  0  0  0  0
   -2.8576   -2.0761    1.5184 C   0  0  0  0  0  0  0  0  0  0  0  0
   -1.9456   -2.7051    2.0404 O   0  0  0  0  0  0  0  0  0  0  0  0
   -2.6926   -0.8481    1.0174 N   0  0  0  0  0  0  0  0  0  0  0  0
   -3.4926   -0.3971    0.5954 H   0  0  0  0  0  0  0  0  0  0  0  0
   -1.4216   -0.1071    1.0434 C   0  0  1  0  0  0  0  0  0  0  0  0
   -1.1278    0.0355    2.0847 H   0  0  0  0  0  0  0  0  0  0  0  0
   -0.3467   -0.9571    0.3367 C   0  0  0  0  0  0  0  0  0  0  0  0
   -0.7150   -1.2312   -0.6539 H   0  0  0  0  0  0  0  0  0  0  0  0
    0.5562   -0.3561    0.2084 H   0  0  0  0  0  0  0  0  0  0  0  0
    0.0085   -2.2456    1.0929 C   0  0  0  0  0  0  0  0  0  0  0  0
    0.3908   -1.9982    2.0842 H   0  0  0  0  0  0  0  0  0  0  0  0
   -0.8852   -2.8621    1.1950 H   0  0  0  0  0  0  0  0  0  0  0  0
    1.0811   -3.0258    0.3208 C   0  0  0  0  0  0  0  0  0  0  0  0
    0.7001   -3.2460   -0.6791 H   0  0  0  0  0  0  0  0  0  0  0  0
    1.9698   -2.3970    0.2289 H   0  0  0  0  0  0  0  0  0  0  0  0
    1.4375   -4.2879    1.0012 N   0  3  0  0  0  0  0  0  0  0  0  0
    0.9911   -4.4665    1.8845 H   0  0  0  0  0  0  0  0  0  0  0  0
    2.2853   -5.2017    0.5593 C   0  0  0  0  0  0  0  0  0  0  0  0
    2.9184   -5.0701   -0.5726 N   0  0  0  0  0  0  0  0  0  0  0  0
    2.7542   -4.2479   -1.1260 H   0  0  0  0  0  0  0  0  0  0  0  0
    3.5588   -5.7729   -0.8932 H   0  0  0  0  0  0  0  0  0  0  0  0
    2.5172   -6.2782    1.2555 N   0  0  0  0  0  0  0  0  0  0  0  0
    2.0524   -6.4244    2.1350 H   0  0  0  0  0  0  0  0  0  0  0  0
    3.1610   -6.9689    0.9165 H   0  0  0  0  0  0  0  0  0  0  0  0
   -1.5875    1.2644    0.3857 C   0  0  0  0  0  0  0  0  0  0  0  0
   -2.2028    2.1464    0.9727 O   0  0  0  0  0  0  0  0  0  0  0  0
   -1.0723    1.4201   -0.8378 N   0  0  0  0  0  0  0  0  0  0  0  0
   -0.5499    0.6540   -1.2301 H   0  0  0  0  0  0  0  0  0  0  0  0
   -1.1425    2.6659   -1.6033 C   0  0  0  0  0  0  0  0  0  0  0  0
   -0.5870    3.4500   -1.0843 H   0  0  0  0  0  0  0  0  0  0  0  0
   -0.7153    2.5259   -2.5971 H   0  0  0  0  0  0  0  0  0  0  0  0
   -2.1820    2.9866   -1.7005 H   0  0  0  0  0  0  0  0  0  0  0  0
  5  6  2  0  0  0  0
  5  7  1  0  0  0  0
  2  3  1  0  0  0  0
  2  4  1  0  0  0  0
  2  5  1  0  0  0  0
  1  2  1  0  0  0  0
 29 30  2  0  0  0  0
 29 31  1  0  0  0  0
 26 27  1  0  0  0  0
 26 28  1  0  0  0  0
 23 24  1  0  0  0  0
 23 25  1  0  0  0  0
 22 23  1  0  0  0  0
 22 26  1  0  0  0  0
 20 21  1  0  0  0  0
 20 22  2  0  0  0  0
 17 18  1  0  0  0  0
 17 19  1  0  0  0  0
 17 20  1  0  0  0  0
 14 15  1  0  0  0  0
 14 16  1  0  0  0  0
 14 17  1  0  0  0  0
 11 12  1  0  0  0  0
 11 13  1  0  0  0  0
 11 14  1  0  0  0  0
  9 10  1  0  0  0  0
  9 11  1  0  0  0  0
  9 29  1  0  0  0  0
  7  8  1  0  0  0  0
  7  9  1  0  0  0  0
 33 34  1  0  0  0  0
 33 35  1  0  0  0  0
 33 36  1  0  0  0  0
 31 32  1  0  0  0  0
 31 33  1  0  0  0  0
M  CHG  1  20   1
M  END
$$$$
default_name
  -OEChem-01062215323D

 36 35  0     1  0  0  0  0  0999 V2000
   -4.2256   -3.6731    1.8584 H   0  0  0  0  0  0  0  0  0  0  0  0
   -4.2396   -2.6781    1.4144 C   0  0  0  0  0  0  0  0  0  0  0  0
   -4.9506   -2.0521    1.9514 H   0  0  0  0  0  0  0  0  0  0  0  0
   -4.5266   -2.7521    0.3674 H   0  0  0  0  0  0  0  0  0  0  0  0
   -2.8576   -2.0761    1.5184 C   0  0  0  0  0  0  0  0  0  0  0  0
   -1.9456   -2.7051    2.0404 O   0  0  0  0  0  0  0  0  0  0  0  0
   -2.6926   -0.8481    1.0174 N   0  0  0  0  0  0  0  0  0  0  0  0
   -3.4926   -0.3971    0.5954 H   0  0  0  0  0  0  0  0  0  0  0  0
   -1.4216   -0.1071    1.0434 C   0  0  1  0  0  0  0  0  0  0  0  0
   -1.1278    0.0355    2.0847 H   0  0  0  0  0  0  0  0  0  0  0  0
   -0.3467   -0.9571    0.3367 C   0  0  0  0  0  0  0  0  0  0  0  0
   -0.7150   -1.2312   -0.6539 H   0  0  0  0  0  0  0  0  0  0  0  0
    0.5562   -0.3561    0.2084 H   0  0  0  0  0  0  0  0  0  0  0  0
    0.0085   -2.2456    1.0929 C   0  0  0  0  0  0  0  0  0  0  0  0
    0.3908   -1.9982    2.0842 H   0  0  0  0  0  0  0  0  0  0  0  0
   -0.8852   -2.8621    1.1950 H   0  0  0  0  0  0  0  0  0  0  0  0
    1.0811   -3.0258    0.3208 C   0  0  0  0  0  0  0  0  0  0  0  0
    0.7001   -3.2460   -0.6791 H   0  0  0  0  0  0  0  0  0  0  0  0
    1.9698   -2.3970    0.2289 H   0  0  0  0  0  0  0  0  0  0  0  0
    1.4375   -4.2879    1.0012 N   0  3  0  0  0  0  0  0  0  0  0  0
    0.9911   -4.4665    1.8845 H   0  0  0  0  0  0  0  0  0  0  0  0
    2.2853   -5.2017    0.5593 C   0  0  0  0  0  0  0  0  0  0  0  0
    2.9184   -5.0701   -0.5726 N   0  0  0  0  0  0  0  0  0  0  0  0
    2.7542   -4.2479   -1.1260 H   0  0  0  0  0  0  0  0  0  0  0  0
    3.5588   -5.7729   -0.8932 H   0  0  0  0  0  0  0  0  0  0  0  0
    2.5172   -6.2782    1.2555 N   0  0  0  0  0  0  0  0  0  0  0  0
    2.0524   -6.4244    2.1350 H   0  0  0  0  0  0  0  0  0  0  0  0
    3.1610   -6.9689    0.9165 H   0  0  0  0  0  0  0  0  0  0  0  0
   -1.5875    1.2644    0.3857 C   0  0  0  0  0  0  0  0  0  0  0  0
   -1.9498    2.2198    1.0618 O   0  0  0  0  0  0  0  0  0  0  0  0
   -1.3587    1.3418   -0.9289 N   0  0  0  0  0  0  0  0  0  0  0  0
   -1.0281    0.5150   -1.3991 H   0  0  0  0  0  0  0  0  0  0  0  0
   -1.4708    2.5758   -1.7083 C   0  0  0  0  0  0  0  0  0  0  0  0
   -0.7282    3.2988   -1.3641 H   0  0  0  0  0  0  0  0  0  0  0  0
   -1.3053    2.3729   -2.7672 H   0  0  0  0  0  0  0  0  0  0  0  0
   -2.4634    3.0120   -1.5765 H   0  0  0  0  0  0  0  0  0  0  0  0
  5  6  2  0  0  0  0
  5  7  1  0  0  0  0
  2  3  1  0  0  0  0
  2  4  1  0  0  0  0
  2  5  1  0  0  0  0
  1  2  1  0  0  0  0
 29 30  2  0  0  0  0
 29 31  1  0  0  0  0
 26 27  1  0  0  0  0
 26 28  1  0  0  0  0
 23 24  1  0  0  0  0
 23 25  1  0  0  0  0
 22 23  1  0  0  0  0
 22 26  1  0  0  0  0
 20 21  1  0  0  0  0
 20 22  2  0  0  0  0
 17 18  1  0  0  0  0
 17 19  1  0  0  0  0
 17 20  1  0  0  0  0
 14 15  1  0  0  0  0
 14 16  1  0  0  0  0
 14 17  1  0  0  0  0
 11 12  1  0  0  0  0
 11 13  1  0  0  0  0
 11 14  1  0  0  0  0
  9 10  1  0  0  0  0
  9 11  1  0  0  0  0
  9 29  1  0  0  0  0
  7  8  1  0  0  0  0
  7  9  1  0  0  0  0
 33 34  1  0  0  0  0
 33 35  1  0  0  0  0
 33 36  1  0  0  0  0
 31 32  1  0  0  0  0
 31 33  1  0  0  0  0
M  CHG  1  20   1
M  END
$$$$
default_name
  -OEChem-01062215323D

 36 35  0     1  0  0  0  0  0999 V2000
   -4.2256   -3.6731    1.8584 H   0  0  0  0  0  0  0  0  0  0  0  0
   -4.2396   -2.6781    1.4144 C   0  0  0  0  0  0  0  0  0  0  0  0
   -4.9506   -2.0521    1.9514 H   0  0  0  0  0  0  0  0  0  0  0  0
   -4.5266   -2.7521    0.3674 H   0  0  0  0  0  0  0  0  0  0  0  0
   -2.8576   -2.0761    1.5184 C   0  0  0  0  0  0  0  0  0  0  0  0
   -1.9456   -2.7051    2.0404 O   0  0  0  0  0  0  0  0  0  0  0  0
   -2.6926   -0.8481    1.0174 N   0  0  0  0  0  0  0  0  0  0  0  0
   -3.4926   -0.3971    0.5954 H   0  0  0  0  0  0  0  0  0  0  0  0
   -1.4216   -0.1071    1.0434 C   0  0  1  0  0  0  0  0  0  0  0  0
   -1.1278    0.0355    2.0847 H   0  0  0  0  0  0  0  0  0  0  0  0
   -0.3467   -0.9571    0.3367 C   0  0  0  0  0  0  0  0  0  0  0  0
   -0.7150   -1.2312   -0.6539 H   0  0  0  0  0  0  0  0  0  0  0  0
    0.5562   -0.3561    0.2084 H   0  0  0  0  0  0  0  0  0  0  0  0
    0.0085   -2.2456    1.0929 C   0  0  0  0  0  0  0  0  0  0  0  0
    0.3908   -1.9982    2.0842 H   0  0  0  0  0  0  0  0  0  0  0  0
   -0.8852   -2.8621    1.1950 H   0  0  0  0  0  0  0  0  0  0  0  0
    1.0811   -3.0258    0.3208 C   0  0  0  0  0  0  0  0  0  0  0  0
    0.7001   -3.2460   -0.6791 H   0  0  0  0  0  0  0  0  0  0  0  0
    1.9698   -2.3970    0.2289 H   0  0  0  0  0  0  0  0  0  0  0  0
    1.4375   -4.2879    1.0012 N   0  3  0  0  0  0  0  0  0  0  0  0
    0.9911   -4.4665    1.8845 H   0  0  0  0  0  0  0  0  0  0  0  0
    2.2853   -5.2017    0.5593 C   0  0  0  0  0  0  0  0  0  0  0  0
    2.9184   -5.0701   -0.5726 N   0  0  0  0  0  0  0  0  0  0  0  0
    2.7542   -4.2479   -1.1260 H   0  0  0  0  0  0  0  0  0  0  0  0
    3.5588   -5.7729   -0.8932 H   0  0  0  0  0  0  0  0  0  0  0  0
    2.5172   -6.2782    1.2555 N   0  0  0  0  0  0  0  0  0  0  0  0
    2.0524   -6.4244    2.1350 H   0  0  0  0  0  0  0  0  0  0  0  0
    3.1610   -6.9689    0.9165 H   0  0  0  0  0  0  0  0  0  0  0  0
   -1.5875    1.2644    0.3857 C   0  0  0  0  0  0  0  0  0  0  0  0
   -1.6765    2.2650    1.0871 O   0  0  0  0  0  0  0  0  0  0  0  0
   -1.6651    1.2954   -0.9483 N   0  0  0  0  0  0  0  0  0  0  0  0
   -1.5448    0.4293   -1.4475 H   0  0  0  0  0  0  0  0  0  0  0  0
   -1.8223    2.5224   -1.7311 C   0  0  0  0  0  0  0  0  0  0  0  0
   -0.9462    3.1605   -1.5973 H   0  0  0  0  0  0  0  0  0  0  0  0
   -1.9316    2.2860   -2.7903 H   0  0  0  0  0  0  0  0  0  0  0  0
   -2.7036    3.0713   -1.3922 H   0  0  0  0  0  0  0  0  0  0  0  0
  5  6  2  0  0  0  0
  5  7  1  0  0  0  0
  2  3  1  0  0  0  0
  2  4  1  0  0  0  0
  2  5  1  0  0  0  0
  1  2  1  0  0  0  0
 29 30  2  0  0  0  0
 29 31  1  0  0  0  0
 26 27  1  0  0  0  0
 26 28  1  0  0  0  0
 23 24  1  0  0  0  0
 23 25  1  0  0  0  0
 22 23  1  0  0  0  0
 22 26  1  0  0  0  0
 20 21  1  0  0  0  0
 20 22  2  0  0  0  0
 17 18  1  0  0  0  0
 17 19  1  0  0  0  0
 17 20  1  0  0  0  0
 14 15  1  0  0  0  0
 14 16  1  0  0  0  0
 14 17  1  0  0  0  0
 11 12  1  0  0  0  0
 11 13  1  0  0  0  0
 11 14  1  0  0  0  0
  9 10  1  0  0  0  0
  9 11  1  0  0  0  0
  9 29  1  0  0  0  0
  7  8  1  0  0  0  0
  7  9  1  0  0  0  0
 33 34  1  0  0  0  0
 33 35  1  0  0  0  0
 33 36  1  0  0  0  0
 31 32  1  0  0  0  0
 31 33  1  0  0  0  0
M  CHG  1  20   1
M  END
$$$$
default_name
  -OEChem-01062215323D

 36 35  0     1  0  0  0  0  0999 V2000
   -4.2256   -3.6731    1.8584 H   0  0  0  0  0  0  0  0  0  0  0  0
   -4.2396   -2.6781    1.4144 C   0  0  0  0  0  0  0  0  0  0  0  0
   -4.9506   -2.0521    1.9514 H   0  0  0  0  0  0  0  0  0  0  0  0
   -4.5266   -2.7521    0.3674 H   0  0  0  0  0  0  0  0  0  0  0  0
   -2.8576   -2.0761    1.5184 C   0  0  0  0  0  0  0  0  0  0  0  0
   -1.9456   -2.7051    2.0404 O   0  0  0  0  0  0  0  0  0  0  0  0
   -2.6926   -0.8481    1.0174 N   0  0  0  0  0  0  0  0  0  0  0  0
   -3.4926   -0.3971    0.5954 H   0  0  0  0  0  0  0  0  0  0  0  0
   -1.4216   -0.1071    1.0434 C   0  0  1  0  0  0  0  0  0  0  0  0
   -1.1278    0.0355    2.0847 H   0  0  0  0  0  0  0  0  0  0  0  0
   -0.3467   -0.9571    0.3367 C   0  0  0  0  0  0  0  0  0  0  0  0
   -0.7150   -1.2312   -0.6539 H   0  0  0  0  0  0  0  0  0  0  0  0
    0.5562   -0.3561    0.2084 H   0  0  0  0  0  0  0  0  0  0  0  0
    0.0085   -2.2456    1.0929 C   0  0  0  0  0  0  0  0  0  0  0  0
    0.3908   -1.9982    2.0842 H   0  0  0  0  0  0  0  0  0  0  0  0
   -0.8852   -2.8621    1.1950 H   0  0  0  0  0  0  0  0  0  0  0  0
    1.0811   -3.0258    0.3208 C   0  0  0  0  0  0  0  0  0  0  0  0
    0.7001   -3.2460   -0.6791 H   0  0  0  0  0  0  0  0  0  0  0  0
    1.9698   -2.3970    0.2289 H   0  0  0  0  0  0  0  0  0  0  0  0
    1.4375   -4.2879    1.0012 N   0  3  0  0  0  0  0  0  0  0  0  0
    0.9911   -4.4665    1.8845 H   0  0  0  0  0  0  0  0  0  0  0  0
    2.2853   -5.2017    0.5593 C   0  0  0  0  0  0  0  0  0  0  0  0
    2.9184   -5.0701   -0.5726 N   0  0  0  0  0  0  0  0  0  0  0  0
    2.7542   -4.2479   -1.1260 H   0  0  0  0  0  0  0  0  0  0  0  0
    3.5588   -5.7729   -0.8932 H   0  0  0  0  0  0  0  0  0  0  0  0
    2.5172   -6.2782    1.2555 N   0  0  0  0  0  0  0  0  0  0  0  0
    2.0524   -6.4244    2.1350 H   0  0  0  0  0  0  0  0  0  0  0  0
    3.1610   -6.9689    0.9165 H   0  0  0  0  0  0  0  0  0  0  0  0
   -1.5875    1.2644    0.3857 C   0  0  0  0  0  0  0  0  0  0  0  0
   -1.4017    2.2790    1.0469 O   0  0  0  0  0  0  0  0  0  0  0  0
   -1.9707    1.2841   -0.8947 N   0  0  0  0  0  0  0  0  0  0  0  0
   -2.0646    0.4026   -1.3721 H   0  0  0  0  0  0  0  0  0  0  0  0
   -2.1730    2.5092   -1.6700 C   0  0  0  0  0  0  0  0  0  0  0  0
   -1.2263    3.0447   -1.7681 H   0  0  0  0  0  0  0  0  0  0  0  0
   -2.5516    2.2711   -2.6649 H   0  0  0  0  0  0  0  0  0  0  0  0
   -2.8863    3.1605   -1.1601 H   0  0  0  0  0  0  0  0  0  0  0  0
  5  6  2  0  0  0  0
  5  7  1  0  0  0  0
  2  3  1  0  0  0  0
  2  4  1  0  0  0  0
  2  5  1  0  0  0  0
  1  2  1  0  0  0  0
 29 30  2  0  0  0  0
 29 31  1  0  0  0  0
 26 27  1  0  0  0  0
 26 28  1  0  0  0  0
 23 24  1  0  0  0  0
 23 25  1  0  0  0  0
 22 23  1  0  0  0  0
 22 26  1  0  0  0  0
 20 21  1  0  0  0  0
 20 22  2  0  0  0  0
 17 18  1  0  0  0  0
 17 19  1  0  0  0  0
 17 20  1  0  0  0  0
 14 15  1  0  0  0  0
 14 16  1  0  0  0  0
 14 17  1  0  0  0  0
 11 12  1  0  0  0  0
 11 13  1  0  0  0  0
 11 14  1  0  0  0  0
  9 10  1  0  0  0  0
  9 11  1  0  0  0  0
  9 29  1  0  0  0  0
  7  8  1  0  0  0  0
  7  9  1  0  0  0  0
 33 34  1  0  0  0  0
 33 35  1  0  0  0  0
 33 36  1  0  0  0  0
 31 32  1  0  0  0  0
 31 33  1  0  0  0  0
M  CHG  1  20   1
M  END
$$$$
default_name
  -OEChem-01062215323D

 36 35  0     1  0  0  0  0  0999 V2000
   -4.2256   -3.6731    1.8584 H   0  0  0  0  0  0  0  0  0  0  0  0
   -4.2396   -2.6781    1.4144 C   0  0  0  0  0  0  0  0  0  0  0  0
   -4.9506   -2.0521    1.9514 H   0  0  0  0  0  0  0  0  0  0  0  0
   -4.5266   -2.7521    0.3674 H   0  0  0  0  0  0  0  0  0  0  0  0
   -2.8576   -2.0761    1.5184 C   0  0  0  0  0  0  0  0  0  0  0  0
   -1.9456   -2.7051    2.0404 O   0  0  0  0  0  0  0  0  0  0  0  0
   -2.6926   -0.8481    1.0174 N   0  0  0  0  0  0  0  0  0  0  0  0
   -3.4926   -0.3971    0.5954 H   0  0  0  0  0  0  0  0  0  0  0  0
   -1.4216   -0.1071    1.0434 C   0  0  1  0  0  0  0  0  0  0  0  0
   -1.1278    0.0355    2.0847 H   0  0  0  0  0  0  0  0  0  0  0  0
   -0.3467   -0.9571    0.3367 C   0  0  0  0  0  0  0  0  0  0  0  0
   -0.7150   -1.2312   -0.6539 H   0  0  0  0  0  0  0  0  0  0  0  0
    0.5562   -0.3561    0.2084 H   0  0  0  0  0  0  0  0  0  0  0  0
    0.0085   -2.2456    1.0929 C   0  0  0  0  0  0  0  0  0  0  0  0
    0.3908   -1.9982    2.0842 H   0  0  0  0  0  0  0  0  0  0  0  0
   -0.8852   -2.8621    1.1950 H   0  0  0  0  0  0  0  0  0  0  0  0
    1.0811   -3.0258    0.3208 C   0  0  0  0  0  0  0  0  0  0  0  0
    0.7001   -3.2460   -0.6791 H   0  0  0  0  0  0  0  0  0  0  0  0
    1.9698   -2.3970    0.2289 H   0  0  0  0  0  0  0  0  0  0  0  0
    1.4375   -4.2879    1.0012 N   0  3  0  0  0  0  0  0  0  0  0  0
    0.9911   -4.4665    1.8845 H   0  0  0  0  0  0  0  0  0  0  0  0
    2.2853   -5.2017    0.5593 C   0  0  0  0  0  0  0  0  0  0  0  0
    2.9184   -5.0701   -0.5726 N   0  0  0  0  0  0  0  0  0  0  0  0
    2.7542   -4.2479   -1.1260 H   0  0  0  0  0  0  0  0  0  0  0  0
    3.5588   -5.7729   -0.8932 H   0  0  0  0  0  0  0  0  0  0  0  0
    2.5172   -6.2782    1.2555 N   0  0  0  0  0  0  0  0  0  0  0  0
    2.0524   -6.4244    2.1350 H   0  0  0  0  0  0  0  0  0  0  0  0
    3.1610   -6.9689    0.9165 H   0  0  0  0  0  0  0  0  0  0  0  0
   -1.5875    1.2644    0.3857 C   0  0  0  0  0  0  0  0  0  0  0  0
   -1.1440    2.2608    0.9439 O   0  0  0  0  0  0  0  0  0  0  0  0
   -2.2548    1.3088   -0.7716 N   0  0  0  0  0  0  0  0  0  0  0  0
   -2.5521    0.4367   -1.1778 H   0  0  0  0  0  0  0  0  0  0  0  0
   -2.4992    2.5372   -1.5293 C   0  0  0  0  0  0  0  0  0  0  0  0
   -1.5494    2.9593   -1.8648 H   0  0  0  0  0  0  0  0  0  0  0  0
   -3.1230    2.3293   -2.3995 H   0  0  0  0  0  0  0  0  0  0  0  0
   -2.9990    3.2735   -0.8961 H   0  0  0  0  0  0  0  0  0  0  0  0
  5  6  2  0  0  0  0
  5  7  1  0  0  0  0
  2  3  1  0  0  0  0
  2  4  1  0  0  0  0
  2  5  1  0  0  0  0
  1  2  1  0  0  0  0
 29 30  2  0  0  0  0
 29 31  1  0  0  0  0
 26 27  1  0  0  0  0
 26 28  1  0  0  0  0
 23 24  1  0  0  0  0
 23 25  1  0  0  0  0
 22 23  1  0  0  0  0
 22 26  1  0  0  0  0
 20 21  1  0  0  0  0
 20 22  2  0  0  0  0
 17 18  1  0  0  0  0
 17 19  1  0  0  0  0
 17 20  1  0  0  0  0
 14 15  1  0  0  0  0
 14 16  1  0  0  0  0
 14 17  1  0  0  0  0
 11 12  1  0  0  0  0
 11 13  1  0  0  0  0
 11 14  1  0  0  0  0
  9 10  1  0  0  0  0
  9 11  1  0  0  0  0
  9 29  1  0  0  0  0
  7  8  1  0  0  0  0
  7  9  1  0  0  0  0
 33 34  1  0  0  0  0
 33 35  1  0  0  0  0
 33 36  1  0  0  0  0
 31 32  1  0  0  0  0
 31 33  1  0  0  0  0
M  CHG  1  20   1
M  END
$$$$
default_name
  -OEChem-01062215323D

 36 35  0     1  0  0  0  0  0999 V2000
   -4.2256   -3.6731    1.8584 H   0  0  0  0  0  0  0  0  0  0  0  0
   -4.2396   -2.6781    1.4144 C   0  0  0  0  0  0  0  0  0  0  0  0
   -4.9506   -2.0521    1.9514 H   0  0  0  0  0  0  0  0  0  0  0  0
   -4.5266   -2.7521    0.3674 H   0  0  0  0  0  0  0  0  0  0  0  0
   -2.8576   -2.0761    1.5184 C   0  0  0  0  0  0  0  0  0  0  0  0
   -1.9456   -2.7051    2.0404 O   0  0  0  0  0  0  0  0  0  0  0  0
   -2.6926   -0.8481    1.0174 N   0  0  0  0  0  0  0  0  0  0  0  0
   -3.4926   -0.3971    0.5954 H   0  0  0  0  0  0  0  0  0  0  0  0
   -1.4216   -0.1071    1.0434 C   0  0  1  0  0  0  0  0  0  0  0  0
   -1.1278    0.0355    2.0847 H   0  0  0  0  0  0  0  0  0  0  0  0
   -0.3467   -0.9571    0.3367 C   0  0  0  0  0  0  0  0  0  0  0  0
   -0.7150   -1.2312   -0.6539 H   0  0  0  0  0  0  0  0  0  0  0  0
    0.5562   -0.3561    0.2084 H   0  0  0  0  0  0  0  0  0  0  0  0
    0.0085   -2.2456    1.0929 C   0  0  0  0  0  0  0  0  0  0  0  0
    0.3908   -1.9982    2.0842 H   0  0  0  0  0  0  0  0  0  0  0  0
   -0.8852   -2.8621    1.1950 H   0  0  0  0  0  0  0  0  0  0  0  0
    1.0811   -3.0258    0.3208 C   0  0  0  0  0  0  0  0  0  0  0  0
    0.7001   -3.2460   -0.6791 H   0  0  0  0  0  0  0  0  0  0  0  0
    1.9698   -2.3970    0.2289 H   0  0  0  0  0  0  0  0  0  0  0  0
    1.4375   -4.2879    1.0012 N   0  3  0  0  0  0  0  0  0  0  0  0
    0.9911   -4.4665    1.8845 H   0  0  0  0  0  0  0  0  0  0  0  0
    2.2853   -5.2017    0.5593 C   0  0  0  0  0  0  0  0  0  0  0  0
    2.9184   -5.0701   -0.5726 N   0  0  0  0  0  0  0  0  0  0  0  0
    2.7542   -4.2479   -1.1260 H   0  0  0  0  0  0  0  0  0  0  0  0
    3.5588   -5.7729   -0.8932 H   0  0  0  0  0  0  0  0  0  0  0  0
    2.5172   -6.2782    1.2555 N   0  0  0  0  0  0  0  0  0  0  0  0
    2.0524   -6.4244    2.1350 H   0  0  0  0  0  0  0  0  0  0  0  0
    3.1610   -6.9689    0.9165 H   0  0  0  0  0  0  0  0  0  0  0  0
   -1.5875    1.2644    0.3857 C   0  0  0  0  0  0  0  0  0  0  0  0
   -0.9210    2.2116    0.7852 O   0  0  0  0  0  0  0  0  0  0  0  0
   -2.4979    1.3676   -0.5876 N   0  0  0  0  0  0  0  0  0  0  0  0
   -2.9742    0.5294   -0.8780 H   0  0  0  0  0  0  0  0  0  0  0  0
   -2.7784    2.6045   -1.3185 C   0  0  0  0  0  0  0  0  0  0  0  0
   -1.8935    2.9099   -1.8809 H   0  0  0  0  0  0  0  0  0  0  0  0
   -3.6070    2.4564   -2.0122 H   0  0  0  0  0  0  0  0  0  0  0  0
   -3.0340    3.4026   -0.6180 H   0  0  0  0  0  0  0  0  0  0  0  0
  5  6  2  0  0  0  0
  5  7  1  0  0  0  0
  2  3  1  0  0  0  0
  2  4  1  0  0  0  0
  2  5  1  0  0  0  0
  1  2  1  0  0  0  0
 29 30  2  0  0  0  0
 29 31  1  0  0  0  0
 26 27  1  0  0  0  0
 26 28  1  0  0  0  0
 23 24  1  0  0  0  0
 23 25  1  0  0  0  0
 22 23  1  0  0  0  0
 22 26  1  0  0  0  0
 20 21  1  0  0  0  0
 20 22  2  0  0  0  0
 17 18  1  0  0  0  0
 17 19  1  0  0  0  0
 17 20  1  0  0  0  0
 14 15  1  0  0  0  0
 14 16  1  0  0  0  0
 14 17  1  0  0  0  0
 11 12  1  0  0  0  0
 11 13  1  0  0  0  0
 11 14  1  0  0  0  0
  9 10  1  0  0  0  0
  9 11  1  0  0  0  0
  9 29  1  0  0  0  0
  7  8  1  0  0  0  0
  7  9  1  0  0  0  0
 33 34  1  0  0  0  0
 33 35  1  0  0  0  0
 33 36  1  0  0  0  0
 31 32  1  0  0  0  0
 31 33  1  0  0  0  0
M  CHG  1  20   1
M  END
$$$$
default_name
  -OEChem-01062215323D

 36 35  0     1  0  0  0  0  0999 V2000
   -4.2256   -3.6731    1.8584 H   0  0  0  0  0  0  0  0  0  0  0  0
   -4.2396   -2.6781    1.4144 C   0  0  0  0  0  0  0  0  0  0  0  0
   -4.9506   -2.0521    1.9514 H   0  0  0  0  0  0  0  0  0  0  0  0
   -4.5266   -2.7521    0.3674 H   0  0  0  0  0  0  0  0  0  0  0  0
   -2.8576   -2.0761    1.5184 C   0  0  0  0  0  0  0  0  0  0  0  0
   -1.9456   -2.7051    2.0404 O   0  0  0  0  0  0  0  0  0  0  0  0
   -2.6926   -0.8481    1.0174 N   0  0  0  0  0  0  0  0  0  0  0  0
   -3.4926   -0.3971    0.5954 H   0  0  0  0  0  0  0  0  0  0  0  0
   -1.4216   -0.1071    1.0434 C   0  0  1  0  0  0  0  0  0  0  0  0
   -1.1278    0.0355    2.0847 H   0  0  0  0  0  0  0  0  0  0  0  0
   -0.3467   -0.9571    0.3367 C   0  0  0  0  0  0  0  0  0  0  0  0
   -0.7150   -1.2312   -0.6539 H   0  0  0  0  0  0  0  0  0  0  0  0
    0.5562   -0.3561    0.2084 H   0  0  0  0  0  0  0  0  0  0  0  0
    0.0085   -2.2456    1.0929 C   0  0  0  0  0  0  0  0  0  0  0  0
    0.3908   -1.9982    2.0842 H   0  0  0  0  0  0  0  0  0  0  0  0
   -0.8852   -2.8621    1.1950 H   0  0  0  0  0  0  0  0  0  0  0  0
    1.0811   -3.0258    0.3208 C   0  0  0  0  0  0  0  0  0  0  0  0
    0.7001   -3.2460   -0.6791 H   0  0  0  0  0  0  0  0  0  0  0  0
    1.9698   -2.3970    0.2289 H   0  0  0  0  0  0  0  0  0  0  0  0
    1.4375   -4.2879    1.0012 N   0  3  0  0  0  0  0  0  0  0  0  0
    0.9911   -4.4665    1.8845 H   0  0  0  0  0  0  0  0  0  0  0  0
    2.2853   -5.2017    0.5593 C   0  0  0  0  0  0  0  0  0  0  0  0
    2.9184   -5.0701   -0.5726 N   0  0  0  0  0  0  0  0  0  0  0  0
    2.7542   -4.2479   -1.1260 H   0  0  0  0  0  0  0  0  0  0  0  0
    3.5588   -5.7729   -0.8932 H   0  0  0  0  0  0  0  0  0  0  0  0
    2.5172   -6.2782    1.2555 N   0  0  0  0  0  0  0  0  0  0  0  0
    2.0524   -6.4244    2.1350 H   0  0  0  0  0  0  0  0  0  0  0  0
    3.1610   -6.9689    0.9165 H   0  0  0  0  0  0  0  0  0  0  0  0
   -1.5875    1.2644    0.3857 C   0  0  0  0  0  0  0  0  0  0  0  0
   -0.7479    2.1349    0.5815 O   0  0  0  0  0  0  0  0  0  0  0  0
   -2.6834    1.4567   -0.3550 N   0  0  0  0  0  0  0  0  0  0  0  0
   -3.3020    0.6743   -0.4931 H   0  0  0  0  0  0  0  0  0  0  0  0
   -2.9917    2.7065   -1.0520 C   0  0  0  0  0  0  0  0  0  0  0  0
   -2.2350    2.9001   -1.8153 H   0  0  0  0  0  0  0  0  0  0  0  0
   -3.9704    2.6440   -1.5294 H   0  0  0  0  0  0  0  0  0  0  0  0
   -2.9889    3.5390   -0.3450 H   0  0  0  0  0  0  0  0  0  0  0  0
  5  6  2  0  0  0  0
  5  7  1  0  0  0  0
  2  3  1  0  0  0  0
  2  4  1  0  0  0  0
  2  5  1  0  0  0  0
  1  2  1  0  0  0  0
 29 30  2  0  0  0  0
 29 31  1  0  0  0  0
 26 27  1  0  0  0  0
 26 28  1  0  0  0  0
 23 24  1  0  0  0  0
 23 25  1  0  0  0  0
 22 23  1  0  0  0  0
 22 26  1  0  0  0  0
 20 21  1  0  0  0  0
 20 22  2  0  0  0  0
 17 18  1  0  0  0  0
 17 19  1  0  0  0  0
 17 20  1  0  0  0  0
 14 15  1  0  0  0  0
 14 16  1  0  0  0  0
 14 17  1  0  0  0  0
 11 12  1  0  0  0  0
 11 13  1  0  0  0  0
 11 14  1  0  0  0  0
  9 10  1  0  0  0  0
  9 11  1  0  0  0  0
  9 29  1  0  0  0  0
  7  8  1  0  0  0  0
  7  9  1  0  0  0  0
 33 34  1  0  0  0  0
 33 35  1  0  0  0  0
 33 36  1  0  0  0  0
 31 32  1  0  0  0  0
 31 33  1  0  0  0  0
M  CHG  1  20   1
M  END
$$$$
default_name
  -OEChem-01062215323D

 36 35  0     1  0  0  0  0  0999 V2000
   -4.2256   -3.6731    1.8584 H   0  0  0  0  0  0  0  0  0  0  0  0
   -4.2396   -2.6781    1.4144 C   0  0  0  0  0  0  0  0  0  0  0  0
   -4.9506   -2.0521    1.9514 H   0  0  0  0  0  0  0  0  0  0  0  0
   -4.5266   -2.7521    0.3674 H   0  0  0  0  0  0  0  0  0  0  0  0
   -2.8576   -2.0761    1.5184 C   0  0  0  0  0  0  0  0  0  0  0  0
   -1.9456   -2.7051    2.0404 O   0  0  0  0  0  0  0  0  0  0  0  0
   -2.6926   -0.8481    1.0174 N   0  0  0  0  0  0  0  0  0  0  0  0
   -3.4926   -0.3971    0.5954 H   0  0  0  0  0  0  0  0  0  0  0  0
   -1.4216   -0.1071    1.0434 C   0  0  1  0  0  0  0  0  0  0  0  0
   -1.1278    0.0355    2.0847 H   0  0  0  0  0  0  0  0  0  0  0  0
   -0.3467   -0.9571    0.3367 C   0  0  0  0  0  0  0  0  0  0  0  0
   -0.7150   -1.2312   -0.6539 H   0  0  0  0  0  0  0  0  0  0  0  0
    0.5562   -0.3561    0.2084 H   0  0  0  0  0  0  0  0  0  0  0  0
    0.0085   -2.2456    1.0929 C   0  0  0  0  0  0  0  0  0  0  0  0
    0.3908   -1.9982    2.0842 H   0  0  0  0  0  0  0  0  0  0  0  0
   -0.8852   -2.8621    1.1950 H   0  0  0  0  0  0  0  0  0  0  0  0
    1.0811   -3.0258    0.3208 C   0  0  0  0  0  0  0  0  0  0  0  0
    0.7001   -3.2460   -0.6791 H   0  0  0  0  0  0  0  0  0  0  0  0
    1.9698   -2.3970    0.2289 H   0  0  0  0  0  0  0  0  0  0  0  0
    1.4375   -4.2879    1.0012 N   0  3  0  0  0  0  0  0  0  0  0  0
    0.9911   -4.4665    1.8845 H   0  0  0  0  0  0  0  0  0  0  0  0
    2.2853   -5.2017    0.5593 C   0  0  0  0  0  0  0  0  0  0  0  0
    2.9184   -5.0701   -0.5726 N   0  0  0  0  0  0  0  0  0  0  0  0
    2.7542   -4.2479   -1.1260 H   0  0  0  0  0  0  0  0  0  0  0  0
    3.5588   -5.7729   -0.8932 H   0  0  0  0  0  0  0  0  0  0  0  0
    2.5172   -6.2782    1.2555 N   0  0  0  0  0  0  0  0  0  0  0  0
    2.0524   -6.4244    2.1350 H   0  0  0  0  0  0  0  0  0  0  0  0
    3.1610   -6.9689    0.9165 H   0  0  0  0  0  0  0  0  0  0  0  0
   -1.5875    1.2644    0.3857 C   0  0  0  0  0  0  0  0  0  0  0  0
   -0.6365    2.0358    0.3467 O   0  0  0  0  0  0  0  0  0  0  0  0
   -2.7988    1.5699   -0.0899 N   0  0  0  0  0  0  0  0  0  0  0  0
   -3.5133    0.8616   -0.0494 H   0  0  0  0  0  0  0  0  0  0  0  0
   -3.1246    2.8362   -0.7479 C   0  0  0  0  0  0  0  0  0  0  0  0
   -2.5508    2.9304   -1.6723 H   0  0  0  0  0  0  0  0  0  0  0  0
   -4.1886    2.8791   -0.9840 H   0  0  0  0  0  0  0  0  0  0  0  0
   -2.8669    3.6734   -0.0955 H   0  0  0  0  0  0  0  0  0  0  0  0
  5  6  2  0  0  0  0
  5  7  1  0  0  0  0
  2  3  1  0  0  0  0
  2  4  1  0  0  0  0
  2  5  1  0  0  0  0
  1  2  1  0  0  0  0
 29 30  2  0  0  0  0
 29 31  1  0  0  0  0
 26 27  1  0  0  0  0
 26 28  1  0  0  0  0
 23 24  1  0  0  0  0
 23 25  1  0  0  0  0
 22 23  1  0  0  0  0
 22 26  1  0  0  0  0
 20 21  1  0  0  0  0
 20 22  2  0  0  0  0
 17 18  1  0  0  0  0
 17 19  1  0  0  0  0
 17 20  1  0  0  0  0
 14 15  1  0  0  0  0
 14 16  1  0  0  0  0
 14 17  1  0  0  0  0
 11 12  1  0  0  0  0
 11 13  1  0  0  0  0
 11 14  1  0  0  0  0
  9 10  1  0  0  0  0
  9 11  1  0  0  0  0
  9 29  1  0  0  0  0
  7  8  1  0  0  0  0
  7  9  1  0  0  0  0
 33 34  1  0  0  0  0
 33 35  1  0  0  0  0
 33 36  1  0  0  0  0
 31 32  1  0  0  0  0
 31 33  1  0  0  0  0
M  CHG  1  20   1
M  END
$$$$
default_name
  -OEChem-01062215323D

 36 35  0     1  0  0  0  0  0999 V2000
   -4.2256   -3.6731    1.8584 H   0  0  0  0  0  0  0  0  0  0  0  0
   -4.2396   -2.6781    1.4144 C   0  0  0  0  0  0  0  0  0  0  0  0
   -4.9506   -2.0521    1.9514 H   0  0  0  0  0  0  0  0  0  0  0  0
   -4.5266   -2.7521    0.3674 H   0  0  0  0  0  0  0  0  0  0  0  0
   -2.8576   -2.0761    1.5184 C   0  0  0  0  0  0  0  0  0  0  0  0
   -1.9456   -2.7051    2.0404 O   0  0  0  0  0  0  0  0  0  0  0  0
   -2.6926   -0.8481    1.0174 N   0  0  0  0  0  0  0  0  0  0  0  0
   -3.4926   -0.3971    0.5954 H   0  0  0  0  0  0  0  0  0  0  0  0
   -1.4216   -0.1071    1.0434 C   0  0  1  0  0  0  0  0  0  0  0  0
   -1.1278    0.0355    2.0847 H   0  0  0  0  0  0  0  0  0  0  0  0
   -0.3467   -0.9571    0.3367 C   0  0  0  0  0  0  0  0  0  0  0  0
   -0.7150   -1.2312   -0.6539 H   0  0  0  0  0  0  0  0  0  0  0  0
    0.5562   -0.3561    0.2084 H   0  0  0  0  0  0  0  0  0  0  0  0
    0.0085   -2.2456    1.0929 C   0  0  0  0  0  0  0  0  0  0  0  0
    0.3908   -1.9982    2.0842 H   0  0  0  0  0  0  0  0  0  0  0  0
   -0.8852   -2.8621    1.1950 H   0  0  0  0  0  0  0  0  0  0  0  0
    1.0811   -3.0258    0.3208 C   0  0  0  0  0  0  0  0  0  0  0  0
    0.7001   -3.2460   -0.6791 H   0  0  0  0  0  0  0  0  0  0  0  0
    1.9698   -2.3970    0.2289 H   0  0  0  0  0  0  0  0  0  0  0  0
    1.4375   -4.2879    1.0012 N   0  3  0  0  0  0  0  0  0  0  0  0
    0.9911   -4.4665    1.8845 H   0  0  0  0  0  0  0  0  0  0  0  0
    2.2853   -5.2017    0.5593 C   0  0  0  0  0  0  0  0  0  0  0  0
    2.9184   -5.0701   -0.5726 N   0  0  0  0  0  0  0  0  0  0  0  0
    2.7542   -4.2479   -1.1260 H   0  0  0  0  0  0  0  0  0  0  0  0
    3.5588   -5.7729   -0.8932 H   0  0  0  0  0  0  0  0  0  0  0  0
    2.5172   -6.2782    1.2555 N   0  0  0  0  0  0  0  0  0  0  0  0
    2.0524   -6.4244    2.1350 H   0  0  0  0  0  0  0  0  0  0  0  0
    3.1610   -6.9689    0.9165 H   0  0  0  0  0  0  0  0  0  0  0  0
   -1.5875    1.2644    0.3857 C   0  0  0  0  0  0  0  0  0  0  0  0
   -0.5943    1.9211    0.0969 O   0  0  0  0  0  0  0  0  0  0  0  0
   -2.8361    1.6995    0.1898 N   0  0  0  0  0  0  0  0  0  0  0  0
   -3.5935    1.0784    0.4230 H   0  0  0  0  0  0  0  0  0  0  0  0
   -3.1680    2.9849   -0.4271 C   0  0  0  0  0  0  0  0  0  0  0  0
   -2.8192    2.9988   -1.4619 H   0  0  0  0  0  0  0  0  0  0  0  0
   -4.2467    3.1458   -0.4132 H   0  0  0  0  0  0  0  0  0  0  0  0
   -2.6762    3.7966    0.1134 H   0  0  0  0  0  0  0  0  0  0  0  0
  5  6  2  0  0  0  0
  5  7  1  0  0  0  0
  2  3  1  0  0  0  0
  2  4  1  0  0  0  0
  2  5  1  0  0  0  0
  1  2  1  0  0  0  0
 29 30  2  0  0  0  0
 29 31  1  0  0  0  0
 26 27  1  0  0  0  0
 26 28  1  0  0  0  0
 23 24  1  0  0  0  0
 23 25  1  0  0  0  0
 22 23  1  0  0  0  0
 22 26  1  0  0  0  0
 20 21  1  0  0  0  0
 20 22  2  0  0  0  0
 17 18  1  0  0  0  0
 17 19  1  0  0  0  0
 17 20  1  0  0  0  0
 14 15  1  0  0  0  0
 14 16  1  0  0  0  0
 14 17  1  0  0  0  0
 11 12  1  0  0  0  0
 11 13  1  0  0  0  0
 11 14  1  0  0  0  0
  9 10  1  0  0  0  0
  9 11  1  0  0  0  0
  9 29  1  0  0  0  0
  7  8  1  0  0  0  0
  7  9  1  0  0  0  0
 33 34  1  0  0  0  0
 33 35  1  0  0  0  0
 33 36  1  0  0  0  0
 31 32  1  0  0  0  0
 31 33  1  0  0  0  0
M  CHG  1  20   1
M  END
$$$$
default_name
  -OEChem-01062215323D

 36 35  0     1  0  0  0  0  0999 V2000
   -4.2256   -3.6731    1.8584 H   0  0  0  0  0  0  0  0  0  0  0  0
   -4.2396   -2.6781    1.4144 C   0  0  0  0  0  0  0  0  0  0  0  0
   -4.9506   -2.0521    1.9514 H   0  0  0  0  0  0  0  0  0  0  0  0
   -4.5266   -2.7521    0.3674 H   0  0  0  0  0  0  0  0  0  0  0  0
   -2.8576   -2.0761    1.5184 C   0  0  0  0  0  0  0  0  0  0  0  0
   -1.9456   -2.7051    2.0404 O   0  0  0  0  0  0  0  0  0  0  0  0
   -2.6926   -0.8481    1.0174 N   0  0  0  0  0  0  0  0  0  0  0  0
   -3.4926   -0.3971    0.5954 H   0  0  0  0  0  0  0  0  0  0  0  0
   -1.4216   -0.1071    1.0434 C   0  0  1  0  0  0  0  0  0  0  0  0
   -1.1278    0.0355    2.0847 H   0  0  0  0  0  0  0  0  0  0  0  0
   -0.3467   -0.9571    0.3367 C   0  0  0  0  0  0  0  0  0  0  0  0
   -0.7150   -1.2312   -0.6539 H   0  0  0  0  0  0  0  0  0  0  0  0
    0.5562   -0.3561    0.2084 H   0  0  0  0  0  0  0  0  0  0  0  0
    0.0085   -2.2456    1.0929 C   0  0  0  0  0  0  0  0  0  0  0  0
    0.3908   -1.9982    2.0842 H   0  0  0  0  0  0  0  0  0  0  0  0
   -0.8852   -2.8621    1.1950 H   0  0  0  0  0  0  0  0  0  0  0  0
    1.0811   -3.0258    0.3208 C   0  0  0  0  0  0  0  0  0  0  0  0
    0.7001   -3.2460   -0.6791 H   0  0  0  0  0  0  0  0  0  0  0  0
    1.9698   -2.3970    0.2289 H   0  0  0  0  0  0  0  0  0  0  0  0
    1.4375   -4.2879    1.0012 N   0  3  0  0  0  0  0  0  0  0  0  0
    0.9911   -4.4665    1.8845 H   0  0  0  0  0  0  0  0  0  0  0  0
    2.2853   -5.2017    0.5593 C   0  0  0  0  0  0  0  0  0  0  0  0
    2.9184   -5.0701   -0.5726 N   0  0  0  0  0  0  0  0  0  0  0  0
    2.7542   -4.2479   -1.1260 H   0  0  0  0  0  0  0  0  0  0  0  0
    3.5588   -5.7729   -0.8932 H   0  0  0  0  0  0  0  0  0  0  0  0
    2.5172   -6.2782    1.2555 N   0  0  0  0  0  0  0  0  0  0  0  0
    2.0524   -6.4244    2.1350 H   0  0  0  0  0  0  0  0  0  0  0  0
    3.1610   -6.9689    0.9165 H   0  0  0  0  0  0  0  0  0  0  0  0
   -1.5875    1.2644    0.3857 C   0  0  0  0  0  0  0  0  0  0  0  0
   -0.6244    1.7986   -0.1510 O   0  0  0  0  0  0  0  0  0  0  0  0
   -2.7929    1.8367    0.4650 N   0  0  0  0  0  0  0  0  0  0  0  0
   -3.5374    1.3100    0.8919 H   0  0  0  0  0  0  0  0  0  0  0  0
   -3.1189    3.1423   -0.1112 C   0  0  0  0  0  0  0  0  0  0  0  0
   -3.0221    3.1007   -1.1982 H   0  0  0  0  0  0  0  0  0  0  0  0
   -4.1407    3.4259    0.1442 H   0  0  0  0  0  0  0  0  0  0  0  0
   -2.4298    3.9003    0.2674 H   0  0  0  0  0  0  0  0  0  0  0  0
  5  6  2  0  0  0  0
  5  7  1  0  0  0  0
  2  3  1  0  0  0  0
  2  4  1  0  0  0  0
  2  5  1  0  0  0  0
  1  2  1  0  0  0  0
 29 30  2  0  0  0  0
 29 31  1  0  0  0  0
 26 27  1  0  0  0  0
 26 28  1  0  0  0  0
 23 24  1  0  0  0  0
 23 25  1  0  0  0  0
 22 23  1  0  0  0  0
 22 26  1  0  0  0  0
 20 21  1  0  0  0  0
 20 22  2  0  0  0  0
 17 18  1  0  0  0  0
 17 19  1  0  0  0  0
 17 20  1  0  0  0  0
 14 15  1  0  0  0  0
 14 16  1  0  0  0  0
 14 17  1  0  0  0  0
 11 12  1  0  0  0  0
 11 13  1  0  0  0  0
 11 14  1  0  0  0  0
  9 10  1  0  0  0  0
  9 11  1  0  0  0  0
  9 29  1  0  0  0  0
  7  8  1  0  0  0  0
  7  9  1  0  0  0  0
 33 34  1  0  0  0  0
 33 35  1  0  0  0  0
 33 36  1  0  0  0  0
 31 32  1  0  0  0  0
 31 33  1  0  0  0  0
M  CHG  1  20   1
M  END
$$$$
default_name
  -OEChem-01062215323D

 36 35  0     1  0  0  0  0  0999 V2000
   -4.2256   -3.6731    1.8584 H   0  0  0  0  0  0  0  0  0  0  0  0
   -4.2396   -2.6781    1.4144 C   0  0  0  0  0  0  0  0  0  0  0  0
   -4.9506   -2.0521    1.9514 H   0  0  0  0  0  0  0  0  0  0  0  0
   -4.5266   -2.7521    0.3674 H   0  0  0  0  0  0  0  0  0  0  0  0
   -2.8576   -2.0761    1.5184 C   0  0  0  0  0  0  0  0  0  0  0  0
   -1.9456   -2.7051    2.0404 O   0  0  0  0  0  0  0  0  0  0  0  0
   -2.6926   -0.8481    1.0174 N   0  0  0  0  0  0  0  0  0  0  0  0
   -3.4926   -0.3971    0.5954 H   0  0  0  0  0  0  0  0  0  0  0  0
   -1.4216   -0.1071    1.0434 C   0  0  1  0  0  0  0  0  0  0  0  0
   -1.1278    0.0355    2.0847 H   0  0  0  0  0  0  0  0  0  0  0  0
   -0.3467   -0.9571    0.3367 C   0  0  0  0  0  0  0  0  0  0  0  0
   -0.7150   -1.2312   -0.6539 H   0  0  0  0  0  0  0  0  0  0  0  0
    0.5562   -0.3561    0.2084 H   0  0  0  0  0  0  0  0  0  0  0  0
    0.0085   -2.2456    1.0929 C   0  0  0  0  0  0  0  0  0  0  0  0
    0.3908   -1.9982    2.0842 H   0  0  0  0  0  0  0  0  0  0  0  0
   -0.8852   -2.8621    1.1950 H   0  0  0  0  0  0  0  0  0  0  0  0
    1.0811   -3.0258    0.3208 C   0  0  0  0  0  0  0  0  0  0  0  0
    0.7001   -3.2460   -0.6791 H   0  0  0  0  0  0  0  0  0  0  0  0
    1.9698   -2.3970    0.2289 H   0  0  0  0  0  0  0  0  0  0  0  0
    1.4375   -4.2879    1.0012 N   0  3  0  0  0  0  0  0  0  0  0  0
    0.9911   -4.4665    1.8845 H   0  0  0  0  0  0  0  0  0  0  0  0
    2.2853   -5.2017    0.5593 C   0  0  0  0  0  0  0  0  0  0  0  0
    2.9184   -5.0701   -0.5726 N   0  0  0  0  0  0  0  0  0  0  0  0
    2.7542   -4.2479   -1.1260 H   0  0  0  0  0  0  0  0  0  0  0  0
    3.5588   -5.7729   -0.8932 H   0  0  0  0  0  0  0  0  0  0  0  0
    2.5172   -6.2782    1.2555 N   0  0  0  0  0  0  0  0  0  0  0  0
    2.0524   -6.4244    2.1350 H   0  0  0  0  0  0  0  0  0  0  0  0
    3.1610   -6.9689    0.9165 H   0  0  0  0  0  0  0  0  0  0  0  0
   -1.5875    1.2644    0.3857 C   0  0  0  0  0  0  0  0  0  0  0  0
   -0.7245    1.6766   -0.3800 O   0  0  0  0  0  0  0  0  0  0  0  0
   -2.6720    1.9722    0.7169 N   0  0  0  0  0  0  0  0  0  0  0  0
   -3.3486    1.5407    1.3252 H   0  0  0  0  0  0  0  0  0  0  0  0
   -2.9807    3.2977    0.1780 C   0  0  0  0  0  0  0  0  0  0  0  0
   -3.1456    3.2291   -0.8994 H   0  0  0  0  0  0  0  0  0  0  0  0
   -3.8778    3.7004    0.6501 H   0  0  0  0  0  0  0  0  0  0  0  0
   -2.1446    3.9774    0.3562 H   0  0  0  0  0  0  0  0  0  0  0  0
  5  6  2  0  0  0  0
  5  7  1  0  0  0  0
  2  3  1  0  0  0  0
  2  4  1  0  0  0  0
  2  5  1  0  0  0  0
  1  2  1  0  0  0  0
 29 30  2  0  0  0  0
 29 31  1  0  0  0  0
 26 27  1  0  0  0  0
 26 28  1  0  0  0  0
 23 24  1  0  0  0  0
 23 25  1  0  0  0  0
 22 23  1  0  0  0  0
 22 26  1  0  0  0  0
 20 21  1  0  0  0  0
 20 22  2  0  0  0  0
 17 18  1  0  0  0  0
 17 19  1  0  0  0  0
 17 20  1  0  0  0  0
 14 15  1  0  0  0  0
 14 16  1  0  0  0  0
 14 17  1  0  0  0  0
 11 12  1  0  0  0  0
 11 13  1  0  0  0  0
 11 14  1  0  0  0  0
  9 10  1  0  0  0  0
  9 11  1  0  0  0  0
  9 29  1  0  0  0  0
  7  8  1  0  0  0  0
  7  9  1  0  0  0  0
 33 34  1  0  0  0  0
 33 35  1  0  0  0  0
 33 36  1  0  0  0  0
 31 32  1  0  0  0  0
 31 33  1  0  0  0  0
M  CHG  1  20   1
M  END
$$$$
default_name
  -OEChem-01062215323D

 36 35  0     1  0  0  0  0  0999 V2000
   -4.2256   -3.6731    1.8584 H   0  0  0  0  0  0  0  0  0  0  0  0
   -4.2396   -2.6781    1.4144 C   0  0  0  0  0  0  0  0  0  0  0  0
   -4.9506   -2.0521    1.9514 H   0  0  0  0  0  0  0  0  0  0  0  0
   -4.5266   -2.7521    0.3674 H   0  0  0  0  0  0  0  0  0  0  0  0
   -2.8576   -2.0761    1.5184 C   0  0  0  0  0  0  0  0  0  0  0  0
   -1.9456   -2.7051    2.0404 O   0  0  0  0  0  0  0  0  0  0  0  0
   -2.6926   -0.8481    1.0174 N   0  0  0  0  0  0  0  0  0  0  0  0
   -3.4926   -0.3971    0.5954 H   0  0  0  0  0  0  0  0  0  0  0  0
   -1.4216   -0.1071    1.0434 C   0  0  1  0  0  0  0  0  0  0  0  0
   -1.1278    0.0355    2.0847 H   0  0  0  0  0  0  0  0  0  0  0  0
   -0.3467   -0.9571    0.3367 C   0  0  0  0  0  0  0  0  0  0  0  0
   -0.7150   -1.2312   -0.6539 H   0  0  0  0  0  0  0  0  0  0  0  0
    0.5562   -0.3561    0.2084 H   0  0  0  0  0  0  0  0  0  0  0  0
    0.0085   -2.2456    1.0929 C   0  0  0  0  0  0  0  0  0  0  0  0
    0.3908   -1.9982    2.0842 H   0  0  0  0  0  0  0  0  0  0  0  0
   -0.8852   -2.8621    1.1950 H   0  0  0  0  0  0  0  0  0  0  0  0
    1.0811   -3.0258    0.3208 C   0  0  0  0  0  0  0  0  0  0  0  0
    0.7001   -3.2460   -0.6791 H   0  0  0  0  0  0  0  0  0  0  0  0
    1.9698   -2.3970    0.2289 H   0  0  0  0  0  0  0  0  0  0  0  0
    1.4375   -4.2879    1.0012 N   0  3  0  0  0  0  0  0  0  0  0  0
    0.9911   -4.4665    1.8845 H   0  0  0  0  0  0  0  0  0  0  0  0
    2.2853   -5.2017    0.5593 C   0  0  0  0  0  0  0  0  0  0  0  0
    2.9184   -5.0701   -0.5726 N   0  0  0  0  0  0  0  0  0  0  0  0
    2.7542   -4.2479   -1.1260 H   0  0  0  0  0  0  0  0  0  0  0  0
    3.5588   -5.7729   -0.8932 H   0  0  0  0  0  0  0  0  0  0  0  0
    2.5172   -6.2782    1.2555 N   0  0  0  0  0  0  0  0  0  0  0  0
    2.0524   -6.4244    2.1350 H   0  0  0  0  0  0  0  0  0  0  0  0
    3.1610   -6.9689    0.9165 H   0  0  0  0  0  0  0  0  0  0  0  0
   -1.5875    1.2644    0.3857 C   0  0  0  0  0  0  0  0  0  0  0  0
   -0.8879    1.5636   -0.5745 O   0  0  0  0  0  0  0  0  0  0  0  0
   -2.4817    2.0966    0.9285 N   0  0  0  0  0  0  0  0  0  0  0  0
   -3.0400    1.7546    1.6934 H   0  0  0  0  0  0  0  0  0  0  0  0
   -2.7628    3.4406    0.4210 C   0  0  0  0  0  0  0  0  0  0  0  0
   -3.1812    3.3752   -0.5856 H   0  0  0  0  0  0  0  0  0  0  0  0
   -3.4760    3.9504    1.0701 H   0  0  0  0  0  0  0  0  0  0  0  0
   -1.8399    4.0226    0.3736 H   0  0  0  0  0  0  0  0  0  0  0  0
  5  6  2  0  0  0  0
  5  7  1  0  0  0  0
  2  3  1  0  0  0  0
  2  4  1  0  0  0  0
  2  5  1  0  0  0  0
  1  2  1  0  0  0  0
 29 30  2  0  0  0  0
 29 31  1  0  0  0  0
 26 27  1  0  0  0  0
 26 28  1  0  0  0  0
 23 24  1  0  0  0  0
 23 25  1  0  0  0  0
 22 23  1  0  0  0  0
 22 26  1  0  0  0  0
 20 21  1  0  0  0  0
 20 22  2  0  0  0  0
 17 18  1  0  0  0  0
 17 19  1  0  0  0  0
 17 20  1  0  0  0  0
 14 15  1  0  0  0  0
 14 16  1  0  0  0  0
 14 17  1  0  0  0  0
 11 12  1  0  0  0  0
 11 13  1  0  0  0  0
 11 14  1  0  0  0  0
  9 10  1  0  0  0  0
  9 11  1  0  0  0  0
  9 29  1  0  0  0  0
  7  8  1  0  0  0  0
  7  9  1  0  0  0  0
 33 34  1  0  0  0  0
 33 35  1  0  0  0  0
 33 36  1  0  0  0  0
 31 32  1  0  0  0  0
 31 33  1  0  0  0  0
M  CHG  1  20   1
M  END
$$$$
default_name
  -OEChem-01062215323D

 36 35  0     1  0  0  0  0  0999 V2000
   -4.2256   -3.6731    1.8584 H   0  0  0  0  0  0  0  0  0  0  0  0
   -4.2396   -2.6781    1.4144 C   0  0  0  0  0  0  0  0  0  0  0  0
   -4.9506   -2.0521    1.9514 H   0  0  0  0  0  0  0  0  0  0  0  0
   -4.5266   -2.7521    0.3674 H   0  0  0  0  0  0  0  0  0  0  0  0
   -2.8576   -2.0761    1.5184 C   0  0  0  0  0  0  0  0  0  0  0  0
   -1.9456   -2.7051    2.0404 O   0  0  0  0  0  0  0  0  0  0  0  0
   -2.6926   -0.8481    1.0174 N   0  0  0  0  0  0  0  0  0  0  0  0
   -3.4926   -0.3971    0.5954 H   0  0  0  0  0  0  0  0  0  0  0  0
   -1.4216   -0.1071    1.0434 C   0  0  1  0  0  0  0  0  0  0  0  0
   -1.1278    0.0355    2.0847 H   0  0  0  0  0  0  0  0  0  0  0  0
   -0.3467   -0.9571    0.3367 C   0  0  0  0  0  0  0  0  0  0  0  0
   -0.7150   -1.2312   -0.6539 H   0  0  0  0  0  0  0  0  0  0  0  0
    0.5562   -0.3561    0.2084 H   0  0  0  0  0  0  0  0  0  0  0  0
    0.0085   -2.2456    1.0929 C   0  0  0  0  0  0  0  0  0  0  0  0
    0.3908   -1.9982    2.0842 H   0  0  0  0  0  0  0  0  0  0  0  0
   -0.8852   -2.8621    1.1950 H   0  0  0  0  0  0  0  0  0  0  0  0
    1.0811   -3.0258    0.3208 C   0  0  0  0  0  0  0  0  0  0  0  0
    0.7001   -3.2460   -0.6791 H   0  0  0  0  0  0  0  0  0  0  0  0
    1.9698   -2.3970    0.2289 H   0  0  0  0  0  0  0  0  0  0  0  0
    1.4375   -4.2879    1.0012 N   0  3  0  0  0  0  0  0  0  0  0  0
    0.9911   -4.4665    1.8845 H   0  0  0  0  0  0  0  0  0  0  0  0
    2.2853   -5.2017    0.5593 C   0  0  0  0  0  0  0  0  0  0  0  0
    2.9184   -5.0701   -0.5726 N   0  0  0  0  0  0  0  0  0  0  0  0
    2.7542   -4.2479   -1.1260 H   0  0  0  0  0  0  0  0  0  0  0  0
    3.5588   -5.7729   -0.8932 H   0  0  0  0  0  0  0  0  0  0  0  0
    2.5172   -6.2782    1.2555 N   0  0  0  0  0  0  0  0  0  0  0  0
    2.0524   -6.4244    2.1350 H   0  0  0  0  0  0  0  0  0  0  0  0
    3.1610   -6.9689    0.9165 H   0  0  0  0  0  0  0  0  0  0  0  0
   -1.5875    1.2644    0.3857 C   0  0  0  0  0  0  0  0  0  0  0  0
   -1.1035    1.4670   -0.7214 O   0  0  0  0  0  0  0  0  0  0  0  0
   -2.2350    2.2016    1.0851 N   0  0  0  0  0  0  0  0  0  0  0  0
   -2.6327    1.9373    1.9716 H   0  0  0  0  0  0  0  0  0  0  0  0
   -2.4801    3.5612    0.6012 C   0  0  0  0  0  0  0  0  0  0  0  0
   -3.1266    3.5292   -0.2784 H   0  0  0  0  0  0  0  0  0  0  0  0
   -2.9626    4.1590    1.3755 H   0  0  0  0  0  0  0  0  0  0  0  0
   -1.5365    4.0329    0.3184 H   0  0  0  0  0  0  0  0  0  0  0  0
  5  6  2  0  0  0  0
  5  7  1  0  0  0  0
  2  3  1  0  0  0  0
  2  4  1  0  0  0  0
  2  5  1  0  0  0  0
  1  2  1  0  0  0  0
 29 30  2  0  0  0  0
 29 31  1  0  0  0  0
 26 27  1  0  0  0  0
 26 28  1  0  0  0  0
 23 24  1  0  0  0  0
 23 25  1  0  0  0  0
 22 23  1  0  0  0  0
 22 26  1  0  0  0  0
 20 21  1  0  0  0  0
 20 22  2  0  0  0  0
 17 18  1  0  0  0  0
 17 19  1  0  0  0  0
 17 20  1  0  0  0  0
 14 15  1  0  0  0  0
 14 16  1  0  0  0  0
 14 17  1  0  0  0  0
 11 12  1  0  0  0  0
 11 13  1  0  0  0  0
 11 14  1  0  0  0  0
  9 10  1  0  0  0  0
  9 11  1  0  0  0  0
  9 29  1  0  0  0  0
  7  8  1  0  0  0  0
  7  9  1  0  0  0  0
 33 34  1  0  0  0  0
 33 35  1  0  0  0  0
 33 36  1  0  0  0  0
 31 32  1  0  0  0  0
 31 33  1  0  0  0  0
M  CHG  1  20   1
M  END
$$$$
default_name
  -OEChem-01062215323D

 36 35  0     1  0  0  0  0  0999 V2000
   -4.2256   -3.6731    1.8584 H   0  0  0  0  0  0  0  0  0  0  0  0
   -4.2396   -2.6781    1.4144 C   0  0  0  0  0  0  0  0  0  0  0  0
   -4.9506   -2.0521    1.9514 H   0  0  0  0  0  0  0  0  0  0  0  0
   -4.5266   -2.7521    0.3674 H   0  0  0  0  0  0  0  0  0  0  0  0
   -2.8576   -2.0761    1.5184 C   0  0  0  0  0  0  0  0  0  0  0  0
   -1.9456   -2.7051    2.0404 O   0  0  0  0  0  0  0  0  0  0  0  0
   -2.6926   -0.8481    1.0174 N   0  0  0  0  0  0  0  0  0  0  0  0
   -3.4926   -0.3971    0.5954 H   0  0  0  0  0  0  0  0  0  0  0  0
   -1.4216   -0.1071    1.0434 C   0  0  1  0  0  0  0  0  0  0  0  0
   -1.1278    0.0355    2.0847 H   0  0  0  0  0  0  0  0  0  0  0  0
   -0.3467   -0.9571    0.3367 C   0  0  0  0  0  0  0  0  0  0  0  0
   -0.7150   -1.2312   -0.6539 H   0  0  0  0  0  0  0  0  0  0  0  0
    0.5562   -0.3561    0.2084 H   0  0  0  0  0  0  0  0  0  0  0  0
    0.0085   -2.2456    1.0929 C   0  0  0  0  0  0  0  0  0  0  0  0
    0.3908   -1.9982    2.0842 H   0  0  0  0  0  0  0  0  0  0  0  0
   -0.8852   -2.8621    1.1950 H   0  0  0  0  0  0  0  0  0  0  0  0
    1.0811   -3.0258    0.3208 C   0  0  0  0  0  0  0  0  0  0  0  0
    0.7001   -3.2460   -0.6791 H   0  0  0  0  0  0  0  0  0  0  0  0
    1.9698   -2.3970    0.2289 H   0  0  0  0  0  0  0  0  0  0  0  0
    1.4375   -4.2879    1.0012 N   0  3  0  0  0  0  0  0  0  0  0  0
    0.9911   -4.4665    1.8845 H   0  0  0  0  0  0  0  0  0  0  0  0
    2.2853   -5.2017    0.5593 C   0  0  0  0  0  0  0  0  0  0  0  0
    2.9184   -5.0701   -0.5726 N   0  0  0  0  0  0  0  0  0  0  0  0
    2.7542   -4.2479   -1.1260 H   0  0  0  0  0  0  0  0  0  0  0  0
    3.5588   -5.7729   -0.8932 H   0  0  0  0  0  0  0  0  0  0  0  0
    2.5172   -6.2782    1.2555 N   0  0  0  0  0  0  0  0  0  0  0  0
    2.0524   -6.4244    2.1350 H   0  0  0  0  0  0  0  0  0  0  0  0
    3.1610   -6.9689    0.9165 H   0  0  0  0  0  0  0  0  0  0  0  0
   -1.5875    1.2644    0.3857 C   0  0  0  0  0  0  0  0  0  0  0  0
   -1.3565    1.3937   -0.8105 O   0  0  0  0  0  0  0  0  0  0  0  0
   -1.9487    2.2799    1.1762 N   0  0  0  0  0  0  0  0  0  0  0  0
   -2.1545    2.0762    2.1406 H   0  0  0  0  0  0  0  0  0  0  0  0
   -2.1518    3.6513    0.7062 C   0  0  0  0  0  0  0  0  0  0  0  0
   -2.9854    3.6804    0.0013 H   0  0  0  0  0  0  0  0  0  0  0  0
   -2.3727    4.3119    1.5456 H   0  0  0  0  0  0  0  0  0  0  0  0
   -1.2551    4.0075    0.1945 H   0  0  0  0  0  0  0  0  0  0  0  0
  5  6  2  0  0  0  0
  5  7  1  0  0  0  0
  2  3  1  0  0  0  0
  2  4  1  0  0  0  0
  2  5  1  0  0  0  0
  1  2  1  0  0  0  0
 29 30  2  0  0  0  0
 29 31  1  0  0  0  0
 26 27  1  0  0  0  0
 26 28  1  0  0  0  0
 23 24  1  0  0  0  0
 23 25  1  0  0  0  0
 22 23  1  0  0  0  0
 22 26  1  0  0  0  0
 20 21  1  0  0  0  0
 20 22  2  0  0  0  0
 17 18  1  0  0  0  0
 17 19  1  0  0  0  0
 17 20  1  0  0  0  0
 14 15  1  0  0  0  0
 14 16  1  0  0  0  0
 14 17  1  0  0  0  0
 11 12  1  0  0  0  0
 11 13  1  0  0  0  0
 11 14  1  0  0  0  0
  9 10  1  0  0  0  0
  9 11  1  0  0  0  0
  9 29  1  0  0  0  0
  7  8  1  0  0  0  0
  7  9  1  0  0  0  0
 33 34  1  0  0  0  0
 33 35  1  0  0  0  0
 33 36  1  0  0  0  0
 31 32  1  0  0  0  0
 31 33  1  0  0  0  0
M  CHG  1  20   1
M  END
$$$$
default_name
  -OEChem-01062215323D

 36 35  0     1  0  0  0  0  0999 V2000
   -4.2256   -3.6731    1.8584 H   0  0  0  0  0  0  0  0  0  0  0  0
   -4.2396   -2.6781    1.4144 C   0  0  0  0  0  0  0  0  0  0  0  0
   -4.9506   -2.0521    1.9514 H   0  0  0  0  0  0  0  0  0  0  0  0
   -4.5266   -2.7521    0.3674 H   0  0  0  0  0  0  0  0  0  0  0  0
   -2.8576   -2.0761    1.5184 C   0  0  0  0  0  0  0  0  0  0  0  0
   -1.9456   -2.7051    2.0404 O   0  0  0  0  0  0  0  0  0  0  0  0
   -2.6926   -0.8481    1.0174 N   0  0  0  0  0  0  0  0  0  0  0  0
   -3.4926   -0.3971    0.5954 H   0  0  0  0  0  0  0  0  0  0  0  0
   -1.4216   -0.1071    1.0434 C   0  0  1  0  0  0  0  0  0  0  0  0
   -1.1278    0.0355    2.0847 H   0  0  0  0  0  0  0  0  0  0  0  0
   -0.3467   -0.9571    0.3367 C   0  0  0  0  0  0  0  0  0  0  0  0
   -0.7150   -1.2312   -0.6539 H   0  0  0  0  0  0  0  0  0  0  0  0
    0.5562   -0.3561    0.2084 H   0  0  0  0  0  0  0  0  0  0  0  0
    0.0085   -2.2456    1.0929 C   0  0  0  0  0  0  0  0  0  0  0  0
    0.3908   -1.9982    2.0842 H   0  0  0  0  0  0  0  0  0  0  0  0
   -0.8852   -2.8621    1.1950 H   0  0  0  0  0  0  0  0  0  0  0  0
    1.0811   -3.0258    0.3208 C   0  0  0  0  0  0  0  0  0  0  0  0
    0.7001   -3.2460   -0.6791 H   0  0  0  0  0  0  0  0  0  0  0  0
    1.9698   -2.3970    0.2289 H   0  0  0  0  0  0  0  0  0  0  0  0
    1.4375   -4.2879    1.0012 N   0  3  0  0  0  0  0  0  0  0  0  0
    0.9911   -4.4665    1.8845 H   0  0  0  0  0  0  0  0  0  0  0  0
    2.2853   -5.2017    0.5593 C   0  0  0  0  0  0  0  0  0  0  0  0
    2.9184   -5.0701   -0.5726 N   0  0  0  0  0  0  0  0  0  0  0  0
    2.7542   -4.2479   -1.1260 H   0  0  0  0  0  0  0  0  0  0  0  0
    3.5588   -5.7729   -0.8932 H   0  0  0  0  0  0  0  0  0  0  0  0
    2.5172   -6.2782    1.2555 N   0  0  0  0  0  0  0  0  0  0  0  0
    2.0524   -6.4244    2.1350 H   0  0  0  0  0  0  0  0  0  0  0  0
    3.1610   -6.9689    0.9165 H   0  0  0  0  0  0  0  0  0  0  0  0
   -1.5875    1.2644    0.3857 C   0  0  0  0  0  0  0  0  0  0  0  0
   -1.6298    1.3485   -0.8358 O   0  0  0  0  0  0  0  0  0  0  0  0
   -1.6422    2.3263    1.1957 N   0  0  0  0  0  0  0  0  0  0  0  0
   -1.6378    2.1619    2.1890 H   0  0  0  0  0  0  0  0  0  0  0  0
   -1.8003    3.7048    0.7290 C   0  0  0  0  0  0  0  0  0  0  0  0
   -2.7674    3.8186    0.2345 H   0  0  0  0  0  0  0  0  0  0  0  0
   -1.7464    4.3988    1.5687 H   0  0  0  0  0  0  0  0  0  0  0  0
   -1.0149    3.9482    0.0101 H   0  0  0  0  0  0  0  0  0  0  0  0
  5  6  2  0  0  0  0
  5  7  1  0  0  0  0
  2  3  1  0  0  0  0
  2  4  1  0  0  0  0
  2  5  1  0  0  0  0
  1  2  1  0  0  0  0
 29 30  2  0  0  0  0
 29 31  1  0  0  0  0
 26 27  1  0  0  0  0
 26 28  1  0  0  0  0
 23 24  1  0  0  0  0
 23 25  1  0  0  0  0
 22 23  1  0  0  0  0
 22 26  1  0  0  0  0
 20 21  1  0  0  0  0
 20 22  2  0  0  0  0
 17 18  1  0  0  0  0
 17 19  1  0  0  0  0
 17 20  1  0  0  0  0
 14 15  1  0  0  0  0
 14 16  1  0  0  0  0
 14 17  1  0  0  0  0
 11 12  1  0  0  0  0
 11 13  1  0  0  0  0
 11 14  1  0  0  0  0
  9 10  1  0  0  0  0
  9 11  1  0  0  0  0
  9 29  1  0  0  0  0
  7  8  1  0  0  0  0
  7  9  1  0  0  0  0
 33 34  1  0  0  0  0
 33 35  1  0  0  0  0
 33 36  1  0  0  0  0
 31 32  1  0  0  0  0
 31 33  1  0  0  0  0
M  CHG  1  20   1
M  END
$$$$
default_name
  -OEChem-01062215323D

 36 35  0     1  0  0  0  0  0999 V2000
   -4.2256   -3.6731    1.8584 H   0  0  0  0  0  0  0  0  0  0  0  0
   -4.2396   -2.6781    1.4144 C   0  0  0  0  0  0  0  0  0  0  0  0
   -4.9506   -2.0521    1.9514 H   0  0  0  0  0  0  0  0  0  0  0  0
   -4.5266   -2.7521    0.3674 H   0  0  0  0  0  0  0  0  0  0  0  0
   -2.8576   -2.0761    1.5184 C   0  0  0  0  0  0  0  0  0  0  0  0
   -1.9456   -2.7051    2.0404 O   0  0  0  0  0  0  0  0  0  0  0  0
   -2.6926   -0.8481    1.0174 N   0  0  0  0  0  0  0  0  0  0  0  0
   -3.4926   -0.3971    0.5954 H   0  0  0  0  0  0  0  0  0  0  0  0
   -1.4216   -0.1071    1.0434 C   0  0  1  0  0  0  0  0  0  0  0  0
   -1.1278    0.0355    2.0847 H   0  0  0  0  0  0  0  0  0  0  0  0
   -0.3467   -0.9571    0.3367 C   0  0  0  0  0  0  0  0  0  0  0  0
   -0.7150   -1.2312   -0.6539 H   0  0  0  0  0  0  0  0  0  0  0  0
    0.5562   -0.3561    0.2084 H   0  0  0  0  0  0  0  0  0  0  0  0
    0.0085   -2.2456    1.0929 C   0  0  0  0  0  0  0  0  0  0  0  0
    0.3908   -1.9982    2.0842 H   0  0  0  0  0  0  0  0  0  0  0  0
   -0.8852   -2.8621    1.1950 H   0  0  0  0  0  0  0  0  0  0  0  0
    1.0811   -3.0258    0.3208 C   0  0  0  0  0  0  0  0  0  0  0  0
    0.7001   -3.2460   -0.6791 H   0  0  0  0  0  0  0  0  0  0  0  0
    1.9698   -2.3970    0.2289 H   0  0  0  0  0  0  0  0  0  0  0  0
    1.4375   -4.2879    1.0012 N   0  3  0  0  0  0  0  0  0  0  0  0
    0.9911   -4.4665    1.8845 H   0  0  0  0  0  0  0  0  0  0  0  0
    2.2853   -5.2017    0.5593 C   0  0  0  0  0  0  0  0  0  0  0  0
    2.9184   -5.0701   -0.5726 N   0  0  0  0  0  0  0  0  0  0  0  0
    2.7542   -4.2479   -1.1260 H   0  0  0  0  0  0  0  0  0  0  0  0
    3.5588   -5.7729   -0.8932 H   0  0  0  0  0  0  0  0  0  0  0  0
    2.5172   -6.2782    1.2555 N   0  0  0  0  0  0  0  0  0  0  0  0
    2.0524   -6.4244    2.1350 H   0  0  0  0  0  0  0  0  0  0  0  0
    3.1610   -6.9689    0.9165 H   0  0  0  0  0  0  0  0  0  0  0  0
   -1.5875    1.2644    0.3857 C   0  0  0  0  0  0  0  0  0  0  0  0
   -1.9046    1.3345   -0.7956 O   0  0  0  0  0  0  0  0  0  0  0  0
   -1.3366    2.3376    1.1420 N   0  0  0  0  0  0  0  0  0  0  0  0
   -1.1180    2.1887    2.1136 H   0  0  0  0  0  0  0  0  0  0  0  0
   -1.4495    3.7179    0.6679 C   0  0  0  0  0  0  0  0  0  0  0  0
   -2.4872    3.9344    0.4053 H   0  0  0  0  0  0  0  0  0  0  0  0
   -1.1264    4.4137    1.4433 H   0  0  0  0  0  0  0  0  0  0  0  0
   -0.8322    3.8590   -0.2219 H   0  0  0  0  0  0  0  0  0  0  0  0
  5  6  2  0  0  0  0
  5  7  1  0  0  0  0
  2  3  1  0  0  0  0
  2  4  1  0  0  0  0
  2  5  1  0  0  0  0
  1  2  1  0  0  0  0
 29 30  2  0  0  0  0
 29 31  1  0  0  0  0
 26 27  1  0  0  0  0
 26 28  1  0  0  0  0
 23 24  1  0  0  0  0
 23 25  1  0  0  0  0
 22 23  1  0  0  0  0
 22 26  1  0  0  0  0
 20 21  1  0  0  0  0
 20 22  2  0  0  0  0
 17 18  1  0  0  0  0
 17 19  1  0  0  0  0
 17 20  1  0  0  0  0
 14 15  1  0  0  0  0
 14 16  1  0  0  0  0
 14 17  1  0  0  0  0
 11 12  1  0  0  0  0
 11 13  1  0  0  0  0
 11 14  1  0  0  0  0
  9 10  1  0  0  0  0
  9 11  1  0  0  0  0
  9 29  1  0  0  0  0
  7  8  1  0  0  0  0
  7  9  1  0  0  0  0
 33 34  1  0  0  0  0
 33 35  1  0  0  0  0
 33 36  1  0  0  0  0
 31 32  1  0  0  0  0
 31 33  1  0  0  0  0
M  CHG  1  20   1
M  END
$$$$
default_name
  -OEChem-01062215323D

 36 35  0     1  0  0  0  0  0999 V2000
   -4.2256   -3.6731    1.8584 H   0  0  0  0  0  0  0  0  0  0  0  0
   -4.2396   -2.6781    1.4144 C   0  0  0  0  0  0  0  0  0  0  0  0
   -4.9506   -2.0521    1.9514 H   0  0  0  0  0  0  0  0  0  0  0  0
   -4.5266   -2.7521    0.3674 H   0  0  0  0  0  0  0  0  0  0  0  0
   -2.8576   -2.0761    1.5184 C   0  0  0  0  0  0  0  0  0  0  0  0
   -1.9456   -2.7051    2.0404 O   0  0  0  0  0  0  0  0  0  0  0  0
   -2.6926   -0.8481    1.0174 N   0  0  0  0  0  0  0  0  0  0  0  0
   -3.4926   -0.3971    0.5954 H   0  0  0  0  0  0  0  0  0  0  0  0
   -1.4216   -0.1071    1.0434 C   0  0  1  0  0  0  0  0  0  0  0  0
   -1.1278    0.0355    2.0847 H   0  0  0  0  0  0  0  0  0  0  0  0
   -0.3467   -0.9571    0.3367 C   0  0  0  0  0  0  0  0  0  0  0  0
   -0.7150   -1.2312   -0.6539 H   0  0  0  0  0  0  0  0  0  0  0  0
    0.5562   -0.3561    0.2084 H   0  0  0  0  0  0  0  0  0  0  0  0
    0.0085   -2.2456    1.0929 C   0  0  0  0  0  0  0  0  0  0  0  0
    0.3908   -1.9982    2.0842 H   0  0  0  0  0  0  0  0  0  0  0  0
   -0.8852   -2.8621    1.1950 H   0  0  0  0  0  0  0  0  0  0  0  0
    1.0811   -3.0258    0.3208 C   0  0  0  0  0  0  0  0  0  0  0  0
    0.7001   -3.2460   -0.6791 H   0  0  0  0  0  0  0  0  0  0  0  0
    1.9698   -2.3970    0.2289 H   0  0  0  0  0  0  0  0  0  0  0  0
    1.4375   -4.2879    1.0012 N   0  3  0  0  0  0  0  0  0  0  0  0
    0.9911   -4.4665    1.8845 H   0  0  0  0  0  0  0  0  0  0  0  0
    2.2853   -5.2017    0.5593 C   0  0  0  0  0  0  0  0  0  0  0  0
    2.9184   -5.0701   -0.5726 N   0  0  0  0  0  0  0  0  0  0  0  0
    2.7542   -4.2479   -1.1260 H   0  0  0  0  0  0  0  0  0  0  0  0
    3.5588   -5.7729   -0.8932 H   0  0  0  0  0  0  0  0  0  0  0  0
    2.5172   -6.2782    1.2555 N   0  0  0  0  0  0  0  0  0  0  0  0
    2.0524   -6.4244    2.1350 H   0  0  0  0  0  0  0  0  0  0  0  0
    3.1610   -6.9689    0.9165 H   0  0  0  0  0  0  0  0  0  0  0  0
   -1.5875    1.2644    0.3857 C   0  0  0  0  0  0  0  0  0  0  0  0
   -2.1623    1.3527   -0.6926 O   0  0  0  0  0  0  0  0  0  0  0  0
   -1.0525    2.3130    1.0190 N   0  0  0  0  0  0  0  0  0  0  0  0
   -0.6305    2.1545    1.9193 H   0  0  0  0  0  0  0  0  0  0  0  0
   -1.1234    3.6899    0.5272 C   0  0  0  0  0  0  0  0  0  0  0  0
   -2.1642    4.0199    0.5021 H   0  0  0  0  0  0  0  0  0  0  0  0
   -0.5549    4.3556    1.1779 H   0  0  0  0  0  0  0  0  0  0  0  0
   -0.7195    3.7460   -0.4860 H   0  0  0  0  0  0  0  0  0  0  0  0
  5  6  2  0  0  0  0
  5  7  1  0  0  0  0
  2  3  1  0  0  0  0
  2  4  1  0  0  0  0
  2  5  1  0  0  0  0
  1  2  1  0  0  0  0
 29 30  2  0  0  0  0
 29 31  1  0  0  0  0
 26 27  1  0  0  0  0
 26 28  1  0  0  0  0
 23 24  1  0  0  0  0
 23 25  1  0  0  0  0
 22 23  1  0  0  0  0
 22 26  1  0  0  0  0
 20 21  1  0  0  0  0
 20 22  2  0  0  0  0
 17 18  1  0  0  0  0
 17 19  1  0  0  0  0
 17 20  1  0  0  0  0
 14 15  1  0  0  0  0
 14 16  1  0  0  0  0
 14 17  1  0  0  0  0
 11 12  1  0  0  0  0
 11 13  1  0  0  0  0
 11 14  1  0  0  0  0
  9 10  1  0  0  0  0
  9 11  1  0  0  0  0
  9 29  1  0  0  0  0
  7  8  1  0  0  0  0
  7  9  1  0  0  0  0
 33 34  1  0  0  0  0
 33 35  1  0  0  0  0
 33 36  1  0  0  0  0
 31 32  1  0  0  0  0
 31 33  1  0  0  0  0
M  CHG  1  20   1
M  END
$$$$
default_name
  -OEChem-01062215323D

 36 35  0     1  0  0  0  0  0999 V2000
   -4.2256   -3.6731    1.8584 H   0  0  0  0  0  0  0  0  0  0  0  0
   -4.2396   -2.6781    1.4144 C   0  0  0  0  0  0  0  0  0  0  0  0
   -4.9506   -2.0521    1.9514 H   0  0  0  0  0  0  0  0  0  0  0  0
   -4.5266   -2.7521    0.3674 H   0  0  0  0  0  0  0  0  0  0  0  0
   -2.8576   -2.0761    1.5184 C   0  0  0  0  0  0  0  0  0  0  0  0
   -1.9456   -2.7051    2.0404 O   0  0  0  0  0  0  0  0  0  0  0  0
   -2.6926   -0.8481    1.0174 N   0  0  0  0  0  0  0  0  0  0  0  0
   -3.4926   -0.3971    0.5954 H   0  0  0  0  0  0  0  0  0  0  0  0
   -1.4216   -0.1071    1.0434 C   0  0  1  0  0  0  0  0  0  0  0  0
   -1.1278    0.0355    2.0847 H   0  0  0  0  0  0  0  0  0  0  0  0
   -0.3467   -0.9571    0.3367 C   0  0  0  0  0  0  0  0  0  0  0  0
   -0.7150   -1.2312   -0.6539 H   0  0  0  0  0  0  0  0  0  0  0  0
    0.5562   -0.3561    0.2084 H   0  0  0  0  0  0  0  0  0  0  0  0
    0.0085   -2.2456    1.0929 C   0  0  0  0  0  0  0  0  0  0  0  0
    0.3908   -1.9982    2.0842 H   0  0  0  0  0  0  0  0  0  0  0  0
   -0.8852   -2.8621    1.1950 H   0  0  0  0  0  0  0  0  0  0  0  0
    1.0811   -3.0258    0.3208 C   0  0  0  0  0  0  0  0  0  0  0  0
    0.7001   -3.2460   -0.6791 H   0  0  0  0  0  0  0  0  0  0  0  0
    1.9698   -2.3970    0.2289 H   0  0  0  0  0  0  0  0  0  0  0  0
    1.4375   -4.2879    1.0012 N   0  3  0  0  0  0  0  0  0  0  0  0
    0.9911   -4.4665    1.8845 H   0  0  0  0  0  0  0  0  0  0  0  0
    2.2853   -5.2017    0.5593 C   0  0  0  0  0  0  0  0  0  0  0  0
    2.9184   -5.0701   -0.5726 N   0  0  0  0  0  0  0  0  0  0  0  0
    2.7542   -4.2479   -1.1260 H   0  0  0  0  0  0  0  0  0  0  0  0
    3.5588   -5.7729   -0.8932 H   0  0  0  0  0  0  0  0  0  0  0  0
    2.5172   -6.2782    1.2555 N   0  0  0  0  0  0  0  0  0  0  0  0
    2.0524   -6.4244    2.1350 H   0  0  0  0  0  0  0  0  0  0  0  0
    3.1610   -6.9689    0.9165 H   0  0  0  0  0  0  0  0  0  0  0  0
   -1.5875    1.2644    0.3857 C   0  0  0  0  0  0  0  0  0  0  0  0
   -2.3853    1.4018   -0.5339 O   0  0  0  0  0  0  0  0  0  0  0  0
   -0.8094    2.2541    0.8349 N   0  0  0  0  0  0  0  0  0  0  0  0
   -0.2084    2.0618    1.6195 H   0  0  0  0  0  0  0  0  0  0  0  0
   -0.8442    3.6226    0.3164 C   0  0  0  0  0  0  0  0  0  0  0  0
   -1.8201    4.0693    0.5182 H   0  0  0  0  0  0  0  0  0  0  0  0
   -0.0710    4.2284    0.7906 H   0  0  0  0  0  0  0  0  0  0  0  0
   -0.6845    3.6169   -0.7640 H   0  0  0  0  0  0  0  0  0  0  0  0
  5  6  2  0  0  0  0
  5  7  1  0  0  0  0
  2  3  1  0  0  0  0
  2  4  1  0  0  0  0
  2  5  1  0  0  0  0
  1  2  1  0  0  0  0
 29 30  2  0  0  0  0
 29 31  1  0  0  0  0
 26 27  1  0  0  0  0
 26 28  1  0  0  0  0
 23 24  1  0  0  0  0
 23 25  1  0  0  0  0
 22 23  1  0  0  0  0
 22 26  1  0  0  0  0
 20 21  1  0  0  0  0
 20 22  2  0  0  0  0
 17 18  1  0  0  0  0
 17 19  1  0  0  0  0
 17 20  1  0  0  0  0
 14 15  1  0  0  0  0
 14 16  1  0  0  0  0
 14 17  1  0  0  0  0
 11 12  1  0  0  0  0
 11 13  1  0  0  0  0
 11 14  1  0  0  0  0
  9 10  1  0  0  0  0
  9 11  1  0  0  0  0
  9 29  1  0  0  0  0
  7  8  1  0  0  0  0
  7  9  1  0  0  0  0
 33 34  1  0  0  0  0
 33 35  1  0  0  0  0
 33 36  1  0  0  0  0
 31 32  1  0  0  0  0
 31 33  1  0  0  0  0
M  CHG  1  20   1
M  END
$$$$
default_name
  -OEChem-01062215323D

 36 35  0     1  0  0  0  0  0999 V2000
   -4.2256   -3.6731    1.8584 H   0  0  0  0  0  0  0  0  0  0  0  0
   -4.2396   -2.6781    1.4144 C   0  0  0  0  0  0  0  0  0  0  0  0
   -4.9506   -2.0521    1.9514 H   0  0  0  0  0  0  0  0  0  0  0  0
   -4.5266   -2.7521    0.3674 H   0  0  0  0  0  0  0  0  0  0  0  0
   -2.8576   -2.0761    1.5184 C   0  0  0  0  0  0  0  0  0  0  0  0
   -1.9456   -2.7051    2.0404 O   0  0  0  0  0  0  0  0  0  0  0  0
   -2.6926   -0.8481    1.0174 N   0  0  0  0  0  0  0  0  0  0  0  0
   -3.4926   -0.3971    0.5954 H   0  0  0  0  0  0  0  0  0  0  0  0
   -1.4216   -0.1071    1.0434 C   0  0  1  0  0  0  0  0  0  0  0  0
   -1.1278    0.0355    2.0847 H   0  0  0  0  0  0  0  0  0  0  0  0
   -0.3467   -0.9571    0.3367 C   0  0  0  0  0  0  0  0  0  0  0  0
   -0.7150   -1.2312   -0.6539 H   0  0  0  0  0  0  0  0  0  0  0  0
    0.5562   -0.3561    0.2084 H   0  0  0  0  0  0  0  0  0  0  0  0
    0.0085   -2.2456    1.0929 C   0  0  0  0  0  0  0  0  0  0  0  0
    0.3908   -1.9982    2.0842 H   0  0  0  0  0  0  0  0  0  0  0  0
   -0.8852   -2.8621    1.1950 H   0  0  0  0  0  0  0  0  0  0  0  0
    1.0811   -3.0258    0.3208 C   0  0  0  0  0  0  0  0  0  0  0  0
    0.7001   -3.2460   -0.6791 H   0  0  0  0  0  0  0  0  0  0  0  0
    1.9698   -2.3970    0.2289 H   0  0  0  0  0  0  0  0  0  0  0  0
    1.4375   -4.2879    1.0012 N   0  3  0  0  0  0  0  0  0  0  0  0
    0.9911   -4.4665    1.8845 H   0  0  0  0  0  0  0  0  0  0  0  0
    2.2853   -5.2017    0.5593 C   0  0  0  0  0  0  0  0  0  0  0  0
    2.9184   -5.0701   -0.5726 N   0  0  0  0  0  0  0  0  0  0  0  0
    2.7542   -4.2479   -1.1260 H   0  0  0  0  0  0  0  0  0  0  0  0
    3.5588   -5.7729   -0.8932 H   0  0  0  0  0  0  0  0  0  0  0  0
    2.5172   -6.2782    1.2555 N   0  0  0  0  0  0  0  0  0  0  0  0
    2.0524   -6.4244    2.1350 H   0  0  0  0  0  0  0  0  0  0  0  0
    3.1610   -6.9689    0.9165 H   0  0  0  0  0  0  0  0  0  0  0  0
   -1.5875    1.2644    0.3857 C   0  0  0  0  0  0  0  0  0  0  0  0
   -2.5584    1.4786   -0.3302 O   0  0  0  0  0  0  0  0  0  0  0  0
   -0.6239    2.1650    0.6024 N   0  0  0  0  0  0  0  0  0  0  0  0
    0.1194    1.9169    1.2346 H   0  0  0  0  0  0  0  0  0  0  0  0
   -0.6309    3.5206    0.0499 C   0  0  0  0  0  0  0  0  0  0  0  0
   -1.4786    4.0791    0.4525 H   0  0  0  0  0  0  0  0  0  0  0  0
    0.2924    4.0409    0.3078 H   0  0  0  0  0  0  0  0  0  0  0  0
   -0.7295    3.4805   -1.0371 H   0  0  0  0  0  0  0  0  0  0  0  0
  5  6  2  0  0  0  0
  5  7  1  0  0  0  0
  2  3  1  0  0  0  0
  2  4  1  0  0  0  0
  2  5  1  0  0  0  0
  1  2  1  0  0  0  0
 29 30  2  0  0  0  0
 29 31  1  0  0  0  0
 26 27  1  0  0  0  0
 26 28  1  0  0  0  0
 23 24  1  0  0  0  0
 23 25  1  0  0  0  0
 22 23  1  0  0  0  0
 22 26  1  0  0  0  0
 20 21  1  0  0  0  0
 20 22  2  0  0  0  0
 17 18  1  0  0  0  0
 17 19  1  0  0  0  0
 17 20  1  0  0  0  0
 14 15  1  0  0  0  0
 14 16  1  0  0  0  0
 14 17  1  0  0  0  0
 11 12  1  0  0  0  0
 11 13  1  0  0  0  0
 11 14  1  0  0  0  0
  9 10  1  0  0  0  0
  9 11  1  0  0  0  0
  9 29  1  0  0  0  0
  7  8  1  0  0  0  0
  7  9  1  0  0  0  0
 33 34  1  0  0  0  0
 33 35  1  0  0  0  0
 33 36  1  0  0  0  0
 31 32  1  0  0  0  0
 31 33  1  0  0  0  0
M  CHG  1  20   1
M  END
$$$$
default_name
  -OEChem-01062215323D

 36 35  0     1  0  0  0  0  0999 V2000
   -4.2256   -3.6731    1.8584 H   0  0  0  0  0  0  0  0  0  0  0  0
   -4.2396   -2.6781    1.4144 C   0  0  0  0  0  0  0  0  0  0  0  0
   -4.9506   -2.0521    1.9514 H   0  0  0  0  0  0  0  0  0  0  0  0
   -4.5266   -2.7521    0.3674 H   0  0  0  0  0  0  0  0  0  0  0  0
   -2.8576   -2.0761    1.5184 C   0  0  0  0  0  0  0  0  0  0  0  0
   -1.9456   -2.7051    2.0404 O   0  0  0  0  0  0  0  0  0  0  0  0
   -2.6926   -0.8481    1.0174 N   0  0  0  0  0  0  0  0  0  0  0  0
   -3.4926   -0.3971    0.5954 H   0  0  0  0  0  0  0  0  0  0  0  0
   -1.4216   -0.1071    1.0434 C   0  0  1  0  0  0  0  0  0  0  0  0
   -0.9926   -0.1949    2.0430 H   0  0  0  0  0  0  0  0  0  0  0  0
   -0.4572   -0.7569    0.0310 C   0  0  0  0  0  0  0  0  0  0  0  0
   -0.9548   -0.8100   -0.9395 H   0  0  0  0  0  0  0  0  0  0  0  0
    0.4273   -0.1250   -0.0756 H   0  0  0  0  0  0  0  0  0  0  0  0
   -0.0193   -2.1746    0.4269 C   0  0  0  0  0  0  0  0  0  0  0  0
    0.4920   -2.1473    1.3901 H   0  0  0  0  0  0  0  0  0  0  0  0
   -0.8983   -2.8154    0.5035 H   0  0  0  0  0  0  0  0  0  0  0  0
    0.9350   -2.7417   -0.6329 C   0  0  0  0  0  0  0  0  0  0  0  0
    0.4242   -2.7405   -1.5985 H   0  0  0  0  0  0  0  0  0  0  0  0
    1.8104   -2.0911   -0.6962 H   0  0  0  0  0  0  0  0  0  0  0  0
    1.3644   -4.1167   -0.3044 N   0  3  0  0  0  0  0  0  0  0  0  0
    1.0356   -4.4966    0.5667 H   0  0  0  0  0  0  0  0  0  0  0  0
    2.1377   -4.8921   -1.0459 C   0  0  0  0  0  0  0  0  0  0  0  0
    2.6185   -4.4990   -2.1920 N   0  0  0  0  0  0  0  0  0  0  0  0
    2.3917   -3.5772   -2.5212 H   0  0  0  0  0  0  0  0  0  0  0  0
    3.2042   -5.0999   -2.7422 H   0  0  0  0  0  0  0  0  0  0  0  0
    2.4476   -6.0922   -0.6445 N   0  0  0  0  0  0  0  0  0  0  0  0
    2.1004   -6.4400    0.2326 H   0  0  0  0  0  0  0  0  0  0  0  0
    3.0345   -6.6772   -1.2101 H   0  0  0  0  0  0  0  0  0  0  0  0
   -1.6581    1.3731    0.7367 C   0  0  0  0  0  0  0  0  0  0  0  0
   -2.7908    1.7649    0.4826 O   0  0  0  0  0  0  0  0  0  0  0  0
   -0.5867    2.1723    0.7261 N   0  0  0  0  0  0  0  0  0  0  0  0
    0.3013    1.7733    0.9832 H   0  0  0  0  0  0  0  0  0  0  0  0
   -0.6399    3.6095    0.4532 C   0  0  0  0  0  0  0  0  0  0  0  0
   -1.2185    4.1119    1.2314 H   0  0  0  0  0  0  0  0  0  0  0  0
    0.3664    4.0297    0.4312 H   0  0  0  0  0  0  0  0  0  0  0  0
   -1.1260    3.7895   -0.5081 H   0  0  0  0  0  0  0  0  0  0  0  0
  5  6  2  0  0  0  0
  5  7  1  0  0  0  0
  2  3  1  0  0  0  0
  2  4  1  0  0  0  0
  2  5  1  0  0  0  0
  1  2  1  0  0  0  0
 29 30  2  0  0  0  0
 29 31  1  0  0  0  0
 26 27  1  0  0  0  0
 26 28  1  0  0  0  0
 23 24  1  0  0  0  0
 23 25  1  0  0  0  0
 22 23  1  0  0  0  0
 22 26  1  0  0  0  0
 20 21  1  0  0  0  0
 20 22  2  0  0  0  0
 17 18  1  0  0  0  0
 17 19  1  0  0  0  0
 17 20  1  0  0  0  0
 14 15  1  0  0  0  0
 14 16  1  0  0  0  0
 14 17  1  0  0  0  0
 11 12  1  0  0  0  0
 11 13  1  0  0  0  0
 11 14  1  0  0  0  0
  9 10  1  0  0  0  0
  9 11  1  0  0  0  0
  9 29  1  0  0  0  0
  7  8  1  0  0  0  0
  7  9  1  0  0  0  0
 33 34  1  0  0  0  0
 33 35  1  0  0  0  0
 33 36  1  0  0  0  0
 31 32  1  0  0  0  0
 31 33  1  0  0  0  0
M  CHG  1  20   1
M  END
$$$$
default_name
  -OEChem-01062215323D

 36 35  0     1  0  0  0  0  0999 V2000
   -4.2256   -3.6731    1.8584 H   0  0  0  0  0  0  0  0  0  0  0  0
   -4.2396   -2.6781    1.4144 C   0  0  0  0  0  0  0  0  0  0  0  0
   -4.9506   -2.0521    1.9514 H   0  0  0  0  0  0  0  0  0  0  0  0
   -4.5266   -2.7521    0.3674 H   0  0  0  0  0  0  0  0  0  0  0  0
   -2.8576   -2.0761    1.5184 C   0  0  0  0  0  0  0  0  0  0  0  0
   -1.9456   -2.7051    2.0404 O   0  0  0  0  0  0  0  0  0  0  0  0
   -2.6926   -0.8481    1.0174 N   0  0  0  0  0  0  0  0  0  0  0  0
   -3.4926   -0.3971    0.5954 H   0  0  0  0  0  0  0  0  0  0  0  0
   -1.4216   -0.1071    1.0434 C   0  0  1  0  0  0  0  0  0  0  0  0
   -0.9926   -0.1949    2.0430 H   0  0  0  0  0  0  0  0  0  0  0  0
   -0.4572   -0.7569    0.0310 C   0  0  0  0  0  0  0  0  0  0  0  0
   -0.9548   -0.8100   -0.9395 H   0  0  0  0  0  0  0  0  0  0  0  0
    0.4273   -0.1250   -0.0756 H   0  0  0  0  0  0  0  0  0  0  0  0
   -0.0193   -2.1746    0.4269 C   0  0  0  0  0  0  0  0  0  0  0  0
    0.4920   -2.1473    1.3901 H   0  0  0  0  0  0  0  0  0  0  0  0
   -0.8983   -2.8154    0.5035 H   0  0  0  0  0  0  0  0  0  0  0  0
    0.9350   -2.7417   -0.6329 C   0  0  0  0  0  0  0  0  0  0  0  0
    0.4242   -2.7405   -1.5985 H   0  0  0  0  0  0  0  0  0  0  0  0
    1.8104   -2.0911   -0.6962 H   0  0  0  0  0  0  0  0  0  0  0  0
    1.3644   -4.1167   -0.3044 N   0  3  0  0  0  0  0  0  0  0  0  0
    1.0356   -4.4966    0.5667 H   0  0  0  0  0  0  0  0  0  0  0  0
    2.1377   -4.8921   -1.0459 C   0  0  0  0  0  0  0  0  0  0  0  0
    2.6185   -4.4990   -2.1920 N   0  0  0  0  0  0  0  0  0  0  0  0
    2.3917   -3.5772   -2.5212 H   0  0  0  0  0  0  0  0  0  0  0  0
    3.2042   -5.0999   -2.7422 H   0  0  0  0  0  0  0  0  0  0  0  0
    2.4476   -6.0922   -0.6445 N   0  0  0  0  0  0  0  0  0  0  0  0
    2.1004   -6.4400    0.2326 H   0  0  0  0  0  0  0  0  0  0  0  0
    3.0345   -6.6772   -1.2101 H   0  0  0  0  0  0  0  0  0  0  0  0
   -1.6581    1.3731    0.7367 C   0  0  0  0  0  0  0  0  0  0  0  0
   -2.7987    1.8201    0.7550 O   0  0  0  0  0  0  0  0  0  0  0  0
   -0.5876    2.1092    0.4220 N   0  0  0  0  0  0  0  0  0  0  0  0
    0.3168    1.6690    0.4679 H   0  0  0  0  0  0  0  0  0  0  0  0
   -0.6404    3.5372    0.1044 C   0  0  0  0  0  0  0  0  0  0  0  0
   -0.9806    4.0974    0.9779 H   0  0  0  0  0  0  0  0  0  0  0  0
    0.3465    3.8983   -0.1874 H   0  0  0  0  0  0  0  0  0  0  0  0
   -1.3437    3.7123   -0.7127 H   0  0  0  0  0  0  0  0  0  0  0  0
  5  6  2  0  0  0  0
  5  7  1  0  0  0  0
  2  3  1  0  0  0  0
  2  4  1  0  0  0  0
  2  5  1  0  0  0  0
  1  2  1  0  0  0  0
 29 30  2  0  0  0  0
 29 31  1  0  0  0  0
 26 27  1  0  0  0  0
 26 28  1  0  0  0  0
 23 24  1  0  0  0  0
 23 25  1  0  0  0  0
 22 23  1  0  0  0  0
 22 26  1  0  0  0  0
 20 21  1  0  0  0  0
 20 22  2  0  0  0  0
 17 18  1  0  0  0  0
 17 19  1  0  0  0  0
 17 20  1  0  0  0  0
 14 15  1  0  0  0  0
 14 16  1  0  0  0  0
 14 17  1  0  0  0  0
 11 12  1  0  0  0  0
 11 13  1  0  0  0  0
 11 14  1  0  0  0  0
  9 10  1  0  0  0  0
  9 11  1  0  0  0  0
  9 29  1  0  0  0  0
  7  8  1  0  0  0  0
  7  9  1  0  0  0  0
 33 34  1  0  0  0  0
 33 35  1  0  0  0  0
 33 36  1  0  0  0  0
 31 32  1  0  0  0  0
 31 33  1  0  0  0  0
M  CHG  1  20   1
M  END
$$$$
default_name
  -OEChem-01062215323D

 36 35  0     1  0  0  0  0  0999 V2000
   -4.2256   -3.6731    1.8584 H   0  0  0  0  0  0  0  0  0  0  0  0
   -4.2396   -2.6781    1.4144 C   0  0  0  0  0  0  0  0  0  0  0  0
   -4.9506   -2.0521    1.9514 H   0  0  0  0  0  0  0  0  0  0  0  0
   -4.5266   -2.7521    0.3674 H   0  0  0  0  0  0  0  0  0  0  0  0
   -2.8576   -2.0761    1.5184 C   0  0  0  0  0  0  0  0  0  0  0  0
   -1.9456   -2.7051    2.0404 O   0  0  0  0  0  0  0  0  0  0  0  0
   -2.6926   -0.8481    1.0174 N   0  0  0  0  0  0  0  0  0  0  0  0
   -3.4926   -0.3971    0.5954 H   0  0  0  0  0  0  0  0  0  0  0  0
   -1.4216   -0.1071    1.0434 C   0  0  1  0  0  0  0  0  0  0  0  0
   -0.9926   -0.1949    2.0430 H   0  0  0  0  0  0  0  0  0  0  0  0
   -0.4572   -0.7569    0.0310 C   0  0  0  0  0  0  0  0  0  0  0  0
   -0.9548   -0.8100   -0.9395 H   0  0  0  0  0  0  0  0  0  0  0  0
    0.4273   -0.1250   -0.0756 H   0  0  0  0  0  0  0  0  0  0  0  0
   -0.0193   -2.1746    0.4269 C   0  0  0  0  0  0  0  0  0  0  0  0
    0.4920   -2.1473    1.3901 H   0  0  0  0  0  0  0  0  0  0  0  0
   -0.8983   -2.8154    0.5035 H   0  0  0  0  0  0  0  0  0  0  0  0
    0.9350   -2.7417   -0.6329 C   0  0  0  0  0  0  0  0  0  0  0  0
    0.4242   -2.7405   -1.5985 H   0  0  0  0  0  0  0  0  0  0  0  0
    1.8104   -2.0911   -0.6962 H   0  0  0  0  0  0  0  0  0  0  0  0
    1.3644   -4.1167   -0.3044 N   0  3  0  0  0  0  0  0  0  0  0  0
    1.0356   -4.4966    0.5667 H   0  0  0  0  0  0  0  0  0  0  0  0
    2.1377   -4.8921   -1.0459 C   0  0  0  0  0  0  0  0  0  0  0  0
    2.6185   -4.4990   -2.1920 N   0  0  0  0  0  0  0  0  0  0  0  0
    2.3917   -3.5772   -2.5212 H   0  0  0  0  0  0  0  0  0  0  0  0
    3.2042   -5.0999   -2.7422 H   0  0  0  0  0  0  0  0  0  0  0  0
    2.4476   -6.0922   -0.6445 N   0  0  0  0  0  0  0  0  0  0  0  0
    2.1004   -6.4400    0.2326 H   0  0  0  0  0  0  0  0  0  0  0  0
    3.0345   -6.6772   -1.2101 H   0  0  0  0  0  0  0  0  0  0  0  0
   -1.6581    1.3731    0.7367 C   0  0  0  0  0  0  0  0  0  0  0  0
   -2.7352    1.8847    1.0180 O   0  0  0  0  0  0  0  0  0  0  0  0
   -0.6679    2.0361    0.1311 N   0  0  0  0  0  0  0  0  0  0  0  0
    0.1974    1.5469   -0.0295 H   0  0  0  0  0  0  0  0  0  0  0  0
   -0.7320    3.4533   -0.2296 C   0  0  0  0  0  0  0  0  0  0  0  0
   -0.8150    4.0609    0.6741 H   0  0  0  0  0  0  0  0  0  0  0  0
    0.1656    3.7477   -0.7748 H   0  0  0  0  0  0  0  0  0  0  0  0
   -1.6091    3.6409   -0.8528 H   0  0  0  0  0  0  0  0  0  0  0  0
  5  6  2  0  0  0  0
  5  7  1  0  0  0  0
  2  3  1  0  0  0  0
  2  4  1  0  0  0  0
  2  5  1  0  0  0  0
  1  2  1  0  0  0  0
 29 30  2  0  0  0  0
 29 31  1  0  0  0  0
 26 27  1  0  0  0  0
 26 28  1  0  0  0  0
 23 24  1  0  0  0  0
 23 25  1  0  0  0  0
 22 23  1  0  0  0  0
 22 26  1  0  0  0  0
 20 21  1  0  0  0  0
 20 22  2  0  0  0  0
 17 18  1  0  0  0  0
 17 19  1  0  0  0  0
 17 20  1  0  0  0  0
 14 15  1  0  0  0  0
 14 16  1  0  0  0  0
 14 17  1  0  0  0  0
 11 12  1  0  0  0  0
 11 13  1  0  0  0  0
 11 14  1  0  0  0  0
  9 10  1  0  0  0  0
  9 11  1  0  0  0  0
  9 29  1  0  0  0  0
  7  8  1  0  0  0  0
  7  9  1  0  0  0  0
 33 34  1  0  0  0  0
 33 35  1  0  0  0  0
 33 36  1  0  0  0  0
 31 32  1  0  0  0  0
 31 33  1  0  0  0  0
M  CHG  1  20   1
M  END
$$$$
default_name
  -OEChem-01062215323D

 36 35  0     1  0  0  0  0  0999 V2000
   -4.2256   -3.6731    1.8584 H   0  0  0  0  0  0  0  0  0  0  0  0
   -4.2396   -2.6781    1.4144 C   0  0  0  0  0  0  0  0  0  0  0  0
   -4.9506   -2.0521    1.9514 H   0  0  0  0  0  0  0  0  0  0  0  0
   -4.5266   -2.7521    0.3674 H   0  0  0  0  0  0  0  0  0  0  0  0
   -2.8576   -2.0761    1.5184 C   0  0  0  0  0  0  0  0  0  0  0  0
   -1.9456   -2.7051    2.0404 O   0  0  0  0  0  0  0  0  0  0  0  0
   -2.6926   -0.8481    1.0174 N   0  0  0  0  0  0  0  0  0  0  0  0
   -3.4926   -0.3971    0.5954 H   0  0  0  0  0  0  0  0  0  0  0  0
   -1.4216   -0.1071    1.0434 C   0  0  1  0  0  0  0  0  0  0  0  0
   -0.9926   -0.1949    2.0430 H   0  0  0  0  0  0  0  0  0  0  0  0
   -0.4572   -0.7569    0.0310 C   0  0  0  0  0  0  0  0  0  0  0  0
   -0.9548   -0.8100   -0.9395 H   0  0  0  0  0  0  0  0  0  0  0  0
    0.4273   -0.1250   -0.0756 H   0  0  0  0  0  0  0  0  0  0  0  0
   -0.0193   -2.1746    0.4269 C   0  0  0  0  0  0  0  0  0  0  0  0
    0.4920   -2.1473    1.3901 H   0  0  0  0  0  0  0  0  0  0  0  0
   -0.8983   -2.8154    0.5035 H   0  0  0  0  0  0  0  0  0  0  0  0
    0.9350   -2.7417   -0.6329 C   0  0  0  0  0  0  0  0  0  0  0  0
    0.4242   -2.7405   -1.5985 H   0  0  0  0  0  0  0  0  0  0  0  0
    1.8104   -2.0911   -0.6962 H   0  0  0  0  0  0  0  0  0  0  0  0
    1.3644   -4.1167   -0.3044 N   0  3  0  0  0  0  0  0  0  0  0  0
    1.0356   -4.4966    0.5667 H   0  0  0  0  0  0  0  0  0  0  0  0
    2.1377   -4.8921   -1.0459 C   0  0  0  0  0  0  0  0  0  0  0  0
    2.6185   -4.4990   -2.1920 N   0  0  0  0  0  0  0  0  0  0  0  0
    2.3917   -3.5772   -2.5212 H   0  0  0  0  0  0  0  0  0  0  0  0
    3.2042   -5.0999   -2.7422 H   0  0  0  0  0  0  0  0  0  0  0  0
    2.4476   -6.0922   -0.6445 N   0  0  0  0  0  0  0  0  0  0  0  0
    2.1004   -6.4400    0.2326 H   0  0  0  0  0  0  0  0  0  0  0  0
    3.0345   -6.6772   -1.2101 H   0  0  0  0  0  0  0  0  0  0  0  0
   -1.6581    1.3731    0.7367 C   0  0  0  0  0  0  0  0  0  0  0  0
   -2.6048    1.9544    1.2535 O   0  0  0  0  0  0  0  0  0  0  0  0
   -0.8221    1.9580   -0.1269 N   0  0  0  0  0  0  0  0  0  0  0  0
   -0.0488    1.4152   -0.4752 H   0  0  0  0  0  0  0  0  0  0  0  0
   -0.9085    3.3637   -0.5258 C   0  0  0  0  0  0  0  0  0  0  0  0
   -0.7331    4.0049    0.3406 H   0  0  0  0  0  0  0  0  0  0  0  0
   -0.1640    3.5881   -1.2908 H   0  0  0  0  0  0  0  0  0  0  0  0
   -1.9043    3.5800   -0.9187 H   0  0  0  0  0  0  0  0  0  0  0  0
  5  6  2  0  0  0  0
  5  7  1  0  0  0  0
  2  3  1  0  0  0  0
  2  4  1  0  0  0  0
  2  5  1  0  0  0  0
  1  2  1  0  0  0  0
 29 30  2  0  0  0  0
 29 31  1  0  0  0  0
 26 27  1  0  0  0  0
 26 28  1  0  0  0  0
 23 24  1  0  0  0  0
 23 25  1  0  0  0  0
 22 23  1  0  0  0  0
 22 26  1  0  0  0  0
 20 21  1  0  0  0  0
 20 22  2  0  0  0  0
 17 18  1  0  0  0  0
 17 19  1  0  0  0  0
 17 20  1  0  0  0  0
 14 15  1  0  0  0  0
 14 16  1  0  0  0  0
 14 17  1  0  0  0  0
 11 12  1  0  0  0  0
 11 13  1  0  0  0  0
 11 14  1  0  0  0  0
  9 10  1  0  0  0  0
  9 11  1  0  0  0  0
  9 29  1  0  0  0  0
  7  8  1  0  0  0  0
  7  9  1  0  0  0  0
 33 34  1  0  0  0  0
 33 35  1  0  0  0  0
 33 36  1  0  0  0  0
 31 32  1  0  0  0  0
 31 33  1  0  0  0  0
M  CHG  1  20   1
M  END
$$$$
default_name
  -OEChem-01062215323D

 36 35  0     1  0  0  0  0  0999 V2000
   -4.2256   -3.6731    1.8584 H   0  0  0  0  0  0  0  0  0  0  0  0
   -4.2396   -2.6781    1.4144 C   0  0  0  0  0  0  0  0  0  0  0  0
   -4.9506   -2.0521    1.9514 H   0  0  0  0  0  0  0  0  0  0  0  0
   -4.5266   -2.7521    0.3674 H   0  0  0  0  0  0  0  0  0  0  0  0
   -2.8576   -2.0761    1.5184 C   0  0  0  0  0  0  0  0  0  0  0  0
   -1.9456   -2.7051    2.0404 O   0  0  0  0  0  0  0  0  0  0  0  0
   -2.6926   -0.8481    1.0174 N   0  0  0  0  0  0  0  0  0  0  0  0
   -3.4926   -0.3971    0.5954 H   0  0  0  0  0  0  0  0  0  0  0  0
   -1.4216   -0.1071    1.0434 C   0  0  1  0  0  0  0  0  0  0  0  0
   -0.9926   -0.1949    2.0430 H   0  0  0  0  0  0  0  0  0  0  0  0
   -0.4572   -0.7569    0.0310 C   0  0  0  0  0  0  0  0  0  0  0  0
   -0.9548   -0.8100   -0.9395 H   0  0  0  0  0  0  0  0  0  0  0  0
    0.4273   -0.1250   -0.0756 H   0  0  0  0  0  0  0  0  0  0  0  0
   -0.0193   -2.1746    0.4269 C   0  0  0  0  0  0  0  0  0  0  0  0
    0.4920   -2.1473    1.3901 H   0  0  0  0  0  0  0  0  0  0  0  0
   -0.8983   -2.8154    0.5035 H   0  0  0  0  0  0  0  0  0  0  0  0
    0.9350   -2.7417   -0.6329 C   0  0  0  0  0  0  0  0  0  0  0  0
    0.4242   -2.7405   -1.5985 H   0  0  0  0  0  0  0  0  0  0  0  0
    1.8104   -2.0911   -0.6962 H   0  0  0  0  0  0  0  0  0  0  0  0
    1.3644   -4.1167   -0.3044 N   0  3  0  0  0  0  0  0  0  0  0  0
    1.0356   -4.4966    0.5667 H   0  0  0  0  0  0  0  0  0  0  0  0
    2.1377   -4.8921   -1.0459 C   0  0  0  0  0  0  0  0  0  0  0  0
    2.6185   -4.4990   -2.1920 N   0  0  0  0  0  0  0  0  0  0  0  0
    2.3917   -3.5772   -2.5212 H   0  0  0  0  0  0  0  0  0  0  0  0
    3.2042   -5.0999   -2.7422 H   0  0  0  0  0  0  0  0  0  0  0  0
    2.4476   -6.0922   -0.6445 N   0  0  0  0  0  0  0  0  0  0  0  0
    2.1004   -6.4400    0.2326 H   0  0  0  0  0  0  0  0  0  0  0  0
    3.0345   -6.6772   -1.2101 H   0  0  0  0  0  0  0  0  0  0  0  0
   -1.6581    1.3731    0.7367 C   0  0  0  0  0  0  0  0  0  0  0  0
   -2.4161    2.0243    1.4455 O   0  0  0  0  0  0  0  0  0  0  0  0
   -1.0397    1.8802   -0.3343 N   0  0  0  0  0  0  0  0  0  0  0  0
   -0.4051    1.2829   -0.8387 H   0  0  0  0  0  0  0  0  0  0  0  0
   -1.1577    3.2745   -0.7643 C   0  0  0  0  0  0  0  0  0  0  0  0
   -0.7403    3.9333    0.0002 H   0  0  0  0  0  0  0  0  0  0  0  0
   -0.6198    3.4304   -1.7002 H   0  0  0  0  0  0  0  0  0  0  0  0
   -2.2091    3.5339   -0.9061 H   0  0  0  0  0  0  0  0  0  0  0  0
  5  6  2  0  0  0  0
  5  7  1  0  0  0  0
  2  3  1  0  0  0  0
  2  4  1  0  0  0  0
  2  5  1  0  0  0  0
  1  2  1  0  0  0  0
 29 30  2  0  0  0  0
 29 31  1  0  0  0  0
 26 27  1  0  0  0  0
 26 28  1  0  0  0  0
 23 24  1  0  0  0  0
 23 25  1  0  0  0  0
 22 23  1  0  0  0  0
 22 26  1  0  0  0  0
 20 21  1  0  0  0  0
 20 22  2  0  0  0  0
 17 18  1  0  0  0  0
 17 19  1  0  0  0  0
 17 20  1  0  0  0  0
 14 15  1  0  0  0  0
 14 16  1  0  0  0  0
 14 17  1  0  0  0  0
 11 12  1  0  0  0  0
 11 13  1  0  0  0  0
 11 14  1  0  0  0  0
  9 10  1  0  0  0  0
  9 11  1  0  0  0  0
  9 29  1  0  0  0  0
  7  8  1  0  0  0  0
  7  9  1  0  0  0  0
 33 34  1  0  0  0  0
 33 35  1  0  0  0  0
 33 36  1  0  0  0  0
 31 32  1  0  0  0  0
 31 33  1  0  0  0  0
M  CHG  1  20   1
M  END
$$$$
default_name
  -OEChem-01062215323D

 36 35  0     1  0  0  0  0  0999 V2000
   -4.2256   -3.6731    1.8584 H   0  0  0  0  0  0  0  0  0  0  0  0
   -4.2396   -2.6781    1.4144 C   0  0  0  0  0  0  0  0  0  0  0  0
   -4.9506   -2.0521    1.9514 H   0  0  0  0  0  0  0  0  0  0  0  0
   -4.5266   -2.7521    0.3674 H   0  0  0  0  0  0  0  0  0  0  0  0
   -2.8576   -2.0761    1.5184 C   0  0  0  0  0  0  0  0  0  0  0  0
   -1.9456   -2.7051    2.0404 O   0  0  0  0  0  0  0  0  0  0  0  0
   -2.6926   -0.8481    1.0174 N   0  0  0  0  0  0  0  0  0  0  0  0
   -3.4926   -0.3971    0.5954 H   0  0  0  0  0  0  0  0  0  0  0  0
   -1.4216   -0.1071    1.0434 C   0  0  1  0  0  0  0  0  0  0  0  0
   -0.9926   -0.1949    2.0430 H   0  0  0  0  0  0  0  0  0  0  0  0
   -0.4572   -0.7569    0.0310 C   0  0  0  0  0  0  0  0  0  0  0  0
   -0.9548   -0.8100   -0.9395 H   0  0  0  0  0  0  0  0  0  0  0  0
    0.4273   -0.1250   -0.0756 H   0  0  0  0  0  0  0  0  0  0  0  0
   -0.0193   -2.1746    0.4269 C   0  0  0  0  0  0  0  0  0  0  0  0
    0.4920   -2.1473    1.3901 H   0  0  0  0  0  0  0  0  0  0  0  0
   -0.8983   -2.8154    0.5035 H   0  0  0  0  0  0  0  0  0  0  0  0
    0.9350   -2.7417   -0.6329 C   0  0  0  0  0  0  0  0  0  0  0  0
    0.4242   -2.7405   -1.5985 H   0  0  0  0  0  0  0  0  0  0  0  0
    1.8104   -2.0911   -0.6962 H   0  0  0  0  0  0  0  0  0  0  0  0
    1.3644   -4.1167   -0.3044 N   0  3  0  0  0  0  0  0  0  0  0  0
    1.0356   -4.4966    0.5667 H   0  0  0  0  0  0  0  0  0  0  0  0
    2.1377   -4.8921   -1.0459 C   0  0  0  0  0  0  0  0  0  0  0  0
    2.6185   -4.4990   -2.1920 N   0  0  0  0  0  0  0  0  0  0  0  0
    2.3917   -3.5772   -2.5212 H   0  0  0  0  0  0  0  0  0  0  0  0
    3.2042   -5.0999   -2.7422 H   0  0  0  0  0  0  0  0  0  0  0  0
    2.4476   -6.0922   -0.6445 N   0  0  0  0  0  0  0  0  0  0  0  0
    2.1004   -6.4400    0.2326 H   0  0  0  0  0  0  0  0  0  0  0  0
    3.0345   -6.6772   -1.2101 H   0  0  0  0  0  0  0  0  0  0  0  0
   -1.6581    1.3731    0.7367 C   0  0  0  0  0  0  0  0  0  0  0  0
   -2.1822    2.0897    1.5810 O   0  0  0  0  0  0  0  0  0  0  0  0
   -1.3059    1.8081   -0.4771 N   0  0  0  0  0  0  0  0  0  0  0  0
   -0.8471    1.1591   -1.0954 H   0  0  0  0  0  0  0  0  0  0  0  0
   -1.4628    3.1917   -0.9286 C   0  0  0  0  0  0  0  0  0  0  0  0
   -0.8362    3.8508   -0.3239 H   0  0  0  0  0  0  0  0  0  0  0  0
   -1.1708    3.2854   -1.9753 H   0  0  0  0  0  0  0  0  0  0  0  0
   -2.5028    3.5057   -0.8157 H   0  0  0  0  0  0  0  0  0  0  0  0
  5  6  2  0  0  0  0
  5  7  1  0  0  0  0
  2  3  1  0  0  0  0
  2  4  1  0  0  0  0
  2  5  1  0  0  0  0
  1  2  1  0  0  0  0
 29 30  2  0  0  0  0
 29 31  1  0  0  0  0
 26 27  1  0  0  0  0
 26 28  1  0  0  0  0
 23 24  1  0  0  0  0
 23 25  1  0  0  0  0
 22 23  1  0  0  0  0
 22 26  1  0  0  0  0
 20 21  1  0  0  0  0
 20 22  2  0  0  0  0
 17 18  1  0  0  0  0
 17 19  1  0  0  0  0
 17 20  1  0  0  0  0
 14 15  1  0  0  0  0
 14 16  1  0  0  0  0
 14 17  1  0  0  0  0
 11 12  1  0  0  0  0
 11 13  1  0  0  0  0
 11 14  1  0  0  0  0
  9 10  1  0  0  0  0
  9 11  1  0  0  0  0
  9 29  1  0  0  0  0
  7  8  1  0  0  0  0
  7  9  1  0  0  0  0
 33 34  1  0  0  0  0
 33 35  1  0  0  0  0
 33 36  1  0  0  0  0
 31 32  1  0  0  0  0
 31 33  1  0  0  0  0
M  CHG  1  20   1
M  END
$$$$
default_name
  -OEChem-01062215323D

 36 35  0     1  0  0  0  0  0999 V2000
   -4.2256   -3.6731    1.8584 H   0  0  0  0  0  0  0  0  0  0  0  0
   -4.2396   -2.6781    1.4144 C   0  0  0  0  0  0  0  0  0  0  0  0
   -4.9506   -2.0521    1.9514 H   0  0  0  0  0  0  0  0  0  0  0  0
   -4.5266   -2.7521    0.3674 H   0  0  0  0  0  0  0  0  0  0  0  0
   -2.8576   -2.0761    1.5184 C   0  0  0  0  0  0  0  0  0  0  0  0
   -1.9456   -2.7051    2.0404 O   0  0  0  0  0  0  0  0  0  0  0  0
   -2.6926   -0.8481    1.0174 N   0  0  0  0  0  0  0  0  0  0  0  0
   -3.4926   -0.3971    0.5954 H   0  0  0  0  0  0  0  0  0  0  0  0
   -1.4216   -0.1071    1.0434 C   0  0  1  0  0  0  0  0  0  0  0  0
   -0.9926   -0.1949    2.0430 H   0  0  0  0  0  0  0  0  0  0  0  0
   -0.4572   -0.7569    0.0310 C   0  0  0  0  0  0  0  0  0  0  0  0
   -0.9548   -0.8100   -0.9395 H   0  0  0  0  0  0  0  0  0  0  0  0
    0.4273   -0.1250   -0.0756 H   0  0  0  0  0  0  0  0  0  0  0  0
   -0.0193   -2.1746    0.4269 C   0  0  0  0  0  0  0  0  0  0  0  0
    0.4920   -2.1473    1.3901 H   0  0  0  0  0  0  0  0  0  0  0  0
   -0.8983   -2.8154    0.5035 H   0  0  0  0  0  0  0  0  0  0  0  0
    0.9350   -2.7417   -0.6329 C   0  0  0  0  0  0  0  0  0  0  0  0
    0.4242   -2.7405   -1.5985 H   0  0  0  0  0  0  0  0  0  0  0  0
    1.8104   -2.0911   -0.6962 H   0  0  0  0  0  0  0  0  0  0  0  0
    1.3644   -4.1167   -0.3044 N   0  3  0  0  0  0  0  0  0  0  0  0
    1.0356   -4.4966    0.5667 H   0  0  0  0  0  0  0  0  0  0  0  0
    2.1377   -4.8921   -1.0459 C   0  0  0  0  0  0  0  0  0  0  0  0
    2.6185   -4.4990   -2.1920 N   0  0  0  0  0  0  0  0  0  0  0  0
    2.3917   -3.5772   -2.5212 H   0  0  0  0  0  0  0  0  0  0  0  0
    3.2042   -5.0999   -2.7422 H   0  0  0  0  0  0  0  0  0  0  0  0
    2.4476   -6.0922   -0.6445 N   0  0  0  0  0  0  0  0  0  0  0  0
    2.1004   -6.4400    0.2326 H   0  0  0  0  0  0  0  0  0  0  0  0
    3.0345   -6.6772   -1.2101 H   0  0  0  0  0  0  0  0  0  0  0  0
   -1.6581    1.3731    0.7367 C   0  0  0  0  0  0  0  0  0  0  0  0
   -1.9190    2.1462    1.6506 O   0  0  0  0  0  0  0  0  0  0  0  0
   -1.6024    1.7465   -0.5455 N   0  0  0  0  0  0  0  0  0  0  0  0
   -1.3448    1.0521   -1.2277 H   0  0  0  0  0  0  0  0  0  0  0  0
   -1.8029    3.1210   -1.0076 C   0  0  0  0  0  0  0  0  0  0  0  0
   -1.0143    3.7631   -0.6096 H   0  0  0  0  0  0  0  0  0  0  0  0
   -1.7795    3.1628   -2.0973 H   0  0  0  0  0  0  0  0  0  0  0  0
   -2.7652    3.4974   -0.6538 H   0  0  0  0  0  0  0  0  0  0  0  0
  5  6  2  0  0  0  0
  5  7  1  0  0  0  0
  2  3  1  0  0  0  0
  2  4  1  0  0  0  0
  2  5  1  0  0  0  0
  1  2  1  0  0  0  0
 29 30  2  0  0  0  0
 29 31  1  0  0  0  0
 26 27  1  0  0  0  0
 26 28  1  0  0  0  0
 23 24  1  0  0  0  0
 23 25  1  0  0  0  0
 22 23  1  0  0  0  0
 22 26  1  0  0  0  0
 20 21  1  0  0  0  0
 20 22  2  0  0  0  0
 17 18  1  0  0  0  0
 17 19  1  0  0  0  0
 17 20  1  0  0  0  0
 14 15  1  0  0  0  0
 14 16  1  0  0  0  0
 14 17  1  0  0  0  0
 11 12  1  0  0  0  0
 11 13  1  0  0  0  0
 11 14  1  0  0  0  0
  9 10  1  0  0  0  0
  9 11  1  0  0  0  0
  9 29  1  0  0  0  0
  7  8  1  0  0  0  0
  7  9  1  0  0  0  0
 33 34  1  0  0  0  0
 33 35  1  0  0  0  0
 33 36  1  0  0  0  0
 31 32  1  0  0  0  0
 31 33  1  0  0  0  0
M  CHG  1  20   1
M  END
$$$$
default_name
  -OEChem-01062215323D

 36 35  0     1  0  0  0  0  0999 V2000
   -4.2256   -3.6731    1.8584 H   0  0  0  0  0  0  0  0  0  0  0  0
   -4.2396   -2.6781    1.4144 C   0  0  0  0  0  0  0  0  0  0  0  0
   -4.9506   -2.0521    1.9514 H   0  0  0  0  0  0  0  0  0  0  0  0
   -4.5266   -2.7521    0.3674 H   0  0  0  0  0  0  0  0  0  0  0  0
   -2.8576   -2.0761    1.5184 C   0  0  0  0  0  0  0  0  0  0  0  0
   -1.9456   -2.7051    2.0404 O   0  0  0  0  0  0  0  0  0  0  0  0
   -2.6926   -0.8481    1.0174 N   0  0  0  0  0  0  0  0  0  0  0  0
   -3.4926   -0.3971    0.5954 H   0  0  0  0  0  0  0  0  0  0  0  0
   -1.4216   -0.1071    1.0434 C   0  0  1  0  0  0  0  0  0  0  0  0
   -0.9926   -0.1949    2.0430 H   0  0  0  0  0  0  0  0  0  0  0  0
   -0.4572   -0.7569    0.0310 C   0  0  0  0  0  0  0  0  0  0  0  0
   -0.9548   -0.8100   -0.9395 H   0  0  0  0  0  0  0  0  0  0  0  0
    0.4273   -0.1250   -0.0756 H   0  0  0  0  0  0  0  0  0  0  0  0
   -0.0193   -2.1746    0.4269 C   0  0  0  0  0  0  0  0  0  0  0  0
    0.4920   -2.1473    1.3901 H   0  0  0  0  0  0  0  0  0  0  0  0
   -0.8983   -2.8154    0.5035 H   0  0  0  0  0  0  0  0  0  0  0  0
    0.9350   -2.7417   -0.6329 C   0  0  0  0  0  0  0  0  0  0  0  0
    0.4242   -2.7405   -1.5985 H   0  0  0  0  0  0  0  0  0  0  0  0
    1.8104   -2.0911   -0.6962 H   0  0  0  0  0  0  0  0  0  0  0  0
    1.3644   -4.1167   -0.3044 N   0  3  0  0  0  0  0  0  0  0  0  0
    1.0356   -4.4966    0.5667 H   0  0  0  0  0  0  0  0  0  0  0  0
    2.1377   -4.8921   -1.0459 C   0  0  0  0  0  0  0  0  0  0  0  0
    2.6185   -4.4990   -2.1920 N   0  0  0  0  0  0  0  0  0  0  0  0
    2.3917   -3.5772   -2.5212 H   0  0  0  0  0  0  0  0  0  0  0  0
    3.2042   -5.0999   -2.7422 H   0  0  0  0  0  0  0  0  0  0  0  0
    2.4476   -6.0922   -0.6445 N   0  0  0  0  0  0  0  0  0  0  0  0
    2.1004   -6.4400    0.2326 H   0  0  0  0  0  0  0  0  0  0  0  0
    3.0345   -6.6772   -1.2101 H   0  0  0  0  0  0  0  0  0  0  0  0
   -1.6581    1.3731    0.7367 C   0  0  0  0  0  0  0  0  0  0  0  0
   -1.6443    2.1899    1.6498 O   0  0  0  0  0  0  0  0  0  0  0  0
   -1.9092    1.6997   -0.5349 N   0  0  0  0  0  0  0  0  0  0  0  0
   -1.8642    0.9694   -1.2266 H   0  0  0  0  0  0  0  0  0  0  0  0
   -2.1549    3.0671   -0.9959 C   0  0  0  0  0  0  0  0  0  0  0  0
   -1.2624    3.6762   -0.8375 H   0  0  0  0  0  0  0  0  0  0  0  0
   -2.4043    3.0712   -2.0578 H   0  0  0  0  0  0  0  0  0  0  0  0
   -2.9787    3.5094   -0.4313 H   0  0  0  0  0  0  0  0  0  0  0  0
  5  6  2  0  0  0  0
  5  7  1  0  0  0  0
  2  3  1  0  0  0  0
  2  4  1  0  0  0  0
  2  5  1  0  0  0  0
  1  2  1  0  0  0  0
 29 30  2  0  0  0  0
 29 31  1  0  0  0  0
 26 27  1  0  0  0  0
 26 28  1  0  0  0  0
 23 24  1  0  0  0  0
 23 25  1  0  0  0  0
 22 23  1  0  0  0  0
 22 26  1  0  0  0  0
 20 21  1  0  0  0  0
 20 22  2  0  0  0  0
 17 18  1  0  0  0  0
 17 19  1  0  0  0  0
 17 20  1  0  0  0  0
 14 15  1  0  0  0  0
 14 16  1  0  0  0  0
 14 17  1  0  0  0  0
 11 12  1  0  0  0  0
 11 13  1  0  0  0  0
 11 14  1  0  0  0  0
  9 10  1  0  0  0  0
  9 11  1  0  0  0  0
  9 29  1  0  0  0  0
  7  8  1  0  0  0  0
  7  9  1  0  0  0  0
 33 34  1  0  0  0  0
 33 35  1  0  0  0  0
 33 36  1  0  0  0  0
 31 32  1  0  0  0  0
 31 33  1  0  0  0  0
M  CHG  1  20   1
M  END
$$$$
default_name
  -OEChem-01062215323D

 36 35  0     1  0  0  0  0  0999 V2000
   -4.2256   -3.6731    1.8584 H   0  0  0  0  0  0  0  0  0  0  0  0
   -4.2396   -2.6781    1.4144 C   0  0  0  0  0  0  0  0  0  0  0  0
   -4.9506   -2.0521    1.9514 H   0  0  0  0  0  0  0  0  0  0  0  0
   -4.5266   -2.7521    0.3674 H   0  0  0  0  0  0  0  0  0  0  0  0
   -2.8576   -2.0761    1.5184 C   0  0  0  0  0  0  0  0  0  0  0  0
   -1.9456   -2.7051    2.0404 O   0  0  0  0  0  0  0  0  0  0  0  0
   -2.6926   -0.8481    1.0174 N   0  0  0  0  0  0  0  0  0  0  0  0
   -3.4926   -0.3971    0.5954 H   0  0  0  0  0  0  0  0  0  0  0  0
   -1.4216   -0.1071    1.0434 C   0  0  1  0  0  0  0  0  0  0  0  0
   -0.9926   -0.1949    2.0430 H   0  0  0  0  0  0  0  0  0  0  0  0
   -0.4572   -0.7569    0.0310 C   0  0  0  0  0  0  0  0  0  0  0  0
   -0.9548   -0.8100   -0.9395 H   0  0  0  0  0  0  0  0  0  0  0  0
    0.4273   -0.1250   -0.0756 H   0  0  0  0  0  0  0  0  0  0  0  0
   -0.0193   -2.1746    0.4269 C   0  0  0  0  0  0  0  0  0  0  0  0
    0.4920   -2.1473    1.3901 H   0  0  0  0  0  0  0  0  0  0  0  0
   -0.8983   -2.8154    0.5035 H   0  0  0  0  0  0  0  0  0  0  0  0
    0.9350   -2.7417   -0.6329 C   0  0  0  0  0  0  0  0  0  0  0  0
    0.4242   -2.7405   -1.5985 H   0  0  0  0  0  0  0  0  0  0  0  0
    1.8104   -2.0911   -0.6962 H   0  0  0  0  0  0  0  0  0  0  0  0
    1.3644   -4.1167   -0.3044 N   0  3  0  0  0  0  0  0  0  0  0  0
    1.0356   -4.4966    0.5667 H   0  0  0  0  0  0  0  0  0  0  0  0
    2.1377   -4.8921   -1.0459 C   0  0  0  0  0  0  0  0  0  0  0  0
    2.6185   -4.4990   -2.1920 N   0  0  0  0  0  0  0  0  0  0  0  0
    2.3917   -3.5772   -2.5212 H   0  0  0  0  0  0  0  0  0  0  0  0
    3.2042   -5.0999   -2.7422 H   0  0  0  0  0  0  0  0  0  0  0  0
    2.4476   -6.0922   -0.6445 N   0  0  0  0  0  0  0  0  0  0  0  0
    2.1004   -6.4400    0.2326 H   0  0  0  0  0  0  0  0  0  0  0  0
    3.0345   -6.6772   -1.2101 H   0  0  0  0  0  0  0  0  0  0  0  0
   -1.6581    1.3731    0.7367 C   0  0  0  0  0  0  0  0  0  0  0  0
   -1.3770    2.2179    1.5784 O   0  0  0  0  0  0  0  0  0  0  0  0
   -2.2053    1.6708   -0.4459 N   0  0  0  0  0  0  0  0  0  0  0  0
   -2.3699    0.9164   -1.0922 H   0  0  0  0  0  0  0  0  0  0  0  0
   -2.4948    3.0339   -0.8943 C   0  0  0  0  0  0  0  0  0  0  0  0
   -1.5636    3.5961   -0.9921 H   0  0  0  0  0  0  0  0  0  0  0  0
   -3.0027    3.0166   -1.8595 H   0  0  0  0  0  0  0  0  0  0  0  0
   -3.1285    3.5409   -0.1634 H   0  0  0  0  0  0  0  0  0  0  0  0
  5  6  2  0  0  0  0
  5  7  1  0  0  0  0
  2  3  1  0  0  0  0
  2  4  1  0  0  0  0
  2  5  1  0  0  0  0
  1  2  1  0  0  0  0
 29 30  2  0  0  0  0
 29 31  1  0  0  0  0
 26 27  1  0  0  0  0
 26 28  1  0  0  0  0
 23 24  1  0  0  0  0
 23 25  1  0  0  0  0
 22 23  1  0  0  0  0
 22 26  1  0  0  0  0
 20 21  1  0  0  0  0
 20 22  2  0  0  0  0
 17 18  1  0  0  0  0
 17 19  1  0  0  0  0
 17 20  1  0  0  0  0
 14 15  1  0  0  0  0
 14 16  1  0  0  0  0
 14 17  1  0  0  0  0
 11 12  1  0  0  0  0
 11 13  1  0  0  0  0
 11 14  1  0  0  0  0
  9 10  1  0  0  0  0
  9 11  1  0  0  0  0
  9 29  1  0  0  0  0
  7  8  1  0  0  0  0
  7  9  1  0  0  0  0
 33 34  1  0  0  0  0
 33 35  1  0  0  0  0
 33 36  1  0  0  0  0
 31 32  1  0  0  0  0
 31 33  1  0  0  0  0
M  CHG  1  20   1
M  END
$$$$
default_name
  -OEChem-01062215323D

 36 35  0     1  0  0  0  0  0999 V2000
   -4.2256   -3.6731    1.8584 H   0  0  0  0  0  0  0  0  0  0  0  0
   -4.2396   -2.6781    1.4144 C   0  0  0  0  0  0  0  0  0  0  0  0
   -4.9506   -2.0521    1.9514 H   0  0  0  0  0  0  0  0  0  0  0  0
   -4.5266   -2.7521    0.3674 H   0  0  0  0  0  0  0  0  0  0  0  0
   -2.8576   -2.0761    1.5184 C   0  0  0  0  0  0  0  0  0  0  0  0
   -1.9456   -2.7051    2.0404 O   0  0  0  0  0  0  0  0  0  0  0  0
   -2.6926   -0.8481    1.0174 N   0  0  0  0  0  0  0  0  0  0  0  0
   -3.4926   -0.3971    0.5954 H   0  0  0  0  0  0  0  0  0  0  0  0
   -1.4216   -0.1071    1.0434 C   0  0  1  0  0  0  0  0  0  0  0  0
   -0.9926   -0.1949    2.0430 H   0  0  0  0  0  0  0  0  0  0  0  0
   -0.4572   -0.7569    0.0310 C   0  0  0  0  0  0  0  0  0  0  0  0
   -0.9548   -0.8100   -0.9395 H   0  0  0  0  0  0  0  0  0  0  0  0
    0.4273   -0.1250   -0.0756 H   0  0  0  0  0  0  0  0  0  0  0  0
   -0.0193   -2.1746    0.4269 C   0  0  0  0  0  0  0  0  0  0  0  0
    0.4920   -2.1473    1.3901 H   0  0  0  0  0  0  0  0  0  0  0  0
   -0.8983   -2.8154    0.5035 H   0  0  0  0  0  0  0  0  0  0  0  0
    0.9350   -2.7417   -0.6329 C   0  0  0  0  0  0  0  0  0  0  0  0
    0.4242   -2.7405   -1.5985 H   0  0  0  0  0  0  0  0  0  0  0  0
    1.8104   -2.0911   -0.6962 H   0  0  0  0  0  0  0  0  0  0  0  0
    1.3644   -4.1167   -0.3044 N   0  3  0  0  0  0  0  0  0  0  0  0
    1.0356   -4.4966    0.5667 H   0  0  0  0  0  0  0  0  0  0  0  0
    2.1377   -4.8921   -1.0459 C   0  0  0  0  0  0  0  0  0  0  0  0
    2.6185   -4.4990   -2.1920 N   0  0  0  0  0  0  0  0  0  0  0  0
    2.3917   -3.5772   -2.5212 H   0  0  0  0  0  0  0  0  0  0  0  0
    3.2042   -5.0999   -2.7422 H   0  0  0  0  0  0  0  0  0  0  0  0
    2.4476   -6.0922   -0.6445 N   0  0  0  0  0  0  0  0  0  0  0  0
    2.1004   -6.4400    0.2326 H   0  0  0  0  0  0  0  0  0  0  0  0
    3.0345   -6.6772   -1.2101 H   0  0  0  0  0  0  0  0  0  0  0  0
   -1.6581    1.3731    0.7367 C   0  0  0  0  0  0  0  0  0  0  0  0
   -1.1352    2.2281    1.4414 O   0  0  0  0  0  0  0  0  0  0  0  0
   -2.4706    1.6618   -0.2847 N   0  0  0  0  0  0  0  0  0  0  0  0
   -2.8274    0.8969   -0.8336 H   0  0  0  0  0  0  0  0  0  0  0  0
   -2.7994    3.0234   -0.7098 C   0  0  0  0  0  0  0  0  0  0  0  0
   -1.8975    3.5281   -1.0627 H   0  0  0  0  0  0  0  0  0  0  0  0
   -3.5339    3.0030   -1.5159 H   0  0  0  0  0  0  0  0  0  0  0  0
   -3.2045    3.5899    0.1316 H   0  0  0  0  0  0  0  0  0  0  0  0
  5  6  2  0  0  0  0
  5  7  1  0  0  0  0
  2  3  1  0  0  0  0
  2  4  1  0  0  0  0
  2  5  1  0  0  0  0
  1  2  1  0  0  0  0
 29 30  2  0  0  0  0
 29 31  1  0  0  0  0
 26 27  1  0  0  0  0
 26 28  1  0  0  0  0
 23 24  1  0  0  0  0
 23 25  1  0  0  0  0
 22 23  1  0  0  0  0
 22 26  1  0  0  0  0
 20 21  1  0  0  0  0
 20 22  2  0  0  0  0
 17 18  1  0  0  0  0
 17 19  1  0  0  0  0
 17 20  1  0  0  0  0
 14 15  1  0  0  0  0
 14 16  1  0  0  0  0
 14 17  1  0  0  0  0
 11 12  1  0  0  0  0
 11 13  1  0  0  0  0
 11 14  1  0  0  0  0
  9 10  1  0  0  0  0
  9 11  1  0  0  0  0
  9 29  1  0  0  0  0
  7  8  1  0  0  0  0
  7  9  1  0  0  0  0
 33 34  1  0  0  0  0
 33 35  1  0  0  0  0
 33 36  1  0  0  0  0
 31 32  1  0  0  0  0
 31 33  1  0  0  0  0
M  CHG  1  20   1
M  END
$$$$
default_name
  -OEChem-01062215323D

 36 35  0     1  0  0  0  0  0999 V2000
   -4.2256   -3.6731    1.8584 H   0  0  0  0  0  0  0  0  0  0  0  0
   -4.2396   -2.6781    1.4144 C   0  0  0  0  0  0  0  0  0  0  0  0
   -4.9506   -2.0521    1.9514 H   0  0  0  0  0  0  0  0  0  0  0  0
   -4.5266   -2.7521    0.3674 H   0  0  0  0  0  0  0  0  0  0  0  0
   -2.8576   -2.0761    1.5184 C   0  0  0  0  0  0  0  0  0  0  0  0
   -1.9456   -2.7051    2.0404 O   0  0  0  0  0  0  0  0  0  0  0  0
   -2.6926   -0.8481    1.0174 N   0  0  0  0  0  0  0  0  0  0  0  0
   -3.4926   -0.3971    0.5954 H   0  0  0  0  0  0  0  0  0  0  0  0
   -1.4216   -0.1071    1.0434 C   0  0  1  0  0  0  0  0  0  0  0  0
   -0.9926   -0.1949    2.0430 H   0  0  0  0  0  0  0  0  0  0  0  0
   -0.4572   -0.7569    0.0310 C   0  0  0  0  0  0  0  0  0  0  0  0
   -0.9548   -0.8100   -0.9395 H   0  0  0  0  0  0  0  0  0  0  0  0
    0.4273   -0.1250   -0.0756 H   0  0  0  0  0  0  0  0  0  0  0  0
   -0.0193   -2.1746    0.4269 C   0  0  0  0  0  0  0  0  0  0  0  0
    0.4920   -2.1473    1.3901 H   0  0  0  0  0  0  0  0  0  0  0  0
   -0.8983   -2.8154    0.5035 H   0  0  0  0  0  0  0  0  0  0  0  0
    0.9350   -2.7417   -0.6329 C   0  0  0  0  0  0  0  0  0  0  0  0
    0.4242   -2.7405   -1.5985 H   0  0  0  0  0  0  0  0  0  0  0  0
    1.8104   -2.0911   -0.6962 H   0  0  0  0  0  0  0  0  0  0  0  0
    1.3644   -4.1167   -0.3044 N   0  3  0  0  0  0  0  0  0  0  0  0
    1.0356   -4.4966    0.5667 H   0  0  0  0  0  0  0  0  0  0  0  0
    2.1377   -4.8921   -1.0459 C   0  0  0  0  0  0  0  0  0  0  0  0
    2.6185   -4.4990   -2.1920 N   0  0  0  0  0  0  0  0  0  0  0  0
    2.3917   -3.5772   -2.5212 H   0  0  0  0  0  0  0  0  0  0  0  0
    3.2042   -5.0999   -2.7422 H   0  0  0  0  0  0  0  0  0  0  0  0
    2.4476   -6.0922   -0.6445 N   0  0  0  0  0  0  0  0  0  0  0  0
    2.1004   -6.4400    0.2326 H   0  0  0  0  0  0  0  0  0  0  0  0
    3.0345   -6.6772   -1.2101 H   0  0  0  0  0  0  0  0  0  0  0  0
   -1.6581    1.3731    0.7367 C   0  0  0  0  0  0  0  0  0  0  0  0
   -0.9354    2.2200    1.2481 O   0  0  0  0  0  0  0  0  0  0  0  0
   -2.6869    1.6734   -0.0621 N   0  0  0  0  0  0  0  0  0  0  0  0
   -3.2057    0.9121   -0.4685 H   0  0  0  0  0  0  0  0  0  0  0  0
   -3.0479    3.0366   -0.4549 C   0  0  0  0  0  0  0  0  0  0  0  0
   -2.2411    3.4769   -1.0446 H   0  0  0  0  0  0  0  0  0  0  0  0
   -3.9616    3.0310   -1.0506 H   0  0  0  0  0  0  0  0  0  0  0  0
   -3.2015    3.6530    0.4336 H   0  0  0  0  0  0  0  0  0  0  0  0
  5  6  2  0  0  0  0
  5  7  1  0  0  0  0
  2  3  1  0  0  0  0
  2  4  1  0  0  0  0
  2  5  1  0  0  0  0
  1  2  1  0  0  0  0
 29 30  2  0  0  0  0
 29 31  1  0  0  0  0
 26 27  1  0  0  0  0
 26 28  1  0  0  0  0
 23 24  1  0  0  0  0
 23 25  1  0  0  0  0
 22 23  1  0  0  0  0
 22 26  1  0  0  0  0
 20 21  1  0  0  0  0
 20 22  2  0  0  0  0
 17 18  1  0  0  0  0
 17 19  1  0  0  0  0
 17 20  1  0  0  0  0
 14 15  1  0  0  0  0
 14 16  1  0  0  0  0
 14 17  1  0  0  0  0
 11 12  1  0  0  0  0
 11 13  1  0  0  0  0
 11 14  1  0  0  0  0
  9 10  1  0  0  0  0
  9 11  1  0  0  0  0
  9 29  1  0  0  0  0
  7  8  1  0  0  0  0
  7  9  1  0  0  0  0
 33 34  1  0  0  0  0
 33 35  1  0  0  0  0
 33 36  1  0  0  0  0
 31 32  1  0  0  0  0
 31 33  1  0  0  0  0
M  CHG  1  20   1
M  END
$$$$
default_name
  -OEChem-01062215323D

 36 35  0     1  0  0  0  0  0999 V2000
   -4.2256   -3.6731    1.8584 H   0  0  0  0  0  0  0  0  0  0  0  0
   -4.2396   -2.6781    1.4144 C   0  0  0  0  0  0  0  0  0  0  0  0
   -4.9506   -2.0521    1.9514 H   0  0  0  0  0  0  0  0  0  0  0  0
   -4.5266   -2.7521    0.3674 H   0  0  0  0  0  0  0  0  0  0  0  0
   -2.8576   -2.0761    1.5184 C   0  0  0  0  0  0  0  0  0  0  0  0
   -1.9456   -2.7051    2.0404 O   0  0  0  0  0  0  0  0  0  0  0  0
   -2.6926   -0.8481    1.0174 N   0  0  0  0  0  0  0  0  0  0  0  0
   -3.4926   -0.3971    0.5954 H   0  0  0  0  0  0  0  0  0  0  0  0
   -1.4216   -0.1071    1.0434 C   0  0  1  0  0  0  0  0  0  0  0  0
   -0.9926   -0.1949    2.0430 H   0  0  0  0  0  0  0  0  0  0  0  0
   -0.4572   -0.7569    0.0310 C   0  0  0  0  0  0  0  0  0  0  0  0
   -0.9548   -0.8100   -0.9395 H   0  0  0  0  0  0  0  0  0  0  0  0
    0.4273   -0.1250   -0.0756 H   0  0  0  0  0  0  0  0  0  0  0  0
   -0.0193   -2.1746    0.4269 C   0  0  0  0  0  0  0  0  0  0  0  0
    0.4920   -2.1473    1.3901 H   0  0  0  0  0  0  0  0  0  0  0  0
   -0.8983   -2.8154    0.5035 H   0  0  0  0  0  0  0  0  0  0  0  0
    0.9350   -2.7417   -0.6329 C   0  0  0  0  0  0  0  0  0  0  0  0
    0.4242   -2.7405   -1.5985 H   0  0  0  0  0  0  0  0  0  0  0  0
    1.8104   -2.0911   -0.6962 H   0  0  0  0  0  0  0  0  0  0  0  0
    1.3644   -4.1167   -0.3044 N   0  3  0  0  0  0  0  0  0  0  0  0
    1.0356   -4.4966    0.5667 H   0  0  0  0  0  0  0  0  0  0  0  0
    2.1377   -4.8921   -1.0459 C   0  0  0  0  0  0  0  0  0  0  0  0
    2.6185   -4.4990   -2.1920 N   0  0  0  0  0  0  0  0  0  0  0  0
    2.3917   -3.5772   -2.5212 H   0  0  0  0  0  0  0  0  0  0  0  0
    3.2042   -5.0999   -2.7422 H   0  0  0  0  0  0  0  0  0  0  0  0
    2.4476   -6.0922   -0.6445 N   0  0  0  0  0  0  0  0  0  0  0  0
    2.1004   -6.4400    0.2326 H   0  0  0  0  0  0  0  0  0  0  0  0
    3.0345   -6.6772   -1.2101 H   0  0  0  0  0  0  0  0  0  0  0  0
   -1.6581    1.3731    0.7367 C   0  0  0  0  0  0  0  0  0  0  0  0
   -0.7912    2.1941    1.0117 O   0  0  0  0  0  0  0  0  0  0  0  0
   -2.8395    1.7047    0.2065 N   0  0  0  0  0  0  0  0  0  0  0  0
   -3.4788    0.9610   -0.0217 H   0  0  0  0  0  0  0  0  0  0  0  0
   -3.2235    3.0723   -0.1469 C   0  0  0  0  0  0  0  0  0  0  0  0
   -2.5712    3.4460   -0.9391 H   0  0  0  0  0  0  0  0  0  0  0  0
   -4.2569    3.0990   -0.4950 H   0  0  0  0  0  0  0  0  0  0  0  0
   -3.1197    3.7258    0.7220 H   0  0  0  0  0  0  0  0  0  0  0  0
  5  6  2  0  0  0  0
  5  7  1  0  0  0  0
  2  3  1  0  0  0  0
  2  4  1  0  0  0  0
  2  5  1  0  0  0  0
  1  2  1  0  0  0  0
 29 30  2  0  0  0  0
 29 31  1  0  0  0  0
 26 27  1  0  0  0  0
 26 28  1  0  0  0  0
 23 24  1  0  0  0  0
 23 25  1  0  0  0  0
 22 23  1  0  0  0  0
 22 26  1  0  0  0  0
 20 21  1  0  0  0  0
 20 22  2  0  0  0  0
 17 18  1  0  0  0  0
 17 19  1  0  0  0  0
 17 20  1  0  0  0  0
 14 15  1  0  0  0  0
 14 16  1  0  0  0  0
 14 17  1  0  0  0  0
 11 12  1  0  0  0  0
 11 13  1  0  0  0  0
 11 14  1  0  0  0  0
  9 10  1  0  0  0  0
  9 11  1  0  0  0  0
  9 29  1  0  0  0  0
  7  8  1  0  0  0  0
  7  9  1  0  0  0  0
 33 34  1  0  0  0  0
 33 35  1  0  0  0  0
 33 36  1  0  0  0  0
 31 32  1  0  0  0  0
 31 33  1  0  0  0  0
M  CHG  1  20   1
M  END
$$$$
default_name
  -OEChem-01062215323D

 36 35  0     1  0  0  0  0  0999 V2000
   -4.2256   -3.6731    1.8584 H   0  0  0  0  0  0  0  0  0  0  0  0
   -4.2396   -2.6781    1.4144 C   0  0  0  0  0  0  0  0  0  0  0  0
   -4.9506   -2.0521    1.9514 H   0  0  0  0  0  0  0  0  0  0  0  0
   -4.5266   -2.7521    0.3674 H   0  0  0  0  0  0  0  0  0  0  0  0
   -2.8576   -2.0761    1.5184 C   0  0  0  0  0  0  0  0  0  0  0  0
   -1.9456   -2.7051    2.0404 O   0  0  0  0  0  0  0  0  0  0  0  0
   -2.6926   -0.8481    1.0174 N   0  0  0  0  0  0  0  0  0  0  0  0
   -3.4926   -0.3971    0.5954 H   0  0  0  0  0  0  0  0  0  0  0  0
   -1.4216   -0.1071    1.0434 C   0  0  1  0  0  0  0  0  0  0  0  0
   -0.9926   -0.1949    2.0430 H   0  0  0  0  0  0  0  0  0  0  0  0
   -0.4572   -0.7569    0.0310 C   0  0  0  0  0  0  0  0  0  0  0  0
   -0.9548   -0.8100   -0.9395 H   0  0  0  0  0  0  0  0  0  0  0  0
    0.4273   -0.1250   -0.0756 H   0  0  0  0  0  0  0  0  0  0  0  0
   -0.0193   -2.1746    0.4269 C   0  0  0  0  0  0  0  0  0  0  0  0
    0.4920   -2.1473    1.3901 H   0  0  0  0  0  0  0  0  0  0  0  0
   -0.8983   -2.8154    0.5035 H   0  0  0  0  0  0  0  0  0  0  0  0
    0.9350   -2.7417   -0.6329 C   0  0  0  0  0  0  0  0  0  0  0  0
    0.4242   -2.7405   -1.5985 H   0  0  0  0  0  0  0  0  0  0  0  0
    1.8104   -2.0911   -0.6962 H   0  0  0  0  0  0  0  0  0  0  0  0
    1.3644   -4.1167   -0.3044 N   0  3  0  0  0  0  0  0  0  0  0  0
    1.0356   -4.4966    0.5667 H   0  0  0  0  0  0  0  0  0  0  0  0
    2.1377   -4.8921   -1.0459 C   0  0  0  0  0  0  0  0  0  0  0  0
    2.6185   -4.4990   -2.1920 N   0  0  0  0  0  0  0  0  0  0  0  0
    2.3917   -3.5772   -2.5212 H   0  0  0  0  0  0  0  0  0  0  0  0
    3.2042   -5.0999   -2.7422 H   0  0  0  0  0  0  0  0  0  0  0  0
    2.4476   -6.0922   -0.6445 N   0  0  0  0  0  0  0  0  0  0  0  0
    2.1004   -6.4400    0.2326 H   0  0  0  0  0  0  0  0  0  0  0  0
    3.0345   -6.6772   -1.2101 H   0  0  0  0  0  0  0  0  0  0  0  0
   -1.6581    1.3731    0.7367 C   0  0  0  0  0  0  0  0  0  0  0  0
   -0.7125    2.1520    0.7483 O   0  0  0  0  0  0  0  0  0  0  0  0
   -2.9180    1.7535    0.5029 N   0  0  0  0  0  0  0  0  0  0  0  0
   -3.6283    1.0403    0.4763 H   0  0  0  0  0  0  0  0  0  0  0  0
   -3.3141    3.1283    0.1931 C   0  0  0  0  0  0  0  0  0  0  0  0
   -2.8652    3.4376   -0.7533 H   0  0  0  0  0  0  0  0  0  0  0  0
   -4.3994    3.2021    0.1127 H   0  0  0  0  0  0  0  0  0  0  0  0
   -2.9647    3.8035    0.9772 H   0  0  0  0  0  0  0  0  0  0  0  0
  5  6  2  0  0  0  0
  5  7  1  0  0  0  0
  2  3  1  0  0  0  0
  2  4  1  0  0  0  0
  2  5  1  0  0  0  0
  1  2  1  0  0  0  0
 29 30  2  0  0  0  0
 29 31  1  0  0  0  0
 26 27  1  0  0  0  0
 26 28  1  0  0  0  0
 23 24  1  0  0  0  0
 23 25  1  0  0  0  0
 22 23  1  0  0  0  0
 22 26  1  0  0  0  0
 20 21  1  0  0  0  0
 20 22  2  0  0  0  0
 17 18  1  0  0  0  0
 17 19  1  0  0  0  0
 17 20  1  0  0  0  0
 14 15  1  0  0  0  0
 14 16  1  0  0  0  0
 14 17  1  0  0  0  0
 11 12  1  0  0  0  0
 11 13  1  0  0  0  0
 11 14  1  0  0  0  0
  9 10  1  0  0  0  0
  9 11  1  0  0  0  0
  9 29  1  0  0  0  0
  7  8  1  0  0  0  0
  7  9  1  0  0  0  0
 33 34  1  0  0  0  0
 33 35  1  0  0  0  0
 33 36  1  0  0  0  0
 31 32  1  0  0  0  0
 31 33  1  0  0  0  0
M  CHG  1  20   1
M  END
$$$$
default_name
  -OEChem-01062215323D

 36 35  0     1  0  0  0  0  0999 V2000
   -4.2256   -3.6731    1.8584 H   0  0  0  0  0  0  0  0  0  0  0  0
   -4.2396   -2.6781    1.4144 C   0  0  0  0  0  0  0  0  0  0  0  0
   -4.9506   -2.0521    1.9514 H   0  0  0  0  0  0  0  0  0  0  0  0
   -4.5266   -2.7521    0.3674 H   0  0  0  0  0  0  0  0  0  0  0  0
   -2.8576   -2.0761    1.5184 C   0  0  0  0  0  0  0  0  0  0  0  0
   -1.9456   -2.7051    2.0404 O   0  0  0  0  0  0  0  0  0  0  0  0
   -2.6926   -0.8481    1.0174 N   0  0  0  0  0  0  0  0  0  0  0  0
   -3.4926   -0.3971    0.5954 H   0  0  0  0  0  0  0  0  0  0  0  0
   -1.4216   -0.1071    1.0434 C   0  0  1  0  0  0  0  0  0  0  0  0
   -0.9926   -0.1949    2.0430 H   0  0  0  0  0  0  0  0  0  0  0  0
   -0.4572   -0.7569    0.0310 C   0  0  0  0  0  0  0  0  0  0  0  0
   -0.9548   -0.8100   -0.9395 H   0  0  0  0  0  0  0  0  0  0  0  0
    0.4273   -0.1250   -0.0756 H   0  0  0  0  0  0  0  0  0  0  0  0
   -0.0193   -2.1746    0.4269 C   0  0  0  0  0  0  0  0  0  0  0  0
    0.4920   -2.1473    1.3901 H   0  0  0  0  0  0  0  0  0  0  0  0
   -0.8983   -2.8154    0.5035 H   0  0  0  0  0  0  0  0  0  0  0  0
    0.9350   -2.7417   -0.6329 C   0  0  0  0  0  0  0  0  0  0  0  0
    0.4242   -2.7405   -1.5985 H   0  0  0  0  0  0  0  0  0  0  0  0
    1.8104   -2.0911   -0.6962 H   0  0  0  0  0  0  0  0  0  0  0  0
    1.3644   -4.1167   -0.3044 N   0  3  0  0  0  0  0  0  0  0  0  0
    1.0356   -4.4966    0.5667 H   0  0  0  0  0  0  0  0  0  0  0  0
    2.1377   -4.8921   -1.0459 C   0  0  0  0  0  0  0  0  0  0  0  0
    2.6185   -4.4990   -2.1920 N   0  0  0  0  0  0  0  0  0  0  0  0
    2.3917   -3.5772   -2.5212 H   0  0  0  0  0  0  0  0  0  0  0  0
    3.2042   -5.0999   -2.7422 H   0  0  0  0  0  0  0  0  0  0  0  0
    2.4476   -6.0922   -0.6445 N   0  0  0  0  0  0  0  0  0  0  0  0
    2.1004   -6.4400    0.2326 H   0  0  0  0  0  0  0  0  0  0  0  0
    3.0345   -6.6772   -1.2101 H   0  0  0  0  0  0  0  0  0  0  0  0
   -1.6581    1.3731    0.7367 C   0  0  0  0  0  0  0  0  0  0  0  0
   -0.7046    2.0969    0.4758 O   0  0  0  0  0  0  0  0  0  0  0  0
   -2.9171    1.8167    0.8070 N   0  0  0  0  0  0  0  0  0  0  0  0
   -3.6438    1.1446    0.9915 H   0  0  0  0  0  0  0  0  0  0  0  0
   -3.3136    3.2007    0.5419 C   0  0  0  0  0  0  0  0  0  0  0  0
   -3.1031    3.4521   -0.4998 H   0  0  0  0  0  0  0  0  0  0  0  0
   -4.3795    3.3335    0.7314 H   0  0  0  0  0  0  0  0  0  0  0  0
   -2.7470    3.8806    1.1818 H   0  0  0  0  0  0  0  0  0  0  0  0
  5  6  2  0  0  0  0
  5  7  1  0  0  0  0
  2  3  1  0  0  0  0
  2  4  1  0  0  0  0
  2  5  1  0  0  0  0
  1  2  1  0  0  0  0
 29 30  2  0  0  0  0
 29 31  1  0  0  0  0
 26 27  1  0  0  0  0
 26 28  1  0  0  0  0
 23 24  1  0  0  0  0
 23 25  1  0  0  0  0
 22 23  1  0  0  0  0
 22 26  1  0  0  0  0
 20 21  1  0  0  0  0
 20 22  2  0  0  0  0
 17 18  1  0  0  0  0
 17 19  1  0  0  0  0
 17 20  1  0  0  0  0
 14 15  1  0  0  0  0
 14 16  1  0  0  0  0
 14 17  1  0  0  0  0
 11 12  1  0  0  0  0
 11 13  1  0  0  0  0
 11 14  1  0  0  0  0
  9 10  1  0  0  0  0
  9 11  1  0  0  0  0
  9 29  1  0  0  0  0
  7  8  1  0  0  0  0
  7  9  1  0  0  0  0
 33 34  1  0  0  0  0
 33 35  1  0  0  0  0
 33 36  1  0  0  0  0
 31 32  1  0  0  0  0
 31 33  1  0  0  0  0
M  CHG  1  20   1
M  END
$$$$
default_name
  -OEChem-01062215323D

 36 35  0     1  0  0  0  0  0999 V2000
   -4.2256   -3.6731    1.8584 H   0  0  0  0  0  0  0  0  0  0  0  0
   -4.2396   -2.6781    1.4144 C   0  0  0  0  0  0  0  0  0  0  0  0
   -4.9506   -2.0521    1.9514 H   0  0  0  0  0  0  0  0  0  0  0  0
   -4.5266   -2.7521    0.3674 H   0  0  0  0  0  0  0  0  0  0  0  0
   -2.8576   -2.0761    1.5184 C   0  0  0  0  0  0  0  0  0  0  0  0
   -1.9456   -2.7051    2.0404 O   0  0  0  0  0  0  0  0  0  0  0  0
   -2.6926   -0.8481    1.0174 N   0  0  0  0  0  0  0  0  0  0  0  0
   -3.4926   -0.3971    0.5954 H   0  0  0  0  0  0  0  0  0  0  0  0
   -1.4216   -0.1071    1.0434 C   0  0  1  0  0  0  0  0  0  0  0  0
   -0.9926   -0.1949    2.0430 H   0  0  0  0  0  0  0  0  0  0  0  0
   -0.4572   -0.7569    0.0310 C   0  0  0  0  0  0  0  0  0  0  0  0
   -0.9548   -0.8100   -0.9395 H   0  0  0  0  0  0  0  0  0  0  0  0
    0.4273   -0.1250   -0.0756 H   0  0  0  0  0  0  0  0  0  0  0  0
   -0.0193   -2.1746    0.4269 C   0  0  0  0  0  0  0  0  0  0  0  0
    0.4920   -2.1473    1.3901 H   0  0  0  0  0  0  0  0  0  0  0  0
   -0.8983   -2.8154    0.5035 H   0  0  0  0  0  0  0  0  0  0  0  0
    0.9350   -2.7417   -0.6329 C   0  0  0  0  0  0  0  0  0  0  0  0
    0.4242   -2.7405   -1.5985 H   0  0  0  0  0  0  0  0  0  0  0  0
    1.8104   -2.0911   -0.6962 H   0  0  0  0  0  0  0  0  0  0  0  0
    1.3644   -4.1167   -0.3044 N   0  3  0  0  0  0  0  0  0  0  0  0
    1.0356   -4.4966    0.5667 H   0  0  0  0  0  0  0  0  0  0  0  0
    2.1377   -4.8921   -1.0459 C   0  0  0  0  0  0  0  0  0  0  0  0
    2.6185   -4.4990   -2.1920 N   0  0  0  0  0  0  0  0  0  0  0  0
    2.3917   -3.5772   -2.5212 H   0  0  0  0  0  0  0  0  0  0  0  0
    3.2042   -5.0999   -2.7422 H   0  0  0  0  0  0  0  0  0  0  0  0
    2.4476   -6.0922   -0.6445 N   0  0  0  0  0  0  0  0  0  0  0  0
    2.1004   -6.4400    0.2326 H   0  0  0  0  0  0  0  0  0  0  0  0
    3.0345   -6.6772   -1.2101 H   0  0  0  0  0  0  0  0  0  0  0  0
   -1.6581    1.3731    0.7367 C   0  0  0  0  0  0  0  0  0  0  0  0
   -0.7680    2.0322    0.2129 O   0  0  0  0  0  0  0  0  0  0  0  0
   -2.8368    1.8898    1.0979 N   0  0  0  0  0  0  0  0  0  0  0  0
   -3.5244    1.2668    1.4889 H   0  0  0  0  0  0  0  0  0  0  0  0
   -3.2220    3.2845    0.8759 C   0  0  0  0  0  0  0  0  0  0  0  0
   -3.2687    3.4886   -0.1960 H   0  0  0  0  0  0  0  0  0  0  0  0
   -4.1986    3.4841    1.3187 H   0  0  0  0  0  0  0  0  0  0  0  0
   -2.4816    3.9521    1.3219 H   0  0  0  0  0  0  0  0  0  0  0  0
  5  6  2  0  0  0  0
  5  7  1  0  0  0  0
  2  3  1  0  0  0  0
  2  4  1  0  0  0  0
  2  5  1  0  0  0  0
  1  2  1  0  0  0  0
 29 30  2  0  0  0  0
 29 31  1  0  0  0  0
 26 27  1  0  0  0  0
 26 28  1  0  0  0  0
 23 24  1  0  0  0  0
 23 25  1  0  0  0  0
 22 23  1  0  0  0  0
 22 26  1  0  0  0  0
 20 21  1  0  0  0  0
 20 22  2  0  0  0  0
 17 18  1  0  0  0  0
 17 19  1  0  0  0  0
 17 20  1  0  0  0  0
 14 15  1  0  0  0  0
 14 16  1  0  0  0  0
 14 17  1  0  0  0  0
 11 12  1  0  0  0  0
 11 13  1  0  0  0  0
 11 14  1  0  0  0  0
  9 10  1  0  0  0  0
  9 11  1  0  0  0  0
  9 29  1  0  0  0  0
  7  8  1  0  0  0  0
  7  9  1  0  0  0  0
 33 34  1  0  0  0  0
 33 35  1  0  0  0  0
 33 36  1  0  0  0  0
 31 32  1  0  0  0  0
 31 33  1  0  0  0  0
M  CHG  1  20   1
M  END
$$$$
default_name
  -OEChem-01062215323D

 36 35  0     1  0  0  0  0  0999 V2000
   -4.2256   -3.6731    1.8584 H   0  0  0  0  0  0  0  0  0  0  0  0
   -4.2396   -2.6781    1.4144 C   0  0  0  0  0  0  0  0  0  0  0  0
   -4.9506   -2.0521    1.9514 H   0  0  0  0  0  0  0  0  0  0  0  0
   -4.5266   -2.7521    0.3674 H   0  0  0  0  0  0  0  0  0  0  0  0
   -2.8576   -2.0761    1.5184 C   0  0  0  0  0  0  0  0  0  0  0  0
   -1.9456   -2.7051    2.0404 O   0  0  0  0  0  0  0  0  0  0  0  0
   -2.6926   -0.8481    1.0174 N   0  0  0  0  0  0  0  0  0  0  0  0
   -3.4926   -0.3971    0.5954 H   0  0  0  0  0  0  0  0  0  0  0  0
   -1.4216   -0.1071    1.0434 C   0  0  1  0  0  0  0  0  0  0  0  0
   -0.9926   -0.1949    2.0430 H   0  0  0  0  0  0  0  0  0  0  0  0
   -0.4572   -0.7569    0.0310 C   0  0  0  0  0  0  0  0  0  0  0  0
   -0.9548   -0.8100   -0.9395 H   0  0  0  0  0  0  0  0  0  0  0  0
    0.4273   -0.1250   -0.0756 H   0  0  0  0  0  0  0  0  0  0  0  0
   -0.0193   -2.1746    0.4269 C   0  0  0  0  0  0  0  0  0  0  0  0
    0.4920   -2.1473    1.3901 H   0  0  0  0  0  0  0  0  0  0  0  0
   -0.8983   -2.8154    0.5035 H   0  0  0  0  0  0  0  0  0  0  0  0
    0.9350   -2.7417   -0.6329 C   0  0  0  0  0  0  0  0  0  0  0  0
    0.4242   -2.7405   -1.5985 H   0  0  0  0  0  0  0  0  0  0  0  0
    1.8104   -2.0911   -0.6962 H   0  0  0  0  0  0  0  0  0  0  0  0
    1.3644   -4.1167   -0.3044 N   0  3  0  0  0  0  0  0  0  0  0  0
    1.0356   -4.4966    0.5667 H   0  0  0  0  0  0  0  0  0  0  0  0
    2.1377   -4.8921   -1.0459 C   0  0  0  0  0  0  0  0  0  0  0  0
    2.6185   -4.4990   -2.1920 N   0  0  0  0  0  0  0  0  0  0  0  0
    2.3917   -3.5772   -2.5212 H   0  0  0  0  0  0  0  0  0  0  0  0
    3.2042   -5.0999   -2.7422 H   0  0  0  0  0  0  0  0  0  0  0  0
    2.4476   -6.0922   -0.6445 N   0  0  0  0  0  0  0  0  0  0  0  0
    2.1004   -6.4400    0.2326 H   0  0  0  0  0  0  0  0  0  0  0  0
    3.0345   -6.6772   -1.2101 H   0  0  0  0  0  0  0  0  0  0  0  0
   -1.6581    1.3731    0.7367 C   0  0  0  0  0  0  0  0  0  0  0  0
   -0.8985    1.9626   -0.0227 O   0  0  0  0  0  0  0  0  0  0  0  0
   -2.6826    1.9679    1.3559 N   0  0  0  0  0  0  0  0  0  0  0  0
   -3.2781    1.3985    1.9346 H   0  0  0  0  0  0  0  0  0  0  0  0
   -3.0456    3.3741    1.1721 C   0  0  0  0  0  0  0  0  0  0  0  0
   -3.3507    3.5446    0.1375 H   0  0  0  0  0  0  0  0  0  0  0  0
   -3.8690    3.6437    1.8347 H   0  0  0  0  0  0  0  0  0  0  0  0
   -2.1864    4.0129    1.3878 H   0  0  0  0  0  0  0  0  0  0  0  0
  5  6  2  0  0  0  0
  5  7  1  0  0  0  0
  2  3  1  0  0  0  0
  2  4  1  0  0  0  0
  2  5  1  0  0  0  0
  1  2  1  0  0  0  0
 29 30  2  0  0  0  0
 29 31  1  0  0  0  0
 26 27  1  0  0  0  0
 26 28  1  0  0  0  0
 23 24  1  0  0  0  0
 23 25  1  0  0  0  0
 22 23  1  0  0  0  0
 22 26  1  0  0  0  0
 20 21  1  0  0  0  0
 20 22  2  0  0  0  0
 17 18  1  0  0  0  0
 17 19  1  0  0  0  0
 17 20  1  0  0  0  0
 14 15  1  0  0  0  0
 14 16  1  0  0  0  0
 14 17  1  0  0  0  0
 11 12  1  0  0  0  0
 11 13  1  0  0  0  0
 11 14  1  0  0  0  0
  9 10  1  0  0  0  0
  9 11  1  0  0  0  0
  9 29  1  0  0  0  0
  7  8  1  0  0  0  0
  7  9  1  0  0  0  0
 33 34  1  0  0  0  0
 33 35  1  0  0  0  0
 33 36  1  0  0  0  0
 31 32  1  0  0  0  0
 31 33  1  0  0  0  0
M  CHG  1  20   1
M  END
$$$$
default_name
  -OEChem-01062215323D

 36 35  0     1  0  0  0  0  0999 V2000
   -4.2256   -3.6731    1.8584 H   0  0  0  0  0  0  0  0  0  0  0  0
   -4.2396   -2.6781    1.4144 C   0  0  0  0  0  0  0  0  0  0  0  0
   -4.9506   -2.0521    1.9514 H   0  0  0  0  0  0  0  0  0  0  0  0
   -4.5266   -2.7521    0.3674 H   0  0  0  0  0  0  0  0  0  0  0  0
   -2.8576   -2.0761    1.5184 C   0  0  0  0  0  0  0  0  0  0  0  0
   -1.9456   -2.7051    2.0404 O   0  0  0  0  0  0  0  0  0  0  0  0
   -2.6926   -0.8481    1.0174 N   0  0  0  0  0  0  0  0  0  0  0  0
   -3.4926   -0.3971    0.5954 H   0  0  0  0  0  0  0  0  0  0  0  0
   -1.4216   -0.1071    1.0434 C   0  0  1  0  0  0  0  0  0  0  0  0
   -0.9926   -0.1949    2.0430 H   0  0  0  0  0  0  0  0  0  0  0  0
   -0.4572   -0.7569    0.0310 C   0  0  0  0  0  0  0  0  0  0  0  0
   -0.9548   -0.8100   -0.9395 H   0  0  0  0  0  0  0  0  0  0  0  0
    0.4273   -0.1250   -0.0756 H   0  0  0  0  0  0  0  0  0  0  0  0
   -0.0193   -2.1746    0.4269 C   0  0  0  0  0  0  0  0  0  0  0  0
    0.4920   -2.1473    1.3901 H   0  0  0  0  0  0  0  0  0  0  0  0
   -0.8983   -2.8154    0.5035 H   0  0  0  0  0  0  0  0  0  0  0  0
    0.9350   -2.7417   -0.6329 C   0  0  0  0  0  0  0  0  0  0  0  0
    0.4242   -2.7405   -1.5985 H   0  0  0  0  0  0  0  0  0  0  0  0
    1.8104   -2.0911   -0.6962 H   0  0  0  0  0  0  0  0  0  0  0  0
    1.3644   -4.1167   -0.3044 N   0  3  0  0  0  0  0  0  0  0  0  0
    1.0356   -4.4966    0.5667 H   0  0  0  0  0  0  0  0  0  0  0  0
    2.1377   -4.8921   -1.0459 C   0  0  0  0  0  0  0  0  0  0  0  0
    2.6185   -4.4990   -2.1920 N   0  0  0  0  0  0  0  0  0  0  0  0
    2.3917   -3.5772   -2.5212 H   0  0  0  0  0  0  0  0  0  0  0  0
    3.2042   -5.0999   -2.7422 H   0  0  0  0  0  0  0  0  0  0  0  0
    2.4476   -6.0922   -0.6445 N   0  0  0  0  0  0  0  0  0  0  0  0
    2.1004   -6.4400    0.2326 H   0  0  0  0  0  0  0  0  0  0  0  0
    3.0345   -6.6772   -1.2101 H   0  0  0  0  0  0  0  0  0  0  0  0
   -1.6581    1.3731    0.7367 C   0  0  0  0  0  0  0  0  0  0  0  0
   -1.0871    1.8926   -0.2147 O   0  0  0  0  0  0  0  0  0  0  0  0
   -2.4650    2.0457    1.5633 N   0  0  0  0  0  0  0  0  0  0  0  0
   -2.9219    1.5307    2.2982 H   0  0  0  0  0  0  0  0  0  0  0  0
   -2.7963    3.4633    1.4106 C   0  0  0  0  0  0  0  0  0  0  0  0
   -3.3435    3.6162    0.4779 H   0  0  0  0  0  0  0  0  0  0  0  0
   -3.4132    3.8014    2.2442 H   0  0  0  0  0  0  0  0  0  0  0  0
   -1.8816    4.0590    1.3752 H   0  0  0  0  0  0  0  0  0  0  0  0
  5  6  2  0  0  0  0
  5  7  1  0  0  0  0
  2  3  1  0  0  0  0
  2  4  1  0  0  0  0
  2  5  1  0  0  0  0
  1  2  1  0  0  0  0
 29 30  2  0  0  0  0
 29 31  1  0  0  0  0
 26 27  1  0  0  0  0
 26 28  1  0  0  0  0
 23 24  1  0  0  0  0
 23 25  1  0  0  0  0
 22 23  1  0  0  0  0
 22 26  1  0  0  0  0
 20 21  1  0  0  0  0
 20 22  2  0  0  0  0
 17 18  1  0  0  0  0
 17 19  1  0  0  0  0
 17 20  1  0  0  0  0
 14 15  1  0  0  0  0
 14 16  1  0  0  0  0
 14 17  1  0  0  0  0
 11 12  1  0  0  0  0
 11 13  1  0  0  0  0
 11 14  1  0  0  0  0
  9 10  1  0  0  0  0
  9 11  1  0  0  0  0
  9 29  1  0  0  0  0
  7  8  1  0  0  0  0
  7  9  1  0  0  0  0
 33 34  1  0  0  0  0
 33 35  1  0  0  0  0
 33 36  1  0  0  0  0
 31 32  1  0  0  0  0
 31 33  1  0  0  0  0
M  CHG  1  20   1
M  END
$$$$
default_name
  -OEChem-01062215323D

 36 35  0     1  0  0  0  0  0999 V2000
   -4.2256   -3.6731    1.8584 H   0  0  0  0  0  0  0  0  0  0  0  0
   -4.2396   -2.6781    1.4144 C   0  0  0  0  0  0  0  0  0  0  0  0
   -4.9506   -2.0521    1.9514 H   0  0  0  0  0  0  0  0  0  0  0  0
   -4.5266   -2.7521    0.3674 H   0  0  0  0  0  0  0  0  0  0  0  0
   -2.8576   -2.0761    1.5184 C   0  0  0  0  0  0  0  0  0  0  0  0
   -1.9456   -2.7051    2.0404 O   0  0  0  0  0  0  0  0  0  0  0  0
   -2.6926   -0.8481    1.0174 N   0  0  0  0  0  0  0  0  0  0  0  0
   -3.4926   -0.3971    0.5954 H   0  0  0  0  0  0  0  0  0  0  0  0
   -1.4216   -0.1071    1.0434 C   0  0  1  0  0  0  0  0  0  0  0  0
   -0.9926   -0.1949    2.0430 H   0  0  0  0  0  0  0  0  0  0  0  0
   -0.4572   -0.7569    0.0310 C   0  0  0  0  0  0  0  0  0  0  0  0
   -0.9548   -0.8100   -0.9395 H   0  0  0  0  0  0  0  0  0  0  0  0
    0.4273   -0.1250   -0.0756 H   0  0  0  0  0  0  0  0  0  0  0  0
   -0.0193   -2.1746    0.4269 C   0  0  0  0  0  0  0  0  0  0  0  0
    0.4920   -2.1473    1.3901 H   0  0  0  0  0  0  0  0  0  0  0  0
   -0.8983   -2.8154    0.5035 H   0  0  0  0  0  0  0  0  0  0  0  0
    0.9350   -2.7417   -0.6329 C   0  0  0  0  0  0  0  0  0  0  0  0
    0.4242   -2.7405   -1.5985 H   0  0  0  0  0  0  0  0  0  0  0  0
    1.8104   -2.0911   -0.6962 H   0  0  0  0  0  0  0  0  0  0  0  0
    1.3644   -4.1167   -0.3044 N   0  3  0  0  0  0  0  0  0  0  0  0
    1.0356   -4.4966    0.5667 H   0  0  0  0  0  0  0  0  0  0  0  0
    2.1377   -4.8921   -1.0459 C   0  0  0  0  0  0  0  0  0  0  0  0
    2.6185   -4.4990   -2.1920 N   0  0  0  0  0  0  0  0  0  0  0  0
    2.3917   -3.5772   -2.5212 H   0  0  0  0  0  0  0  0  0  0  0  0
    3.2042   -5.0999   -2.7422 H   0  0  0  0  0  0  0  0  0  0  0  0
    2.4476   -6.0922   -0.6445 N   0  0  0  0  0  0  0  0  0  0  0  0
    2.1004   -6.4400    0.2326 H   0  0  0  0  0  0  0  0  0  0  0  0
    3.0345   -6.6772   -1.2101 H   0  0  0  0  0  0  0  0  0  0  0  0
   -1.6581    1.3731    0.7367 C   0  0  0  0  0  0  0  0  0  0  0  0
   -1.3211    1.8272   -0.3502 O   0  0  0  0  0  0  0  0  0  0  0  0
   -2.1988    2.1178    1.7061 N   0  0  0  0  0  0  0  0  0  0  0  0
   -2.4798    1.6546    2.5549 H   0  0  0  0  0  0  0  0  0  0  0  0
   -2.4912    3.5461    1.5749 C   0  0  0  0  0  0  0  0  0  0  0  0
   -3.2475    3.6987    0.8020 H   0  0  0  0  0  0  0  0  0  0  0  0
   -2.8621    3.9465    2.5193 H   0  0  0  0  0  0  0  0  0  0  0  0
   -1.5879    4.0872    1.2848 H   0  0  0  0  0  0  0  0  0  0  0  0
  5  6  2  0  0  0  0
  5  7  1  0  0  0  0
  2  3  1  0  0  0  0
  2  4  1  0  0  0  0
  2  5  1  0  0  0  0
  1  2  1  0  0  0  0
 29 30  2  0  0  0  0
 29 31  1  0  0  0  0
 26 27  1  0  0  0  0
 26 28  1  0  0  0  0
 23 24  1  0  0  0  0
 23 25  1  0  0  0  0
 22 23  1  0  0  0  0
 22 26  1  0  0  0  0
 20 21  1  0  0  0  0
 20 22  2  0  0  0  0
 17 18  1  0  0  0  0
 17 19  1  0  0  0  0
 17 20  1  0  0  0  0
 14 15  1  0  0  0  0
 14 16  1  0  0  0  0
 14 17  1  0  0  0  0
 11 12  1  0  0  0  0
 11 13  1  0  0  0  0
 11 14  1  0  0  0  0
  9 10  1  0  0  0  0
  9 11  1  0  0  0  0
  9 29  1  0  0  0  0
  7  8  1  0  0  0  0
  7  9  1  0  0  0  0
 33 34  1  0  0  0  0
 33 35  1  0  0  0  0
 33 36  1  0  0  0  0
 31 32  1  0  0  0  0
 31 33  1  0  0  0  0
M  CHG  1  20   1
M  END
$$$$
default_name
  -OEChem-01062215323D

 36 35  0     1  0  0  0  0  0999 V2000
   -4.2256   -3.6731    1.8584 H   0  0  0  0  0  0  0  0  0  0  0  0
   -4.2396   -2.6781    1.4144 C   0  0  0  0  0  0  0  0  0  0  0  0
   -4.9506   -2.0521    1.9514 H   0  0  0  0  0  0  0  0  0  0  0  0
   -4.5266   -2.7521    0.3674 H   0  0  0  0  0  0  0  0  0  0  0  0
   -2.8576   -2.0761    1.5184 C   0  0  0  0  0  0  0  0  0  0  0  0
   -1.9456   -2.7051    2.0404 O   0  0  0  0  0  0  0  0  0  0  0  0
   -2.6926   -0.8481    1.0174 N   0  0  0  0  0  0  0  0  0  0  0  0
   -3.4926   -0.3971    0.5954 H   0  0  0  0  0  0  0  0  0  0  0  0
   -1.4216   -0.1071    1.0434 C   0  0  1  0  0  0  0  0  0  0  0  0
   -0.9926   -0.1949    2.0430 H   0  0  0  0  0  0  0  0  0  0  0  0
   -0.4572   -0.7569    0.0310 C   0  0  0  0  0  0  0  0  0  0  0  0
   -0.9548   -0.8100   -0.9395 H   0  0  0  0  0  0  0  0  0  0  0  0
    0.4273   -0.1250   -0.0756 H   0  0  0  0  0  0  0  0  0  0  0  0
   -0.0193   -2.1746    0.4269 C   0  0  0  0  0  0  0  0  0  0  0  0
    0.4920   -2.1473    1.3901 H   0  0  0  0  0  0  0  0  0  0  0  0
   -0.8983   -2.8154    0.5035 H   0  0  0  0  0  0  0  0  0  0  0  0
    0.9350   -2.7417   -0.6329 C   0  0  0  0  0  0  0  0  0  0  0  0
    0.4242   -2.7405   -1.5985 H   0  0  0  0  0  0  0  0  0  0  0  0
    1.8104   -2.0911   -0.6962 H   0  0  0  0  0  0  0  0  0  0  0  0
    1.3644   -4.1167   -0.3044 N   0  3  0  0  0  0  0  0  0  0  0  0
    1.0356   -4.4966    0.5667 H   0  0  0  0  0  0  0  0  0  0  0  0
    2.1377   -4.8921   -1.0459 C   0  0  0  0  0  0  0  0  0  0  0  0
    2.6185   -4.4990   -2.1920 N   0  0  0  0  0  0  0  0  0  0  0  0
    2.3917   -3.5772   -2.5212 H   0  0  0  0  0  0  0  0  0  0  0  0
    3.2042   -5.0999   -2.7422 H   0  0  0  0  0  0  0  0  0  0  0  0
    2.4476   -6.0922   -0.6445 N   0  0  0  0  0  0  0  0  0  0  0  0
    2.1004   -6.4400    0.2326 H   0  0  0  0  0  0  0  0  0  0  0  0
    3.0345   -6.6772   -1.2101 H   0  0  0  0  0  0  0  0  0  0  0  0
   -1.6581    1.3731    0.7367 C   0  0  0  0  0  0  0  0  0  0  0  0
   -1.5843    1.7707   -0.4198 O   0  0  0  0  0  0  0  0  0  0  0  0
   -1.9023    2.1794    1.7745 N   0  0  0  0  0  0  0  0  0  0  0  0
   -1.9822    1.7615    2.6872 H   0  0  0  0  0  0  0  0  0  0  0  0
   -2.1511    3.6168    1.6539 C   0  0  0  0  0  0  0  0  0  0  0  0
   -3.0695    3.7864    1.0877 H   0  0  0  0  0  0  0  0  0  0  0  0
   -2.2535    4.0690    2.6412 H   0  0  0  0  0  0  0  0  0  0  0  0
   -1.3255    4.0956    1.1229 H   0  0  0  0  0  0  0  0  0  0  0  0
  5  6  2  0  0  0  0
  5  7  1  0  0  0  0
  2  3  1  0  0  0  0
  2  4  1  0  0  0  0
  2  5  1  0  0  0  0
  1  2  1  0  0  0  0
 29 30  2  0  0  0  0
 29 31  1  0  0  0  0
 26 27  1  0  0  0  0
 26 28  1  0  0  0  0
 23 24  1  0  0  0  0
 23 25  1  0  0  0  0
 22 23  1  0  0  0  0
 22 26  1  0  0  0  0
 20 21  1  0  0  0  0
 20 22  2  0  0  0  0
 17 18  1  0  0  0  0
 17 19  1  0  0  0  0
 17 20  1  0  0  0  0
 14 15  1  0  0  0  0
 14 16  1  0  0  0  0
 14 17  1  0  0  0  0
 11 12  1  0  0  0  0
 11 13  1  0  0  0  0
 11 14  1  0  0  0  0
  9 10  1  0  0  0  0
  9 11  1  0  0  0  0
  9 29  1  0  0  0  0
  7  8  1  0  0  0  0
  7  9  1  0  0  0  0
 33 34  1  0  0  0  0
 33 35  1  0  0  0  0
 33 36  1  0  0  0  0
 31 32  1  0  0  0  0
 31 33  1  0  0  0  0
M  CHG  1  20   1
M  END
$$$$
default_name
  -OEChem-01062215323D

 36 35  0     1  0  0  0  0  0999 V2000
   -4.2256   -3.6731    1.8584 H   0  0  0  0  0  0  0  0  0  0  0  0
   -4.2396   -2.6781    1.4144 C   0  0  0  0  0  0  0  0  0  0  0  0
   -4.9506   -2.0521    1.9514 H   0  0  0  0  0  0  0  0  0  0  0  0
   -4.5266   -2.7521    0.3674 H   0  0  0  0  0  0  0  0  0  0  0  0
   -2.8576   -2.0761    1.5184 C   0  0  0  0  0  0  0  0  0  0  0  0
   -1.9456   -2.7051    2.0404 O   0  0  0  0  0  0  0  0  0  0  0  0
   -2.6926   -0.8481    1.0174 N   0  0  0  0  0  0  0  0  0  0  0  0
   -3.4926   -0.3971    0.5954 H   0  0  0  0  0  0  0  0  0  0  0  0
   -1.4216   -0.1071    1.0434 C   0  0  1  0  0  0  0  0  0  0  0  0
   -0.9926   -0.1949    2.0430 H   0  0  0  0  0  0  0  0  0  0  0  0
   -0.4572   -0.7569    0.0310 C   0  0  0  0  0  0  0  0  0  0  0  0
   -0.9548   -0.8100   -0.9395 H   0  0  0  0  0  0  0  0  0  0  0  0
    0.4273   -0.1250   -0.0756 H   0  0  0  0  0  0  0  0  0  0  0  0
   -0.0193   -2.1746    0.4269 C   0  0  0  0  0  0  0  0  0  0  0  0
    0.4920   -2.1473    1.3901 H   0  0  0  0  0  0  0  0  0  0  0  0
   -0.8983   -2.8154    0.5035 H   0  0  0  0  0  0  0  0  0  0  0  0
    0.9350   -2.7417   -0.6329 C   0  0  0  0  0  0  0  0  0  0  0  0
    0.4242   -2.7405   -1.5985 H   0  0  0  0  0  0  0  0  0  0  0  0
    1.8104   -2.0911   -0.6962 H   0  0  0  0  0  0  0  0  0  0  0  0
    1.3644   -4.1167   -0.3044 N   0  3  0  0  0  0  0  0  0  0  0  0
    1.0356   -4.4966    0.5667 H   0  0  0  0  0  0  0  0  0  0  0  0
    2.1377   -4.8921   -1.0459 C   0  0  0  0  0  0  0  0  0  0  0  0
    2.6185   -4.4990   -2.1920 N   0  0  0  0  0  0  0  0  0  0  0  0
    2.3917   -3.5772   -2.5212 H   0  0  0  0  0  0  0  0  0  0  0  0
    3.2042   -5.0999   -2.7422 H   0  0  0  0  0  0  0  0  0  0  0  0
    2.4476   -6.0922   -0.6445 N   0  0  0  0  0  0  0  0  0  0  0  0
    2.1004   -6.4400    0.2326 H   0  0  0  0  0  0  0  0  0  0  0  0
    3.0345   -6.6772   -1.2101 H   0  0  0  0  0  0  0  0  0  0  0  0
   -1.6581    1.3731    0.7367 C   0  0  0  0  0  0  0  0  0  0  0  0
   -1.8590    1.7270   -0.4189 O   0  0  0  0  0  0  0  0  0  0  0  0
   -1.5955    2.2262    1.7639 N   0  0  0  0  0  0  0  0  0  0  0  0
   -1.4628    1.8443    2.6861 H   0  0  0  0  0  0  0  0  0  0  0  0
   -1.7991    3.6707    1.6422 C   0  0  0  0  0  0  0  0  0  0  0  0
   -2.8213    3.8733    1.3156 H   0  0  0  0  0  0  0  0  0  0  0  0
   -1.6287    4.1606    2.6017 H   0  0  0  0  0  0  0  0  0  0  0  0
   -1.1120    4.0836    0.9004 H   0  0  0  0  0  0  0  0  0  0  0  0
  5  6  2  0  0  0  0
  5  7  1  0  0  0  0
  2  3  1  0  0  0  0
  2  4  1  0  0  0  0
  2  5  1  0  0  0  0
  1  2  1  0  0  0  0
 29 30  2  0  0  0  0
 29 31  1  0  0  0  0
 26 27  1  0  0  0  0
 26 28  1  0  0  0  0
 23 24  1  0  0  0  0
 23 25  1  0  0  0  0
 22 23  1  0  0  0  0
 22 26  1  0  0  0  0
 20 21  1  0  0  0  0
 20 22  2  0  0  0  0
 17 18  1  0  0  0  0
 17 19  1  0  0  0  0
 17 20  1  0  0  0  0
 14 15  1  0  0  0  0
 14 16  1  0  0  0  0
 14 17  1  0  0  0  0
 11 12  1  0  0  0  0
 11 13  1  0  0  0  0
 11 14  1  0  0  0  0
  9 10  1  0  0  0  0
  9 11  1  0  0  0  0
  9 29  1  0  0  0  0
  7  8  1  0  0  0  0
  7  9  1  0  0  0  0
 33 34  1  0  0  0  0
 33 35  1  0  0  0  0
 33 36  1  0  0  0  0
 31 32  1  0  0  0  0
 31 33  1  0  0  0  0
M  CHG  1  20   1
M  END
$$$$
default_name
  -OEChem-01062215323D

 36 35  0     1  0  0  0  0  0999 V2000
   -4.2256   -3.6731    1.8584 H   0  0  0  0  0  0  0  0  0  0  0  0
   -4.2396   -2.6781    1.4144 C   0  0  0  0  0  0  0  0  0  0  0  0
   -4.9506   -2.0521    1.9514 H   0  0  0  0  0  0  0  0  0  0  0  0
   -4.5266   -2.7521    0.3674 H   0  0  0  0  0  0  0  0  0  0  0  0
   -2.8576   -2.0761    1.5184 C   0  0  0  0  0  0  0  0  0  0  0  0
   -1.9456   -2.7051    2.0404 O   0  0  0  0  0  0  0  0  0  0  0  0
   -2.6926   -0.8481    1.0174 N   0  0  0  0  0  0  0  0  0  0  0  0
   -3.4926   -0.3971    0.5954 H   0  0  0  0  0  0  0  0  0  0  0  0
   -1.4216   -0.1071    1.0434 C   0  0  1  0  0  0  0  0  0  0  0  0
   -0.9926   -0.1949    2.0430 H   0  0  0  0  0  0  0  0  0  0  0  0
   -0.4572   -0.7569    0.0310 C   0  0  0  0  0  0  0  0  0  0  0  0
   -0.9548   -0.8100   -0.9395 H   0  0  0  0  0  0  0  0  0  0  0  0
    0.4273   -0.1250   -0.0756 H   0  0  0  0  0  0  0  0  0  0  0  0
   -0.0193   -2.1746    0.4269 C   0  0  0  0  0  0  0  0  0  0  0  0
    0.4920   -2.1473    1.3901 H   0  0  0  0  0  0  0  0  0  0  0  0
   -0.8983   -2.8154    0.5035 H   0  0  0  0  0  0  0  0  0  0  0  0
    0.9350   -2.7417   -0.6329 C   0  0  0  0  0  0  0  0  0  0  0  0
    0.4242   -2.7405   -1.5985 H   0  0  0  0  0  0  0  0  0  0  0  0
    1.8104   -2.0911   -0.6962 H   0  0  0  0  0  0  0  0  0  0  0  0
    1.3644   -4.1167   -0.3044 N   0  3  0  0  0  0  0  0  0  0  0  0
    1.0356   -4.4966    0.5667 H   0  0  0  0  0  0  0  0  0  0  0  0
    2.1377   -4.8921   -1.0459 C   0  0  0  0  0  0  0  0  0  0  0  0
    2.6185   -4.4990   -2.1920 N   0  0  0  0  0  0  0  0  0  0  0  0
    2.3917   -3.5772   -2.5212 H   0  0  0  0  0  0  0  0  0  0  0  0
    3.2042   -5.0999   -2.7422 H   0  0  0  0  0  0  0  0  0  0  0  0
    2.4476   -6.0922   -0.6445 N   0  0  0  0  0  0  0  0  0  0  0  0
    2.1004   -6.4400    0.2326 H   0  0  0  0  0  0  0  0  0  0  0  0
    3.0345   -6.6772   -1.2101 H   0  0  0  0  0  0  0  0  0  0  0  0
   -1.6581    1.3731    0.7367 C   0  0  0  0  0  0  0  0  0  0  0  0
   -2.1263    1.6990   -0.3475 O   0  0  0  0  0  0  0  0  0  0  0  0
   -1.2994    2.2551    1.6749 N   0  0  0  0  0  0  0  0  0  0  0  0
   -0.9571    1.8972    2.5516 H   0  0  0  0  0  0  0  0  0  0  0  0
   -1.4592    3.7039    1.5406 C   0  0  0  0  0  0  0  0  0  0  0  0
   -2.5201    3.9534    1.4702 H   0  0  0  0  0  0  0  0  0  0  0  0
   -1.0303    4.2152    2.4034 H   0  0  0  0  0  0  0  0  0  0  0  0
   -0.9622    4.0520    0.6325 H   0  0  0  0  0  0  0  0  0  0  0  0
  5  6  2  0  0  0  0
  5  7  1  0  0  0  0
  2  3  1  0  0  0  0
  2  4  1  0  0  0  0
  2  5  1  0  0  0  0
  1  2  1  0  0  0  0
 29 30  2  0  0  0  0
 29 31  1  0  0  0  0
 26 27  1  0  0  0  0
 26 28  1  0  0  0  0
 23 24  1  0  0  0  0
 23 25  1  0  0  0  0
 22 23  1  0  0  0  0
 22 26  1  0  0  0  0
 20 21  1  0  0  0  0
 20 22  2  0  0  0  0
 17 18  1  0  0  0  0
 17 19  1  0  0  0  0
 17 20  1  0  0  0  0
 14 15  1  0  0  0  0
 14 16  1  0  0  0  0
 14 17  1  0  0  0  0
 11 12  1  0  0  0  0
 11 13  1  0  0  0  0
 11 14  1  0  0  0  0
  9 10  1  0  0  0  0
  9 11  1  0  0  0  0
  9 29  1  0  0  0  0
  7  8  1  0  0  0  0
  7  9  1  0  0  0  0
 33 34  1  0  0  0  0
 33 35  1  0  0  0  0
 33 36  1  0  0  0  0
 31 32  1  0  0  0  0
 31 33  1  0  0  0  0
M  CHG  1  20   1
M  END
$$$$
default_name
  -OEChem-01062215323D

 36 35  0     1  0  0  0  0  0999 V2000
   -4.2256   -3.6731    1.8584 H   0  0  0  0  0  0  0  0  0  0  0  0
   -4.2396   -2.6781    1.4144 C   0  0  0  0  0  0  0  0  0  0  0  0
   -4.9506   -2.0521    1.9514 H   0  0  0  0  0  0  0  0  0  0  0  0
   -4.5266   -2.7521    0.3674 H   0  0  0  0  0  0  0  0  0  0  0  0
   -2.8576   -2.0761    1.5184 C   0  0  0  0  0  0  0  0  0  0  0  0
   -1.9456   -2.7051    2.0404 O   0  0  0  0  0  0  0  0  0  0  0  0
   -2.6926   -0.8481    1.0174 N   0  0  0  0  0  0  0  0  0  0  0  0
   -3.4926   -0.3971    0.5954 H   0  0  0  0  0  0  0  0  0  0  0  0
   -1.4216   -0.1071    1.0434 C   0  0  1  0  0  0  0  0  0  0  0  0
   -0.9926   -0.1949    2.0430 H   0  0  0  0  0  0  0  0  0  0  0  0
   -0.4572   -0.7569    0.0310 C   0  0  0  0  0  0  0  0  0  0  0  0
   -0.9548   -0.8100   -0.9395 H   0  0  0  0  0  0  0  0  0  0  0  0
    0.4273   -0.1250   -0.0756 H   0  0  0  0  0  0  0  0  0  0  0  0
   -0.0193   -2.1746    0.4269 C   0  0  0  0  0  0  0  0  0  0  0  0
    0.4920   -2.1473    1.3901 H   0  0  0  0  0  0  0  0  0  0  0  0
   -0.8983   -2.8154    0.5035 H   0  0  0  0  0  0  0  0  0  0  0  0
    0.9350   -2.7417   -0.6329 C   0  0  0  0  0  0  0  0  0  0  0  0
    0.4242   -2.7405   -1.5985 H   0  0  0  0  0  0  0  0  0  0  0  0
    1.8104   -2.0911   -0.6962 H   0  0  0  0  0  0  0  0  0  0  0  0
    1.3644   -4.1167   -0.3044 N   0  3  0  0  0  0  0  0  0  0  0  0
    1.0356   -4.4966    0.5667 H   0  0  0  0  0  0  0  0  0  0  0  0
    2.1377   -4.8921   -1.0459 C   0  0  0  0  0  0  0  0  0  0  0  0
    2.6185   -4.4990   -2.1920 N   0  0  0  0  0  0  0  0  0  0  0  0
    2.3917   -3.5772   -2.5212 H   0  0  0  0  0  0  0  0  0  0  0  0
    3.2042   -5.0999   -2.7422 H   0  0  0  0  0  0  0  0  0  0  0  0
    2.4476   -6.0922   -0.6445 N   0  0  0  0  0  0  0  0  0  0  0  0
    2.1004   -6.4400    0.2326 H   0  0  0  0  0  0  0  0  0  0  0  0
    3.0345   -6.6772   -1.2101 H   0  0  0  0  0  0  0  0  0  0  0  0
   -1.6581    1.3731    0.7367 C   0  0  0  0  0  0  0  0  0  0  0  0
   -2.3681    1.6888   -0.2105 O   0  0  0  0  0  0  0  0  0  0  0  0
   -1.0341    2.2640    1.5136 N   0  0  0  0  0  0  0  0  0  0  0  0
   -0.4995    1.9168    2.2931 H   0  0  0  0  0  0  0  0  0  0  0  0
   -1.1547    3.7144    1.3561 C   0  0  0  0  0  0  0  0  0  0  0  0
   -2.1863    4.0214    1.5408 H   0  0  0  0  0  0  0  0  0  0  0  0
   -0.4991    4.2289    2.0599 H   0  0  0  0  0  0  0  0  0  0  0  0
   -0.8862    4.0030    0.3375 H   0  0  0  0  0  0  0  0  0  0  0  0
  5  6  2  0  0  0  0
  5  7  1  0  0  0  0
  2  3  1  0  0  0  0
  2  4  1  0  0  0  0
  2  5  1  0  0  0  0
  1  2  1  0  0  0  0
 29 30  2  0  0  0  0
 29 31  1  0  0  0  0
 26 27  1  0  0  0  0
 26 28  1  0  0  0  0
 23 24  1  0  0  0  0
 23 25  1  0  0  0  0
 22 23  1  0  0  0  0
 22 26  1  0  0  0  0
 20 21  1  0  0  0  0
 20 22  2  0  0  0  0
 17 18  1  0  0  0  0
 17 19  1  0  0  0  0
 17 20  1  0  0  0  0
 14 15  1  0  0  0  0
 14 16  1  0  0  0  0
 14 17  1  0  0  0  0
 11 12  1  0  0  0  0
 11 13  1  0  0  0  0
 11 14  1  0  0  0  0
  9 10  1  0  0  0  0
  9 11  1  0  0  0  0
  9 29  1  0  0  0  0
  7  8  1  0  0  0  0
  7  9  1  0  0  0  0
 33 34  1  0  0  0  0
 33 35  1  0  0  0  0
 33 36  1  0  0  0  0
 31 32  1  0  0  0  0
 31 33  1  0  0  0  0
M  CHG  1  20   1
M  END
$$$$
default_name
  -OEChem-01062215323D

 36 35  0     1  0  0  0  0  0999 V2000
   -4.2256   -3.6731    1.8584 H   0  0  0  0  0  0  0  0  0  0  0  0
   -4.2396   -2.6781    1.4144 C   0  0  0  0  0  0  0  0  0  0  0  0
   -4.9506   -2.0521    1.9514 H   0  0  0  0  0  0  0  0  0  0  0  0
   -4.5266   -2.7521    0.3674 H   0  0  0  0  0  0  0  0  0  0  0  0
   -2.8576   -2.0761    1.5184 C   0  0  0  0  0  0  0  0  0  0  0  0
   -1.9456   -2.7051    2.0404 O   0  0  0  0  0  0  0  0  0  0  0  0
   -2.6926   -0.8481    1.0174 N   0  0  0  0  0  0  0  0  0  0  0  0
   -3.4926   -0.3971    0.5954 H   0  0  0  0  0  0  0  0  0  0  0  0
   -1.4216   -0.1071    1.0434 C   0  0  1  0  0  0  0  0  0  0  0  0
   -0.9926   -0.1949    2.0430 H   0  0  0  0  0  0  0  0  0  0  0  0
   -0.4572   -0.7569    0.0310 C   0  0  0  0  0  0  0  0  0  0  0  0
   -0.9548   -0.8100   -0.9395 H   0  0  0  0  0  0  0  0  0  0  0  0
    0.4273   -0.1250   -0.0756 H   0  0  0  0  0  0  0  0  0  0  0  0
   -0.0193   -2.1746    0.4269 C   0  0  0  0  0  0  0  0  0  0  0  0
    0.4920   -2.1473    1.3901 H   0  0  0  0  0  0  0  0  0  0  0  0
   -0.8983   -2.8154    0.5035 H   0  0  0  0  0  0  0  0  0  0  0  0
    0.9350   -2.7417   -0.6329 C   0  0  0  0  0  0  0  0  0  0  0  0
    0.4242   -2.7405   -1.5985 H   0  0  0  0  0  0  0  0  0  0  0  0
    1.8104   -2.0911   -0.6962 H   0  0  0  0  0  0  0  0  0  0  0  0
    1.3644   -4.1167   -0.3044 N   0  3  0  0  0  0  0  0  0  0  0  0
    1.0356   -4.4966    0.5667 H   0  0  0  0  0  0  0  0  0  0  0  0
    2.1377   -4.8921   -1.0459 C   0  0  0  0  0  0  0  0  0  0  0  0
    2.6185   -4.4990   -2.1920 N   0  0  0  0  0  0  0  0  0  0  0  0
    2.3917   -3.5772   -2.5212 H   0  0  0  0  0  0  0  0  0  0  0  0
    3.2042   -5.0999   -2.7422 H   0  0  0  0  0  0  0  0  0  0  0  0
    2.4476   -6.0922   -0.6445 N   0  0  0  0  0  0  0  0  0  0  0  0
    2.1004   -6.4400    0.2326 H   0  0  0  0  0  0  0  0  0  0  0  0
    3.0345   -6.6772   -1.2101 H   0  0  0  0  0  0  0  0  0  0  0  0
   -1.6581    1.3731    0.7367 C   0  0  0  0  0  0  0  0  0  0  0  0
   -2.5679    1.6969   -0.0173 O   0  0  0  0  0  0  0  0  0  0  0  0
   -0.8178    2.2525    1.2911 N   0  0  0  0  0  0  0  0  0  0  0  0
   -0.1213    1.9016    1.9280 H   0  0  0  0  0  0  0  0  0  0  0  0
   -0.9061    3.7013    1.1012 C   0  0  0  0  0  0  0  0  0  0  0  0
   -1.8426    4.0726    1.5228 H   0  0  0  0  0  0  0  0  0  0  0  0
   -0.0713    4.2008    1.5945 H   0  0  0  0  0  0  0  0  0  0  0  0
   -0.8892    3.9400    0.0355 H   0  0  0  0  0  0  0  0  0  0  0  0
  5  6  2  0  0  0  0
  5  7  1  0  0  0  0
  2  3  1  0  0  0  0
  2  4  1  0  0  0  0
  2  5  1  0  0  0  0
  1  2  1  0  0  0  0
 29 30  2  0  0  0  0
 29 31  1  0  0  0  0
 26 27  1  0  0  0  0
 26 28  1  0  0  0  0
 23 24  1  0  0  0  0
 23 25  1  0  0  0  0
 22 23  1  0  0  0  0
 22 26  1  0  0  0  0
 20 21  1  0  0  0  0
 20 22  2  0  0  0  0
 17 18  1  0  0  0  0
 17 19  1  0  0  0  0
 17 20  1  0  0  0  0
 14 15  1  0  0  0  0
 14 16  1  0  0  0  0
 14 17  1  0  0  0  0
 11 12  1  0  0  0  0
 11 13  1  0  0  0  0
 11 14  1  0  0  0  0
  9 10  1  0  0  0  0
  9 11  1  0  0  0  0
  9 29  1  0  0  0  0
  7  8  1  0  0  0  0
  7  9  1  0  0  0  0
 33 34  1  0  0  0  0
 33 35  1  0  0  0  0
 33 36  1  0  0  0  0
 31 32  1  0  0  0  0
 31 33  1  0  0  0  0
M  CHG  1  20   1
M  END
$$$$
default_name
  -OEChem-01062215323D

 36 35  0     1  0  0  0  0  0999 V2000
   -4.2256   -3.6731    1.8584 H   0  0  0  0  0  0  0  0  0  0  0  0
   -4.2396   -2.6781    1.4144 C   0  0  0  0  0  0  0  0  0  0  0  0
   -4.9506   -2.0521    1.9514 H   0  0  0  0  0  0  0  0  0  0  0  0
   -4.5266   -2.7521    0.3674 H   0  0  0  0  0  0  0  0  0  0  0  0
   -2.8576   -2.0761    1.5184 C   0  0  0  0  0  0  0  0  0  0  0  0
   -1.9456   -2.7051    2.0404 O   0  0  0  0  0  0  0  0  0  0  0  0
   -2.6926   -0.8481    1.0174 N   0  0  0  0  0  0  0  0  0  0  0  0
   -3.4926   -0.3971    0.5954 H   0  0  0  0  0  0  0  0  0  0  0  0
   -1.4216   -0.1071    1.0434 C   0  0  1  0  0  0  0  0  0  0  0  0
   -0.9926   -0.1949    2.0430 H   0  0  0  0  0  0  0  0  0  0  0  0
   -0.4572   -0.7569    0.0310 C   0  0  0  0  0  0  0  0  0  0  0  0
   -0.9548   -0.8100   -0.9395 H   0  0  0  0  0  0  0  0  0  0  0  0
    0.4273   -0.1250   -0.0756 H   0  0  0  0  0  0  0  0  0  0  0  0
   -0.0193   -2.1746    0.4269 C   0  0  0  0  0  0  0  0  0  0  0  0
    0.4920   -2.1473    1.3901 H   0  0  0  0  0  0  0  0  0  0  0  0
   -0.8983   -2.8154    0.5035 H   0  0  0  0  0  0  0  0  0  0  0  0
    0.9350   -2.7417   -0.6329 C   0  0  0  0  0  0  0  0  0  0  0  0
    0.4242   -2.7405   -1.5985 H   0  0  0  0  0  0  0  0  0  0  0  0
    1.8104   -2.0911   -0.6962 H   0  0  0  0  0  0  0  0  0  0  0  0
    1.3644   -4.1167   -0.3044 N   0  3  0  0  0  0  0  0  0  0  0  0
    1.0356   -4.4966    0.5667 H   0  0  0  0  0  0  0  0  0  0  0  0
    2.1377   -4.8921   -1.0459 C   0  0  0  0  0  0  0  0  0  0  0  0
    2.6185   -4.4990   -2.1920 N   0  0  0  0  0  0  0  0  0  0  0  0
    2.3917   -3.5772   -2.5212 H   0  0  0  0  0  0  0  0  0  0  0  0
    3.2042   -5.0999   -2.7422 H   0  0  0  0  0  0  0  0  0  0  0  0
    2.4476   -6.0922   -0.6445 N   0  0  0  0  0  0  0  0  0  0  0  0
    2.1004   -6.4400    0.2326 H   0  0  0  0  0  0  0  0  0  0  0  0
    3.0345   -6.6772   -1.2101 H   0  0  0  0  0  0  0  0  0  0  0  0
   -1.6581    1.3731    0.7367 C   0  0  0  0  0  0  0  0  0  0  0  0
   -2.7121    1.7229    0.2192 O   0  0  0  0  0  0  0  0  0  0  0  0
   -0.6652    2.2212    1.0225 N   0  0  0  0  0  0  0  0  0  0  0  0
    0.1519    1.8526    1.4812 H   0  0  0  0  0  0  0  0  0  0  0  0
   -0.7306    3.6655    0.7932 C   0  0  0  0  0  0  0  0  0  0  0  0
   -1.5125    4.1035    1.4172 H   0  0  0  0  0  0  0  0  0  0  0  0
    0.2239    4.1329    1.0390 H   0  0  0  0  0  0  0  0  0  0  0  0
   -0.9710    3.8671   -0.2529 H   0  0  0  0  0  0  0  0  0  0  0  0
  5  6  2  0  0  0  0
  5  7  1  0  0  0  0
  2  3  1  0  0  0  0
  2  4  1  0  0  0  0
  2  5  1  0  0  0  0
  1  2  1  0  0  0  0
 29 30  2  0  0  0  0
 29 31  1  0  0  0  0
 26 27  1  0  0  0  0
 26 28  1  0  0  0  0
 23 24  1  0  0  0  0
 23 25  1  0  0  0  0
 22 23  1  0  0  0  0
 22 26  1  0  0  0  0
 20 21  1  0  0  0  0
 20 22  2  0  0  0  0
 17 18  1  0  0  0  0
 17 19  1  0  0  0  0
 17 20  1  0  0  0  0
 14 15  1  0  0  0  0
 14 16  1  0  0  0  0
 14 17  1  0  0  0  0
 11 12  1  0  0  0  0
 11 13  1  0  0  0  0
 11 14  1  0  0  0  0
  9 10  1  0  0  0  0
  9 11  1  0  0  0  0
  9 29  1  0  0  0  0
  7  8  1  0  0  0  0
  7  9  1  0  0  0  0
 33 34  1  0  0  0  0
 33 35  1  0  0  0  0
 33 36  1  0  0  0  0
 31 32  1  0  0  0  0
 31 33  1  0  0  0  0
M  CHG  1  20   1
M  END
$$$$
default_name
  -OEChem-01062215323D

 36 35  0     1  0  0  0  0  0999 V2000
   -4.2256   -3.6731    1.8584 H   0  0  0  0  0  0  0  0  0  0  0  0
   -4.2396   -2.6781    1.4144 C   0  0  0  0  0  0  0  0  0  0  0  0
   -4.9506   -2.0521    1.9514 H   0  0  0  0  0  0  0  0  0  0  0  0
   -4.5266   -2.7521    0.3674 H   0  0  0  0  0  0  0  0  0  0  0  0
   -2.8576   -2.0761    1.5184 C   0  0  0  0  0  0  0  0  0  0  0  0
   -1.9456   -2.7051    2.0404 O   0  0  0  0  0  0  0  0  0  0  0  0
   -2.6926   -0.8481    1.0174 N   0  0  0  0  0  0  0  0  0  0  0  0
   -3.4926   -0.3971    0.5954 H   0  0  0  0  0  0  0  0  0  0  0  0
   -1.4216   -0.1071    1.0434 C   0  0  1  0  0  0  0  0  0  0  0  0
   -0.8665   -0.4075    1.9336 H   0  0  0  0  0  0  0  0  0  0  0  0
   -0.6047   -0.4956   -0.2052 C   0  0  0  0  0  0  0  0  0  0  0  0
   -1.2255   -0.3404   -1.0899 H   0  0  0  0  0  0  0  0  0  0  0  0
    0.2647    0.1611   -0.2815 H   0  0  0  0  0  0  0  0  0  0  0  0
   -0.1333   -1.9571   -0.1970 C   0  0  0  0  0  0  0  0  0  0  0  0
    0.4999   -2.1357    0.6732 H   0  0  0  0  0  0  0  0  0  0  0  0
   -1.0012   -2.6158   -0.1523 H   0  0  0  0  0  0  0  0  0  0  0  0
    0.6683   -2.2548   -1.4715 C   0  0  0  0  0  0  0  0  0  0  0  0
    0.0355   -2.0479   -2.3376 H   0  0  0  0  0  0  0  0  0  0  0  0
    1.5345   -1.5896   -1.5007 H   0  0  0  0  0  0  0  0  0  0  0  0
    1.1229   -3.6598   -1.5177 N   0  3  0  0  0  0  0  0  0  0  0  0
    0.9070   -4.2309   -0.7187 H   0  0  0  0  0  0  0  0  0  0  0  0
    1.7845   -4.2349   -2.5079 C   0  0  0  0  0  0  0  0  0  0  0  0
    2.1152   -3.5866   -3.5894 N   0  0  0  0  0  0  0  0  0  0  0  0
    1.8567   -2.6192   -3.6716 H   0  0  0  0  0  0  0  0  0  0  0  0
    2.6177   -4.0380   -4.3314 H   0  0  0  0  0  0  0  0  0  0  0  0
    2.1319   -5.4881   -2.4291 N   0  0  0  0  0  0  0  0  0  0  0  0
    1.8989   -6.0297   -1.6147 H   0  0  0  0  0  0  0  0  0  0  0  0
    2.6337   -5.9206   -3.1826 H   0  0  0  0  0  0  0  0  0  0  0  0
   -1.6810    1.3993    1.1092 C   0  0  0  0  0  0  0  0  0  0  0  0
   -2.8332    1.8159    1.0985 O   0  0  0  0  0  0  0  0  0  0  0  0
   -0.6121    2.2014    1.1388 N   0  0  0  0  0  0  0  0  0  0  0  0
    0.2978    1.7724    1.1826 H   0  0  0  0  0  0  0  0  0  0  0  0
   -0.6858    3.6619    1.2039 C   0  0  0  0  0  0  0  0  0  0  0  0
   -1.1524    3.9666    2.1431 H   0  0  0  0  0  0  0  0  0  0  0  0
    0.3132    4.0958    1.1460 H   0  0  0  0  0  0  0  0  0  0  0  0
   -1.2917    4.0425    0.3787 H   0  0  0  0  0  0  0  0  0  0  0  0
  5  6  2  0  0  0  0
  5  7  1  0  0  0  0
  2  3  1  0  0  0  0
  2  4  1  0  0  0  0
  2  5  1  0  0  0  0
  1  2  1  0  0  0  0
 29 30  2  0  0  0  0
 29 31  1  0  0  0  0
 26 27  1  0  0  0  0
 26 28  1  0  0  0  0
 23 24  1  0  0  0  0
 23 25  1  0  0  0  0
 22 23  1  0  0  0  0
 22 26  1  0  0  0  0
 20 21  1  0  0  0  0
 20 22  2  0  0  0  0
 17 18  1  0  0  0  0
 17 19  1  0  0  0  0
 17 20  1  0  0  0  0
 14 15  1  0  0  0  0
 14 16  1  0  0  0  0
 14 17  1  0  0  0  0
 11 12  1  0  0  0  0
 11 13  1  0  0  0  0
 11 14  1  0  0  0  0
  9 10  1  0  0  0  0
  9 11  1  0  0  0  0
  9 29  1  0  0  0  0
  7  8  1  0  0  0  0
  7  9  1  0  0  0  0
 33 34  1  0  0  0  0
 33 35  1  0  0  0  0
 33 36  1  0  0  0  0
 31 32  1  0  0  0  0
 31 33  1  0  0  0  0
M  CHG  1  20   1
M  END
$$$$
default_name
  -OEChem-01062215323D

 36 35  0     1  0  0  0  0  0999 V2000
   -4.2256   -3.6731    1.8584 H   0  0  0  0  0  0  0  0  0  0  0  0
   -4.2396   -2.6781    1.4144 C   0  0  0  0  0  0  0  0  0  0  0  0
   -4.9506   -2.0521    1.9514 H   0  0  0  0  0  0  0  0  0  0  0  0
   -4.5266   -2.7521    0.3674 H   0  0  0  0  0  0  0  0  0  0  0  0
   -2.8576   -2.0761    1.5184 C   0  0  0  0  0  0  0  0  0  0  0  0
   -1.9456   -2.7051    2.0404 O   0  0  0  0  0  0  0  0  0  0  0  0
   -2.6926   -0.8481    1.0174 N   0  0  0  0  0  0  0  0  0  0  0  0
   -3.4926   -0.3971    0.5954 H   0  0  0  0  0  0  0  0  0  0  0  0
   -1.4216   -0.1071    1.0434 C   0  0  1  0  0  0  0  0  0  0  0  0
   -0.8665   -0.4075    1.9336 H   0  0  0  0  0  0  0  0  0  0  0  0
   -0.6047   -0.4956   -0.2052 C   0  0  0  0  0  0  0  0  0  0  0  0
   -1.2255   -0.3404   -1.0899 H   0  0  0  0  0  0  0  0  0  0  0  0
    0.2647    0.1611   -0.2815 H   0  0  0  0  0  0  0  0  0  0  0  0
   -0.1333   -1.9571   -0.1970 C   0  0  0  0  0  0  0  0  0  0  0  0
    0.4999   -2.1357    0.6732 H   0  0  0  0  0  0  0  0  0  0  0  0
   -1.0012   -2.6158   -0.1523 H   0  0  0  0  0  0  0  0  0  0  0  0
    0.6683   -2.2548   -1.4715 C   0  0  0  0  0  0  0  0  0  0  0  0
    0.0355   -2.0479   -2.3376 H   0  0  0  0  0  0  0  0  0  0  0  0
    1.5345   -1.5896   -1.5007 H   0  0  0  0  0  0  0  0  0  0  0  0
    1.1229   -3.6598   -1.5177 N   0  3  0  0  0  0  0  0  0  0  0  0
    0.9070   -4.2309   -0.7187 H   0  0  0  0  0  0  0  0  0  0  0  0
    1.7845   -4.2349   -2.5079 C   0  0  0  0  0  0  0  0  0  0  0  0
    2.1152   -3.5866   -3.5894 N   0  0  0  0  0  0  0  0  0  0  0  0
    1.8567   -2.6192   -3.6716 H   0  0  0  0  0  0  0  0  0  0  0  0
    2.6177   -4.0380   -4.3314 H   0  0  0  0  0  0  0  0  0  0  0  0
    2.1319   -5.4881   -2.4291 N   0  0  0  0  0  0  0  0  0  0  0  0
    1.8989   -6.0297   -1.6147 H   0  0  0  0  0  0  0  0  0  0  0  0
    2.6337   -5.9206   -3.1826 H   0  0  0  0  0  0  0  0  0  0  0  0
   -1.6810    1.3993    1.1092 C   0  0  0  0  0  0  0  0  0  0  0  0
   -2.8048    1.8087    1.3751 O   0  0  0  0  0  0  0  0  0  0  0  0
   -0.6535    2.2077    0.8311 N   0  0  0  0  0  0  0  0  0  0  0  0
    0.2447    1.7861    0.6595 H   0  0  0  0  0  0  0  0  0  0  0  0
   -0.7327    3.6693    0.8508 C   0  0  0  0  0  0  0  0  0  0  0  0
   -0.9499    4.0137    1.8641 H   0  0  0  0  0  0  0  0  0  0  0  0
    0.2112    4.1055    0.5216 H   0  0  0  0  0  0  0  0  0  0  0  0
   -1.5350    4.0088    0.1920 H   0  0  0  0  0  0  0  0  0  0  0  0
  5  6  2  0  0  0  0
  5  7  1  0  0  0  0
  2  3  1  0  0  0  0
  2  4  1  0  0  0  0
  2  5  1  0  0  0  0
  1  2  1  0  0  0  0
 29 30  2  0  0  0  0
 29 31  1  0  0  0  0
 26 27  1  0  0  0  0
 26 28  1  0  0  0  0
 23 24  1  0  0  0  0
 23 25  1  0  0  0  0
 22 23  1  0  0  0  0
 22 26  1  0  0  0  0
 20 21  1  0  0  0  0
 20 22  2  0  0  0  0
 17 18  1  0  0  0  0
 17 19  1  0  0  0  0
 17 20  1  0  0  0  0
 14 15  1  0  0  0  0
 14 16  1  0  0  0  0
 14 17  1  0  0  0  0
 11 12  1  0  0  0  0
 11 13  1  0  0  0  0
 11 14  1  0  0  0  0
  9 10  1  0  0  0  0
  9 11  1  0  0  0  0
  9 29  1  0  0  0  0
  7  8  1  0  0  0  0
  7  9  1  0  0  0  0
 33 34  1  0  0  0  0
 33 35  1  0  0  0  0
 33 36  1  0  0  0  0
 31 32  1  0  0  0  0
 31 33  1  0  0  0  0
M  CHG  1  20   1
M  END
$$$$
default_name
  -OEChem-01062215323D

 36 35  0     1  0  0  0  0  0999 V2000
   -4.2256   -3.6731    1.8584 H   0  0  0  0  0  0  0  0  0  0  0  0
   -4.2396   -2.6781    1.4144 C   0  0  0  0  0  0  0  0  0  0  0  0
   -4.9506   -2.0521    1.9514 H   0  0  0  0  0  0  0  0  0  0  0  0
   -4.5266   -2.7521    0.3674 H   0  0  0  0  0  0  0  0  0  0  0  0
   -2.8576   -2.0761    1.5184 C   0  0  0  0  0  0  0  0  0  0  0  0
   -1.9456   -2.7051    2.0404 O   0  0  0  0  0  0  0  0  0  0  0  0
   -2.6926   -0.8481    1.0174 N   0  0  0  0  0  0  0  0  0  0  0  0
   -3.4926   -0.3971    0.5954 H   0  0  0  0  0  0  0  0  0  0  0  0
   -1.4216   -0.1071    1.0434 C   0  0  1  0  0  0  0  0  0  0  0  0
   -0.8665   -0.4075    1.9336 H   0  0  0  0  0  0  0  0  0  0  0  0
   -0.6047   -0.4956   -0.2052 C   0  0  0  0  0  0  0  0  0  0  0  0
   -1.2255   -0.3404   -1.0899 H   0  0  0  0  0  0  0  0  0  0  0  0
    0.2647    0.1611   -0.2815 H   0  0  0  0  0  0  0  0  0  0  0  0
   -0.1333   -1.9571   -0.1970 C   0  0  0  0  0  0  0  0  0  0  0  0
    0.4999   -2.1357    0.6732 H   0  0  0  0  0  0  0  0  0  0  0  0
   -1.0012   -2.6158   -0.1523 H   0  0  0  0  0  0  0  0  0  0  0  0
    0.6683   -2.2548   -1.4715 C   0  0  0  0  0  0  0  0  0  0  0  0
    0.0355   -2.0479   -2.3376 H   0  0  0  0  0  0  0  0  0  0  0  0
    1.5345   -1.5896   -1.5007 H   0  0  0  0  0  0  0  0  0  0  0  0
    1.1229   -3.6598   -1.5177 N   0  3  0  0  0  0  0  0  0  0  0  0
    0.9070   -4.2309   -0.7187 H   0  0  0  0  0  0  0  0  0  0  0  0
    1.7845   -4.2349   -2.5079 C   0  0  0  0  0  0  0  0  0  0  0  0
    2.1152   -3.5866   -3.5894 N   0  0  0  0  0  0  0  0  0  0  0  0
    1.8567   -2.6192   -3.6716 H   0  0  0  0  0  0  0  0  0  0  0  0
    2.6177   -4.0380   -4.3314 H   0  0  0  0  0  0  0  0  0  0  0  0
    2.1319   -5.4881   -2.4291 N   0  0  0  0  0  0  0  0  0  0  0  0
    1.8989   -6.0297   -1.6147 H   0  0  0  0  0  0  0  0  0  0  0  0
    2.6337   -5.9206   -3.1826 H   0  0  0  0  0  0  0  0  0  0  0  0
   -1.6810    1.3993    1.1092 C   0  0  0  0  0  0  0  0  0  0  0  0
   -2.7068    1.8143    1.6353 O   0  0  0  0  0  0  0  0  0  0  0  0
   -0.7719    2.1998    0.5441 N   0  0  0  0  0  0  0  0  0  0  0  0
    0.0599    1.7757    0.1672 H   0  0  0  0  0  0  0  0  0  0  0  0
   -0.8681    3.6603    0.5213 C   0  0  0  0  0  0  0  0  0  0  0  0
   -0.8259    4.0492    1.5410 H   0  0  0  0  0  0  0  0  0  0  0  0
   -0.0465    4.0864   -0.0559 H   0  0  0  0  0  0  0  0  0  0  0  0
   -1.8172    3.9653    0.0752 H   0  0  0  0  0  0  0  0  0  0  0  0
  5  6  2  0  0  0  0
  5  7  1  0  0  0  0
  2  3  1  0  0  0  0
  2  4  1  0  0  0  0
  2  5  1  0  0  0  0
  1  2  1  0  0  0  0
 29 30  2  0  0  0  0
 29 31  1  0  0  0  0
 26 27  1  0  0  0  0
 26 28  1  0  0  0  0
 23 24  1  0  0  0  0
 23 25  1  0  0  0  0
 22 23  1  0  0  0  0
 22 26  1  0  0  0  0
 20 21  1  0  0  0  0
 20 22  2  0  0  0  0
 17 18  1  0  0  0  0
 17 19  1  0  0  0  0
 17 20  1  0  0  0  0
 14 15  1  0  0  0  0
 14 16  1  0  0  0  0
 14 17  1  0  0  0  0
 11 12  1  0  0  0  0
 11 13  1  0  0  0  0
 11 14  1  0  0  0  0
  9 10  1  0  0  0  0
  9 11  1  0  0  0  0
  9 29  1  0  0  0  0
  7  8  1  0  0  0  0
  7  9  1  0  0  0  0
 33 34  1  0  0  0  0
 33 35  1  0  0  0  0
 33 36  1  0  0  0  0
 31 32  1  0  0  0  0
 31 33  1  0  0  0  0
M  CHG  1  20   1
M  END
$$$$
default_name
  -OEChem-01062215323D

 36 35  0     1  0  0  0  0  0999 V2000
   -4.2256   -3.6731    1.8584 H   0  0  0  0  0  0  0  0  0  0  0  0
   -4.2396   -2.6781    1.4144 C   0  0  0  0  0  0  0  0  0  0  0  0
   -4.9506   -2.0521    1.9514 H   0  0  0  0  0  0  0  0  0  0  0  0
   -4.5266   -2.7521    0.3674 H   0  0  0  0  0  0  0  0  0  0  0  0
   -2.8576   -2.0761    1.5184 C   0  0  0  0  0  0  0  0  0  0  0  0
   -1.9456   -2.7051    2.0404 O   0  0  0  0  0  0  0  0  0  0  0  0
   -2.6926   -0.8481    1.0174 N   0  0  0  0  0  0  0  0  0  0  0  0
   -3.4926   -0.3971    0.5954 H   0  0  0  0  0  0  0  0  0  0  0  0
   -1.4216   -0.1071    1.0434 C   0  0  1  0  0  0  0  0  0  0  0  0
   -0.8665   -0.4075    1.9336 H   0  0  0  0  0  0  0  0  0  0  0  0
   -0.6047   -0.4956   -0.2052 C   0  0  0  0  0  0  0  0  0  0  0  0
   -1.2255   -0.3404   -1.0899 H   0  0  0  0  0  0  0  0  0  0  0  0
    0.2647    0.1611   -0.2815 H   0  0  0  0  0  0  0  0  0  0  0  0
   -0.1333   -1.9571   -0.1970 C   0  0  0  0  0  0  0  0  0  0  0  0
    0.4999   -2.1357    0.6732 H   0  0  0  0  0  0  0  0  0  0  0  0
   -1.0012   -2.6158   -0.1523 H   0  0  0  0  0  0  0  0  0  0  0  0
    0.6683   -2.2548   -1.4715 C   0  0  0  0  0  0  0  0  0  0  0  0
    0.0355   -2.0479   -2.3376 H   0  0  0  0  0  0  0  0  0  0  0  0
    1.5345   -1.5896   -1.5007 H   0  0  0  0  0  0  0  0  0  0  0  0
    1.1229   -3.6598   -1.5177 N   0  3  0  0  0  0  0  0  0  0  0  0
    0.9070   -4.2309   -0.7187 H   0  0  0  0  0  0  0  0  0  0  0  0
    1.7845   -4.2349   -2.5079 C   0  0  0  0  0  0  0  0  0  0  0  0
    2.1152   -3.5866   -3.5894 N   0  0  0  0  0  0  0  0  0  0  0  0
    1.8567   -2.6192   -3.6716 H   0  0  0  0  0  0  0  0  0  0  0  0
    2.6177   -4.0380   -4.3314 H   0  0  0  0  0  0  0  0  0  0  0  0
    2.1319   -5.4881   -2.4291 N   0  0  0  0  0  0  0  0  0  0  0  0
    1.8989   -6.0297   -1.6147 H   0  0  0  0  0  0  0  0  0  0  0  0
    2.6337   -5.9206   -3.1826 H   0  0  0  0  0  0  0  0  0  0  0  0
   -1.6810    1.3993    1.1092 C   0  0  0  0  0  0  0  0  0  0  0  0
   -2.5459    1.8321    1.8614 O   0  0  0  0  0  0  0  0  0  0  0  0
   -0.9593    2.1783    0.2975 N   0  0  0  0  0  0  0  0  0  0  0  0
   -0.2438    1.7421   -0.2608 H   0  0  0  0  0  0  0  0  0  0  0  0
   -1.0827    3.6358    0.2380 C   0  0  0  0  0  0  0  0  0  0  0  0
   -0.7888    4.0706    1.1957 H   0  0  0  0  0  0  0  0  0  0  0  0
   -0.4424    4.0397   -0.5473 H   0  0  0  0  0  0  0  0  0  0  0  0
   -2.1191    3.9150    0.0362 H   0  0  0  0  0  0  0  0  0  0  0  0
  5  6  2  0  0  0  0
  5  7  1  0  0  0  0
  2  3  1  0  0  0  0
  2  4  1  0  0  0  0
  2  5  1  0  0  0  0
  1  2  1  0  0  0  0
 29 30  2  0  0  0  0
 29 31  1  0  0  0  0
 26 27  1  0  0  0  0
 26 28  1  0  0  0  0
 23 24  1  0  0  0  0
 23 25  1  0  0  0  0
 22 23  1  0  0  0  0
 22 26  1  0  0  0  0
 20 21  1  0  0  0  0
 20 22  2  0  0  0  0
 17 18  1  0  0  0  0
 17 19  1  0  0  0  0
 17 20  1  0  0  0  0
 14 15  1  0  0  0  0
 14 16  1  0  0  0  0
 14 17  1  0  0  0  0
 11 12  1  0  0  0  0
 11 13  1  0  0  0  0
 11 14  1  0  0  0  0
  9 10  1  0  0  0  0
  9 11  1  0  0  0  0
  9 29  1  0  0  0  0
  7  8  1  0  0  0  0
  7  9  1  0  0  0  0
 33 34  1  0  0  0  0
 33 35  1  0  0  0  0
 33 36  1  0  0  0  0
 31 32  1  0  0  0  0
 31 33  1  0  0  0  0
M  CHG  1  20   1
M  END
$$$$
default_name
  -OEChem-01062215323D

 36 35  0     1  0  0  0  0  0999 V2000
   -4.2256   -3.6731    1.8584 H   0  0  0  0  0  0  0  0  0  0  0  0
   -4.2396   -2.6781    1.4144 C   0  0  0  0  0  0  0  0  0  0  0  0
   -4.9506   -2.0521    1.9514 H   0  0  0  0  0  0  0  0  0  0  0  0
   -4.5266   -2.7521    0.3674 H   0  0  0  0  0  0  0  0  0  0  0  0
   -2.8576   -2.0761    1.5184 C   0  0  0  0  0  0  0  0  0  0  0  0
   -1.9456   -2.7051    2.0404 O   0  0  0  0  0  0  0  0  0  0  0  0
   -2.6926   -0.8481    1.0174 N   0  0  0  0  0  0  0  0  0  0  0  0
   -3.4926   -0.3971    0.5954 H   0  0  0  0  0  0  0  0  0  0  0  0
   -1.4216   -0.1071    1.0434 C   0  0  1  0  0  0  0  0  0  0  0  0
   -0.8665   -0.4075    1.9336 H   0  0  0  0  0  0  0  0  0  0  0  0
   -0.6047   -0.4956   -0.2052 C   0  0  0  0  0  0  0  0  0  0  0  0
   -1.2255   -0.3404   -1.0899 H   0  0  0  0  0  0  0  0  0  0  0  0
    0.2647    0.1611   -0.2815 H   0  0  0  0  0  0  0  0  0  0  0  0
   -0.1333   -1.9571   -0.1970 C   0  0  0  0  0  0  0  0  0  0  0  0
    0.4999   -2.1357    0.6732 H   0  0  0  0  0  0  0  0  0  0  0  0
   -1.0012   -2.6158   -0.1523 H   0  0  0  0  0  0  0  0  0  0  0  0
    0.6683   -2.2548   -1.4715 C   0  0  0  0  0  0  0  0  0  0  0  0
    0.0355   -2.0479   -2.3376 H   0  0  0  0  0  0  0  0  0  0  0  0
    1.5345   -1.5896   -1.5007 H   0  0  0  0  0  0  0  0  0  0  0  0
    1.1229   -3.6598   -1.5177 N   0  3  0  0  0  0  0  0  0  0  0  0
    0.9070   -4.2309   -0.7187 H   0  0  0  0  0  0  0  0  0  0  0  0
    1.7845   -4.2349   -2.5079 C   0  0  0  0  0  0  0  0  0  0  0  0
    2.1152   -3.5866   -3.5894 N   0  0  0  0  0  0  0  0  0  0  0  0
    1.8567   -2.6192   -3.6716 H   0  0  0  0  0  0  0  0  0  0  0  0
    2.6177   -4.0380   -4.3314 H   0  0  0  0  0  0  0  0  0  0  0  0
    2.1319   -5.4881   -2.4291 N   0  0  0  0  0  0  0  0  0  0  0  0
    1.8989   -6.0297   -1.6147 H   0  0  0  0  0  0  0  0  0  0  0  0
    2.6337   -5.9206   -3.1826 H   0  0  0  0  0  0  0  0  0  0  0  0
   -1.6810    1.3993    1.1092 C   0  0  0  0  0  0  0  0  0  0  0  0
   -2.3331    1.8610    2.0381 O   0  0  0  0  0  0  0  0  0  0  0  0
   -1.2029    2.1447    0.1079 N   0  0  0  0  0  0  0  0  0  0  0  0
   -0.6459    1.6875   -0.5954 H   0  0  0  0  0  0  0  0  0  0  0  0
   -1.3619    3.5972    0.0201 C   0  0  0  0  0  0  0  0  0  0  0  0
   -0.8413    4.0766    0.8518 H   0  0  0  0  0  0  0  0  0  0  0  0
   -0.9495    3.9685   -0.9189 H   0  0  0  0  0  0  0  0  0  0  0  0
   -2.4201    3.8613    0.0776 H   0  0  0  0  0  0  0  0  0  0  0  0
  5  6  2  0  0  0  0
  5  7  1  0  0  0  0
  2  3  1  0  0  0  0
  2  4  1  0  0  0  0
  2  5  1  0  0  0  0
  1  2  1  0  0  0  0
 29 30  2  0  0  0  0
 29 31  1  0  0  0  0
 26 27  1  0  0  0  0
 26 28  1  0  0  0  0
 23 24  1  0  0  0  0
 23 25  1  0  0  0  0
 22 23  1  0  0  0  0
 22 26  1  0  0  0  0
 20 21  1  0  0  0  0
 20 22  2  0  0  0  0
 17 18  1  0  0  0  0
 17 19  1  0  0  0  0
 17 20  1  0  0  0  0
 14 15  1  0  0  0  0
 14 16  1  0  0  0  0
 14 17  1  0  0  0  0
 11 12  1  0  0  0  0
 11 13  1  0  0  0  0
 11 14  1  0  0  0  0
  9 10  1  0  0  0  0
  9 11  1  0  0  0  0
  9 29  1  0  0  0  0
  7  8  1  0  0  0  0
  7  9  1  0  0  0  0
 33 34  1  0  0  0  0
 33 35  1  0  0  0  0
 33 36  1  0  0  0  0
 31 32  1  0  0  0  0
 31 33  1  0  0  0  0
M  CHG  1  20   1
M  END
$$$$
default_name
  -OEChem-01062215323D

 36 35  0     1  0  0  0  0  0999 V2000
   -4.2256   -3.6731    1.8584 H   0  0  0  0  0  0  0  0  0  0  0  0
   -4.2396   -2.6781    1.4144 C   0  0  0  0  0  0  0  0  0  0  0  0
   -4.9506   -2.0521    1.9514 H   0  0  0  0  0  0  0  0  0  0  0  0
   -4.5266   -2.7521    0.3674 H   0  0  0  0  0  0  0  0  0  0  0  0
   -2.8576   -2.0761    1.5184 C   0  0  0  0  0  0  0  0  0  0  0  0
   -1.9456   -2.7051    2.0404 O   0  0  0  0  0  0  0  0  0  0  0  0
   -2.6926   -0.8481    1.0174 N   0  0  0  0  0  0  0  0  0  0  0  0
   -3.4926   -0.3971    0.5954 H   0  0  0  0  0  0  0  0  0  0  0  0
   -1.4216   -0.1071    1.0434 C   0  0  1  0  0  0  0  0  0  0  0  0
   -0.8665   -0.4075    1.9336 H   0  0  0  0  0  0  0  0  0  0  0  0
   -0.6047   -0.4956   -0.2052 C   0  0  0  0  0  0  0  0  0  0  0  0
   -1.2255   -0.3404   -1.0899 H   0  0  0  0  0  0  0  0  0  0  0  0
    0.2647    0.1611   -0.2815 H   0  0  0  0  0  0  0  0  0  0  0  0
   -0.1333   -1.9571   -0.1970 C   0  0  0  0  0  0  0  0  0  0  0  0
    0.4999   -2.1357    0.6732 H   0  0  0  0  0  0  0  0  0  0  0  0
   -1.0012   -2.6158   -0.1523 H   0  0  0  0  0  0  0  0  0  0  0  0
    0.6683   -2.2548   -1.4715 C   0  0  0  0  0  0  0  0  0  0  0  0
    0.0355   -2.0479   -2.3376 H   0  0  0  0  0  0  0  0  0  0  0  0
    1.5345   -1.5896   -1.5007 H   0  0  0  0  0  0  0  0  0  0  0  0
    1.1229   -3.6598   -1.5177 N   0  3  0  0  0  0  0  0  0  0  0  0
    0.9070   -4.2309   -0.7187 H   0  0  0  0  0  0  0  0  0  0  0  0
    1.7845   -4.2349   -2.5079 C   0  0  0  0  0  0  0  0  0  0  0  0
    2.1152   -3.5866   -3.5894 N   0  0  0  0  0  0  0  0  0  0  0  0
    1.8567   -2.6192   -3.6716 H   0  0  0  0  0  0  0  0  0  0  0  0
    2.6177   -4.0380   -4.3314 H   0  0  0  0  0  0  0  0  0  0  0  0
    2.1319   -5.4881   -2.4291 N   0  0  0  0  0  0  0  0  0  0  0  0
    1.8989   -6.0297   -1.6147 H   0  0  0  0  0  0  0  0  0  0  0  0
    2.6337   -5.9206   -3.1826 H   0  0  0  0  0  0  0  0  0  0  0  0
   -1.6810    1.3993    1.1092 C   0  0  0  0  0  0  0  0  0  0  0  0
   -2.0828    1.8991    2.1532 O   0  0  0  0  0  0  0  0  0  0  0  0
   -1.4862    2.1011   -0.0116 N   0  0  0  0  0  0  0  0  0  0  0  0
   -1.1190    1.6155   -0.8137 H   0  0  0  0  0  0  0  0  0  0  0  0
   -1.6867    3.5473   -0.1176 C   0  0  0  0  0  0  0  0  0  0  0  0
   -0.9796    4.0667    0.5327 H   0  0  0  0  0  0  0  0  0  0  0  0
   -1.5333    3.8779   -1.1456 H   0  0  0  0  0  0  0  0  0  0  0  0
   -2.6997    3.8080    0.1968 H   0  0  0  0  0  0  0  0  0  0  0  0
  5  6  2  0  0  0  0
  5  7  1  0  0  0  0
  2  3  1  0  0  0  0
  2  4  1  0  0  0  0
  2  5  1  0  0  0  0
  1  2  1  0  0  0  0
 29 30  2  0  0  0  0
 29 31  1  0  0  0  0
 26 27  1  0  0  0  0
 26 28  1  0  0  0  0
 23 24  1  0  0  0  0
 23 25  1  0  0  0  0
 22 23  1  0  0  0  0
 22 26  1  0  0  0  0
 20 21  1  0  0  0  0
 20 22  2  0  0  0  0
 17 18  1  0  0  0  0
 17 19  1  0  0  0  0
 17 20  1  0  0  0  0
 14 15  1  0  0  0  0
 14 16  1  0  0  0  0
 14 17  1  0  0  0  0
 11 12  1  0  0  0  0
 11 13  1  0  0  0  0
 11 14  1  0  0  0  0
  9 10  1  0  0  0  0
  9 11  1  0  0  0  0
  9 29  1  0  0  0  0
  7  8  1  0  0  0  0
  7  9  1  0  0  0  0
 33 34  1  0  0  0  0
 33 35  1  0  0  0  0
 33 36  1  0  0  0  0
 31 32  1  0  0  0  0
 31 33  1  0  0  0  0
M  CHG  1  20   1
M  END
$$$$
default_name
  -OEChem-01062215323D

 36 35  0     1  0  0  0  0  0999 V2000
   -4.2256   -3.6731    1.8584 H   0  0  0  0  0  0  0  0  0  0  0  0
   -4.2396   -2.6781    1.4144 C   0  0  0  0  0  0  0  0  0  0  0  0
   -4.9506   -2.0521    1.9514 H   0  0  0  0  0  0  0  0  0  0  0  0
   -4.5266   -2.7521    0.3674 H   0  0  0  0  0  0  0  0  0  0  0  0
   -2.8576   -2.0761    1.5184 C   0  0  0  0  0  0  0  0  0  0  0  0
   -1.9456   -2.7051    2.0404 O   0  0  0  0  0  0  0  0  0  0  0  0
   -2.6926   -0.8481    1.0174 N   0  0  0  0  0  0  0  0  0  0  0  0
   -3.4926   -0.3971    0.5954 H   0  0  0  0  0  0  0  0  0  0  0  0
   -1.4216   -0.1071    1.0434 C   0  0  1  0  0  0  0  0  0  0  0  0
   -0.8665   -0.4075    1.9336 H   0  0  0  0  0  0  0  0  0  0  0  0
   -0.6047   -0.4956   -0.2052 C   0  0  0  0  0  0  0  0  0  0  0  0
   -1.2255   -0.3404   -1.0899 H   0  0  0  0  0  0  0  0  0  0  0  0
    0.2647    0.1611   -0.2815 H   0  0  0  0  0  0  0  0  0  0  0  0
   -0.1333   -1.9571   -0.1970 C   0  0  0  0  0  0  0  0  0  0  0  0
    0.4999   -2.1357    0.6732 H   0  0  0  0  0  0  0  0  0  0  0  0
   -1.0012   -2.6158   -0.1523 H   0  0  0  0  0  0  0  0  0  0  0  0
    0.6683   -2.2548   -1.4715 C   0  0  0  0  0  0  0  0  0  0  0  0
    0.0355   -2.0479   -2.3376 H   0  0  0  0  0  0  0  0  0  0  0  0
    1.5345   -1.5896   -1.5007 H   0  0  0  0  0  0  0  0  0  0  0  0
    1.1229   -3.6598   -1.5177 N   0  3  0  0  0  0  0  0  0  0  0  0
    0.9070   -4.2309   -0.7187 H   0  0  0  0  0  0  0  0  0  0  0  0
    1.7845   -4.2349   -2.5079 C   0  0  0  0  0  0  0  0  0  0  0  0
    2.1152   -3.5866   -3.5894 N   0  0  0  0  0  0  0  0  0  0  0  0
    1.8567   -2.6192   -3.6716 H   0  0  0  0  0  0  0  0  0  0  0  0
    2.6177   -4.0380   -4.3314 H   0  0  0  0  0  0  0  0  0  0  0  0
    2.1319   -5.4881   -2.4291 N   0  0  0  0  0  0  0  0  0  0  0  0
    1.8989   -6.0297   -1.6147 H   0  0  0  0  0  0  0  0  0  0  0  0
    2.6337   -5.9206   -3.1826 H   0  0  0  0  0  0  0  0  0  0  0  0
   -1.6810    1.3993    1.1092 C   0  0  0  0  0  0  0  0  0  0  0  0
   -1.8121    1.9437    2.1990 O   0  0  0  0  0  0  0  0  0  0  0  0
   -1.7898    2.0506   -0.0530 N   0  0  0  0  0  0  0  0  0  0  0  0
   -1.6308    1.5312   -0.9008 H   0  0  0  0  0  0  0  0  0  0  0  0
   -2.0349    3.4894   -0.1656 C   0  0  0  0  0  0  0  0  0  0  0  0
   -1.1945    4.0416    0.2602 H   0  0  0  0  0  0  0  0  0  0  0  0
   -2.1539    3.7739   -1.2118 H   0  0  0  0  0  0  0  0  0  0  0  0
   -2.9388    3.7585    0.3854 H   0  0  0  0  0  0  0  0  0  0  0  0
  5  6  2  0  0  0  0
  5  7  1  0  0  0  0
  2  3  1  0  0  0  0
  2  4  1  0  0  0  0
  2  5  1  0  0  0  0
  1  2  1  0  0  0  0
 29 30  2  0  0  0  0
 29 31  1  0  0  0  0
 26 27  1  0  0  0  0
 26 28  1  0  0  0  0
 23 24  1  0  0  0  0
 23 25  1  0  0  0  0
 22 23  1  0  0  0  0
 22 26  1  0  0  0  0
 20 21  1  0  0  0  0
 20 22  2  0  0  0  0
 17 18  1  0  0  0  0
 17 19  1  0  0  0  0
 17 20  1  0  0  0  0
 14 15  1  0  0  0  0
 14 16  1  0  0  0  0
 14 17  1  0  0  0  0
 11 12  1  0  0  0  0
 11 13  1  0  0  0  0
 11 14  1  0  0  0  0
  9 10  1  0  0  0  0
  9 11  1  0  0  0  0
  9 29  1  0  0  0  0
  7  8  1  0  0  0  0
  7  9  1  0  0  0  0
 33 34  1  0  0  0  0
 33 35  1  0  0  0  0
 33 36  1  0  0  0  0
 31 32  1  0  0  0  0
 31 33  1  0  0  0  0
M  CHG  1  20   1
M  END
$$$$
default_name
  -OEChem-01062215323D

 36 35  0     1  0  0  0  0  0999 V2000
   -4.2256   -3.6731    1.8584 H   0  0  0  0  0  0  0  0  0  0  0  0
   -4.2396   -2.6781    1.4144 C   0  0  0  0  0  0  0  0  0  0  0  0
   -4.9506   -2.0521    1.9514 H   0  0  0  0  0  0  0  0  0  0  0  0
   -4.5266   -2.7521    0.3674 H   0  0  0  0  0  0  0  0  0  0  0  0
   -2.8576   -2.0761    1.5184 C   0  0  0  0  0  0  0  0  0  0  0  0
   -1.9456   -2.7051    2.0404 O   0  0  0  0  0  0  0  0  0  0  0  0
   -2.6926   -0.8481    1.0174 N   0  0  0  0  0  0  0  0  0  0  0  0
   -3.4926   -0.3971    0.5954 H   0  0  0  0  0  0  0  0  0  0  0  0
   -1.4216   -0.1071    1.0434 C   0  0  1  0  0  0  0  0  0  0  0  0
   -0.8665   -0.4075    1.9336 H   0  0  0  0  0  0  0  0  0  0  0  0
   -0.6047   -0.4956   -0.2052 C   0  0  0  0  0  0  0  0  0  0  0  0
   -1.2255   -0.3404   -1.0899 H   0  0  0  0  0  0  0  0  0  0  0  0
    0.2647    0.1611   -0.2815 H   0  0  0  0  0  0  0  0  0  0  0  0
   -0.1333   -1.9571   -0.1970 C   0  0  0  0  0  0  0  0  0  0  0  0
    0.4999   -2.1357    0.6732 H   0  0  0  0  0  0  0  0  0  0  0  0
   -1.0012   -2.6158   -0.1523 H   0  0  0  0  0  0  0  0  0  0  0  0
    0.6683   -2.2548   -1.4715 C   0  0  0  0  0  0  0  0  0  0  0  0
    0.0355   -2.0479   -2.3376 H   0  0  0  0  0  0  0  0  0  0  0  0
    1.5345   -1.5896   -1.5007 H   0  0  0  0  0  0  0  0  0  0  0  0
    1.1229   -3.6598   -1.5177 N   0  3  0  0  0  0  0  0  0  0  0  0
    0.9070   -4.2309   -0.7187 H   0  0  0  0  0  0  0  0  0  0  0  0
    1.7845   -4.2349   -2.5079 C   0  0  0  0  0  0  0  0  0  0  0  0
    2.1152   -3.5866   -3.5894 N   0  0  0  0  0  0  0  0  0  0  0  0
    1.8567   -2.6192   -3.6716 H   0  0  0  0  0  0  0  0  0  0  0  0
    2.6177   -4.0380   -4.3314 H   0  0  0  0  0  0  0  0  0  0  0  0
    2.1319   -5.4881   -2.4291 N   0  0  0  0  0  0  0  0  0  0  0  0
    1.8989   -6.0297   -1.6147 H   0  0  0  0  0  0  0  0  0  0  0  0
    2.6337   -5.9206   -3.1826 H   0  0  0  0  0  0  0  0  0  0  0  0
   -1.6810    1.3993    1.1092 C   0  0  0  0  0  0  0  0  0  0  0  0
   -1.5395    1.9918    2.1723 O   0  0  0  0  0  0  0  0  0  0  0  0
   -2.0930    1.9967   -0.0133 N   0  0  0  0  0  0  0  0  0  0  0  0
   -2.1464    1.4402   -0.8508 H   0  0  0  0  0  0  0  0  0  0  0  0
   -2.3829    3.4275   -0.1206 C   0  0  0  0  0  0  0  0  0  0  0  0
   -1.4712    4.0030    0.0528 H   0  0  0  0  0  0  0  0  0  0  0  0
   -2.7691    3.6636   -1.1130 H   0  0  0  0  0  0  0  0  0  0  0  0
   -3.1211    3.7164    0.6307 H   0  0  0  0  0  0  0  0  0  0  0  0
  5  6  2  0  0  0  0
  5  7  1  0  0  0  0
  2  3  1  0  0  0  0
  2  4  1  0  0  0  0
  2  5  1  0  0  0  0
  1  2  1  0  0  0  0
 29 30  2  0  0  0  0
 29 31  1  0  0  0  0
 26 27  1  0  0  0  0
 26 28  1  0  0  0  0
 23 24  1  0  0  0  0
 23 25  1  0  0  0  0
 22 23  1  0  0  0  0
 22 26  1  0  0  0  0
 20 21  1  0  0  0  0
 20 22  2  0  0  0  0
 17 18  1  0  0  0  0
 17 19  1  0  0  0  0
 17 20  1  0  0  0  0
 14 15  1  0  0  0  0
 14 16  1  0  0  0  0
 14 17  1  0  0  0  0
 11 12  1  0  0  0  0
 11 13  1  0  0  0  0
 11 14  1  0  0  0  0
  9 10  1  0  0  0  0
  9 11  1  0  0  0  0
  9 29  1  0  0  0  0
  7  8  1  0  0  0  0
  7  9  1  0  0  0  0
 33 34  1  0  0  0  0
 33 35  1  0  0  0  0
 33 36  1  0  0  0  0
 31 32  1  0  0  0  0
 31 33  1  0  0  0  0
M  CHG  1  20   1
M  END
$$$$
default_name
  -OEChem-01062215323D

 36 35  0     1  0  0  0  0  0999 V2000
   -4.2256   -3.6731    1.8584 H   0  0  0  0  0  0  0  0  0  0  0  0
   -4.2396   -2.6781    1.4144 C   0  0  0  0  0  0  0  0  0  0  0  0
   -4.9506   -2.0521    1.9514 H   0  0  0  0  0  0  0  0  0  0  0  0
   -4.5266   -2.7521    0.3674 H   0  0  0  0  0  0  0  0  0  0  0  0
   -2.8576   -2.0761    1.5184 C   0  0  0  0  0  0  0  0  0  0  0  0
   -1.9456   -2.7051    2.0404 O   0  0  0  0  0  0  0  0  0  0  0  0
   -2.6926   -0.8481    1.0174 N   0  0  0  0  0  0  0  0  0  0  0  0
   -3.4926   -0.3971    0.5954 H   0  0  0  0  0  0  0  0  0  0  0  0
   -1.4216   -0.1071    1.0434 C   0  0  1  0  0  0  0  0  0  0  0  0
   -0.8665   -0.4075    1.9336 H   0  0  0  0  0  0  0  0  0  0  0  0
   -0.6047   -0.4956   -0.2052 C   0  0  0  0  0  0  0  0  0  0  0  0
   -1.2255   -0.3404   -1.0899 H   0  0  0  0  0  0  0  0  0  0  0  0
    0.2647    0.1611   -0.2815 H   0  0  0  0  0  0  0  0  0  0  0  0
   -0.1333   -1.9571   -0.1970 C   0  0  0  0  0  0  0  0  0  0  0  0
    0.4999   -2.1357    0.6732 H   0  0  0  0  0  0  0  0  0  0  0  0
   -1.0012   -2.6158   -0.1523 H   0  0  0  0  0  0  0  0  0  0  0  0
    0.6683   -2.2548   -1.4715 C   0  0  0  0  0  0  0  0  0  0  0  0
    0.0355   -2.0479   -2.3376 H   0  0  0  0  0  0  0  0  0  0  0  0
    1.5345   -1.5896   -1.5007 H   0  0  0  0  0  0  0  0  0  0  0  0
    1.1229   -3.6598   -1.5177 N   0  3  0  0  0  0  0  0  0  0  0  0
    0.9070   -4.2309   -0.7187 H   0  0  0  0  0  0  0  0  0  0  0  0
    1.7845   -4.2349   -2.5079 C   0  0  0  0  0  0  0  0  0  0  0  0
    2.1152   -3.5866   -3.5894 N   0  0  0  0  0  0  0  0  0  0  0  0
    1.8567   -2.6192   -3.6716 H   0  0  0  0  0  0  0  0  0  0  0  0
    2.6177   -4.0380   -4.3314 H   0  0  0  0  0  0  0  0  0  0  0  0
    2.1319   -5.4881   -2.4291 N   0  0  0  0  0  0  0  0  0  0  0  0
    1.8989   -6.0297   -1.6147 H   0  0  0  0  0  0  0  0  0  0  0  0
    2.6337   -5.9206   -3.1826 H   0  0  0  0  0  0  0  0  0  0  0  0
   -1.6810    1.3993    1.1092 C   0  0  0  0  0  0  0  0  0  0  0  0
   -1.2835    2.0402    2.0749 O   0  0  0  0  0  0  0  0  0  0  0  0
   -2.3752    1.9429    0.1046 N   0  0  0  0  0  0  0  0  0  0  0  0
   -2.6307    1.3488   -0.6672 H   0  0  0  0  0  0  0  0  0  0  0  0
   -2.7069    3.3658    0.0142 C   0  0  0  0  0  0  0  0  0  0  0  0
   -1.7908    3.9536   -0.0753 H   0  0  0  0  0  0  0  0  0  0  0  0
   -3.3369    3.5546   -0.8560 H   0  0  0  0  0  0  0  0  0  0  0  0
   -3.2342    3.6845    0.9159 H   0  0  0  0  0  0  0  0  0  0  0  0
  5  6  2  0  0  0  0
  5  7  1  0  0  0  0
  2  3  1  0  0  0  0
  2  4  1  0  0  0  0
  2  5  1  0  0  0  0
  1  2  1  0  0  0  0
 29 30  2  0  0  0  0
 29 31  1  0  0  0  0
 26 27  1  0  0  0  0
 26 28  1  0  0  0  0
 23 24  1  0  0  0  0
 23 25  1  0  0  0  0
 22 23  1  0  0  0  0
 22 26  1  0  0  0  0
 20 21  1  0  0  0  0
 20 22  2  0  0  0  0
 17 18  1  0  0  0  0
 17 19  1  0  0  0  0
 17 20  1  0  0  0  0
 14 15  1  0  0  0  0
 14 16  1  0  0  0  0
 14 17  1  0  0  0  0
 11 12  1  0  0  0  0
 11 13  1  0  0  0  0
 11 14  1  0  0  0  0
  9 10  1  0  0  0  0
  9 11  1  0  0  0  0
  9 29  1  0  0  0  0
  7  8  1  0  0  0  0
  7  9  1  0  0  0  0
 33 34  1  0  0  0  0
 33 35  1  0  0  0  0
 33 36  1  0  0  0  0
 31 32  1  0  0  0  0
 31 33  1  0  0  0  0
M  CHG  1  20   1
M  END
$$$$
default_name
  -OEChem-01062215323D

 36 35  0     1  0  0  0  0  0999 V2000
   -4.2256   -3.6731    1.8584 H   0  0  0  0  0  0  0  0  0  0  0  0
   -4.2396   -2.6781    1.4144 C   0  0  0  0  0  0  0  0  0  0  0  0
   -4.9506   -2.0521    1.9514 H   0  0  0  0  0  0  0  0  0  0  0  0
   -4.5266   -2.7521    0.3674 H   0  0  0  0  0  0  0  0  0  0  0  0
   -2.8576   -2.0761    1.5184 C   0  0  0  0  0  0  0  0  0  0  0  0
   -1.9456   -2.7051    2.0404 O   0  0  0  0  0  0  0  0  0  0  0  0
   -2.6926   -0.8481    1.0174 N   0  0  0  0  0  0  0  0  0  0  0  0
   -3.4926   -0.3971    0.5954 H   0  0  0  0  0  0  0  0  0  0  0  0
   -1.4216   -0.1071    1.0434 C   0  0  1  0  0  0  0  0  0  0  0  0
   -0.8665   -0.4075    1.9336 H   0  0  0  0  0  0  0  0  0  0  0  0
   -0.6047   -0.4956   -0.2052 C   0  0  0  0  0  0  0  0  0  0  0  0
   -1.2255   -0.3404   -1.0899 H   0  0  0  0  0  0  0  0  0  0  0  0
    0.2647    0.1611   -0.2815 H   0  0  0  0  0  0  0  0  0  0  0  0
   -0.1333   -1.9571   -0.1970 C   0  0  0  0  0  0  0  0  0  0  0  0
    0.4999   -2.1357    0.6732 H   0  0  0  0  0  0  0  0  0  0  0  0
   -1.0012   -2.6158   -0.1523 H   0  0  0  0  0  0  0  0  0  0  0  0
    0.6683   -2.2548   -1.4715 C   0  0  0  0  0  0  0  0  0  0  0  0
    0.0355   -2.0479   -2.3376 H   0  0  0  0  0  0  0  0  0  0  0  0
    1.5345   -1.5896   -1.5007 H   0  0  0  0  0  0  0  0  0  0  0  0
    1.1229   -3.6598   -1.5177 N   0  3  0  0  0  0  0  0  0  0  0  0
    0.9070   -4.2309   -0.7187 H   0  0  0  0  0  0  0  0  0  0  0  0
    1.7845   -4.2349   -2.5079 C   0  0  0  0  0  0  0  0  0  0  0  0
    2.1152   -3.5866   -3.5894 N   0  0  0  0  0  0  0  0  0  0  0  0
    1.8567   -2.6192   -3.6716 H   0  0  0  0  0  0  0  0  0  0  0  0
    2.6177   -4.0380   -4.3314 H   0  0  0  0  0  0  0  0  0  0  0  0
    2.1319   -5.4881   -2.4291 N   0  0  0  0  0  0  0  0  0  0  0  0
    1.8989   -6.0297   -1.6147 H   0  0  0  0  0  0  0  0  0  0  0  0
    2.6337   -5.9206   -3.1826 H   0  0  0  0  0  0  0  0  0  0  0  0
   -1.6810    1.3993    1.1092 C   0  0  0  0  0  0  0  0  0  0  0  0
   -1.0616    2.0854    1.9134 O   0  0  0  0  0  0  0  0  0  0  0  0
   -2.6172    1.8930    0.2928 N   0  0  0  0  0  0  0  0  0  0  0  0
   -3.0506    1.2631   -0.3624 H   0  0  0  0  0  0  0  0  0  0  0  0
   -2.9848    3.3085    0.2296 C   0  0  0  0  0  0  0  0  0  0  0  0
   -2.1317    3.8966   -0.1154 H   0  0  0  0  0  0  0  0  0  0  0  0
   -3.8186    3.4543   -0.4583 H   0  0  0  0  0  0  0  0  0  0  0  0
   -3.2705    3.6649    1.2217 H   0  0  0  0  0  0  0  0  0  0  0  0
  5  6  2  0  0  0  0
  5  7  1  0  0  0  0
  2  3  1  0  0  0  0
  2  4  1  0  0  0  0
  2  5  1  0  0  0  0
  1  2  1  0  0  0  0
 29 30  2  0  0  0  0
 29 31  1  0  0  0  0
 26 27  1  0  0  0  0
 26 28  1  0  0  0  0
 23 24  1  0  0  0  0
 23 25  1  0  0  0  0
 22 23  1  0  0  0  0
 22 26  1  0  0  0  0
 20 21  1  0  0  0  0
 20 22  2  0  0  0  0
 17 18  1  0  0  0  0
 17 19  1  0  0  0  0
 17 20  1  0  0  0  0
 14 15  1  0  0  0  0
 14 16  1  0  0  0  0
 14 17  1  0  0  0  0
 11 12  1  0  0  0  0
 11 13  1  0  0  0  0
 11 14  1  0  0  0  0
  9 10  1  0  0  0  0
  9 11  1  0  0  0  0
  9 29  1  0  0  0  0
  7  8  1  0  0  0  0
  7  9  1  0  0  0  0
 33 34  1  0  0  0  0
 33 35  1  0  0  0  0
 33 36  1  0  0  0  0
 31 32  1  0  0  0  0
 31 33  1  0  0  0  0
M  CHG  1  20   1
M  END
$$$$
default_name
  -OEChem-01062215323D

 36 35  0     1  0  0  0  0  0999 V2000
   -4.2256   -3.6731    1.8584 H   0  0  0  0  0  0  0  0  0  0  0  0
   -4.2396   -2.6781    1.4144 C   0  0  0  0  0  0  0  0  0  0  0  0
   -4.9506   -2.0521    1.9514 H   0  0  0  0  0  0  0  0  0  0  0  0
   -4.5266   -2.7521    0.3674 H   0  0  0  0  0  0  0  0  0  0  0  0
   -2.8576   -2.0761    1.5184 C   0  0  0  0  0  0  0  0  0  0  0  0
   -1.9456   -2.7051    2.0404 O   0  0  0  0  0  0  0  0  0  0  0  0
   -2.6926   -0.8481    1.0174 N   0  0  0  0  0  0  0  0  0  0  0  0
   -3.4926   -0.3971    0.5954 H   0  0  0  0  0  0  0  0  0  0  0  0
   -1.4216   -0.1071    1.0434 C   0  0  1  0  0  0  0  0  0  0  0  0
   -0.8665   -0.4075    1.9336 H   0  0  0  0  0  0  0  0  0  0  0  0
   -0.6047   -0.4956   -0.2052 C   0  0  0  0  0  0  0  0  0  0  0  0
   -1.2255   -0.3404   -1.0899 H   0  0  0  0  0  0  0  0  0  0  0  0
    0.2647    0.1611   -0.2815 H   0  0  0  0  0  0  0  0  0  0  0  0
   -0.1333   -1.9571   -0.1970 C   0  0  0  0  0  0  0  0  0  0  0  0
    0.4999   -2.1357    0.6732 H   0  0  0  0  0  0  0  0  0  0  0  0
   -1.0012   -2.6158   -0.1523 H   0  0  0  0  0  0  0  0  0  0  0  0
    0.6683   -2.2548   -1.4715 C   0  0  0  0  0  0  0  0  0  0  0  0
    0.0355   -2.0479   -2.3376 H   0  0  0  0  0  0  0  0  0  0  0  0
    1.5345   -1.5896   -1.5007 H   0  0  0  0  0  0  0  0  0  0  0  0
    1.1229   -3.6598   -1.5177 N   0  3  0  0  0  0  0  0  0  0  0  0
    0.9070   -4.2309   -0.7187 H   0  0  0  0  0  0  0  0  0  0  0  0
    1.7845   -4.2349   -2.5079 C   0  0  0  0  0  0  0  0  0  0  0  0
    2.1152   -3.5866   -3.5894 N   0  0  0  0  0  0  0  0  0  0  0  0
    1.8567   -2.6192   -3.6716 H   0  0  0  0  0  0  0  0  0  0  0  0
    2.6177   -4.0380   -4.3314 H   0  0  0  0  0  0  0  0  0  0  0  0
    2.1319   -5.4881   -2.4291 N   0  0  0  0  0  0  0  0  0  0  0  0
    1.8989   -6.0297   -1.6147 H   0  0  0  0  0  0  0  0  0  0  0  0
    2.6337   -5.9206   -3.1826 H   0  0  0  0  0  0  0  0  0  0  0  0
   -1.6810    1.3993    1.1092 C   0  0  0  0  0  0  0  0  0  0  0  0
   -0.8889    2.1246    1.6990 O   0  0  0  0  0  0  0  0  0  0  0  0
   -2.8023    1.8504    0.5384 N   0  0  0  0  0  0  0  0  0  0  0  0
   -3.3777    1.1891    0.0428 H   0  0  0  0  0  0  0  0  0  0  0  0
   -3.1977    3.2596    0.5111 C   0  0  0  0  0  0  0  0  0  0  0  0
   -2.4706    3.8360   -0.0648 H   0  0  0  0  0  0  0  0  0  0  0  0
   -4.1815    3.3694    0.0530 H   0  0  0  0  0  0  0  0  0  0  0  0
   -3.2273    3.6590    1.5272 H   0  0  0  0  0  0  0  0  0  0  0  0
  5  6  2  0  0  0  0
  5  7  1  0  0  0  0
  2  3  1  0  0  0  0
  2  4  1  0  0  0  0
  2  5  1  0  0  0  0
  1  2  1  0  0  0  0
 29 30  2  0  0  0  0
 29 31  1  0  0  0  0
 26 27  1  0  0  0  0
 26 28  1  0  0  0  0
 23 24  1  0  0  0  0
 23 25  1  0  0  0  0
 22 23  1  0  0  0  0
 22 26  1  0  0  0  0
 20 21  1  0  0  0  0
 20 22  2  0  0  0  0
 17 18  1  0  0  0  0
 17 19  1  0  0  0  0
 17 20  1  0  0  0  0
 14 15  1  0  0  0  0
 14 16  1  0  0  0  0
 14 17  1  0  0  0  0
 11 12  1  0  0  0  0
 11 13  1  0  0  0  0
 11 14  1  0  0  0  0
  9 10  1  0  0  0  0
  9 11  1  0  0  0  0
  9 29  1  0  0  0  0
  7  8  1  0  0  0  0
  7  9  1  0  0  0  0
 33 34  1  0  0  0  0
 33 35  1  0  0  0  0
 33 36  1  0  0  0  0
 31 32  1  0  0  0  0
 31 33  1  0  0  0  0
M  CHG  1  20   1
M  END
$$$$
default_name
  -OEChem-01062215323D

 36 35  0     1  0  0  0  0  0999 V2000
   -4.2256   -3.6731    1.8584 H   0  0  0  0  0  0  0  0  0  0  0  0
   -4.2396   -2.6781    1.4144 C   0  0  0  0  0  0  0  0  0  0  0  0
   -4.9506   -2.0521    1.9514 H   0  0  0  0  0  0  0  0  0  0  0  0
   -4.5266   -2.7521    0.3674 H   0  0  0  0  0  0  0  0  0  0  0  0
   -2.8576   -2.0761    1.5184 C   0  0  0  0  0  0  0  0  0  0  0  0
   -1.9456   -2.7051    2.0404 O   0  0  0  0  0  0  0  0  0  0  0  0
   -2.6926   -0.8481    1.0174 N   0  0  0  0  0  0  0  0  0  0  0  0
   -3.4926   -0.3971    0.5954 H   0  0  0  0  0  0  0  0  0  0  0  0
   -1.4216   -0.1071    1.0434 C   0  0  1  0  0  0  0  0  0  0  0  0
   -0.8665   -0.4075    1.9336 H   0  0  0  0  0  0  0  0  0  0  0  0
   -0.6047   -0.4956   -0.2052 C   0  0  0  0  0  0  0  0  0  0  0  0
   -1.2255   -0.3404   -1.0899 H   0  0  0  0  0  0  0  0  0  0  0  0
    0.2647    0.1611   -0.2815 H   0  0  0  0  0  0  0  0  0  0  0  0
   -0.1333   -1.9571   -0.1970 C   0  0  0  0  0  0  0  0  0  0  0  0
    0.4999   -2.1357    0.6732 H   0  0  0  0  0  0  0  0  0  0  0  0
   -1.0012   -2.6158   -0.1523 H   0  0  0  0  0  0  0  0  0  0  0  0
    0.6683   -2.2548   -1.4715 C   0  0  0  0  0  0  0  0  0  0  0  0
    0.0355   -2.0479   -2.3376 H   0  0  0  0  0  0  0  0  0  0  0  0
    1.5345   -1.5896   -1.5007 H   0  0  0  0  0  0  0  0  0  0  0  0
    1.1229   -3.6598   -1.5177 N   0  3  0  0  0  0  0  0  0  0  0  0
    0.9070   -4.2309   -0.7187 H   0  0  0  0  0  0  0  0  0  0  0  0
    1.7845   -4.2349   -2.5079 C   0  0  0  0  0  0  0  0  0  0  0  0
    2.1152   -3.5866   -3.5894 N   0  0  0  0  0  0  0  0  0  0  0  0
    1.8567   -2.6192   -3.6716 H   0  0  0  0  0  0  0  0  0  0  0  0
    2.6177   -4.0380   -4.3314 H   0  0  0  0  0  0  0  0  0  0  0  0
    2.1319   -5.4881   -2.4291 N   0  0  0  0  0  0  0  0  0  0  0  0
    1.8989   -6.0297   -1.6147 H   0  0  0  0  0  0  0  0  0  0  0  0
    2.6337   -5.9206   -3.1826 H   0  0  0  0  0  0  0  0  0  0  0  0
   -1.6810    1.3993    1.1092 C   0  0  0  0  0  0  0  0  0  0  0  0
   -0.7772    2.1548    1.4461 O   0  0  0  0  0  0  0  0  0  0  0  0
   -2.9182    1.8179    0.8247 N   0  0  0  0  0  0  0  0  0  0  0  0
   -3.5895    1.1318    0.5207 H   0  0  0  0  0  0  0  0  0  0  0  0
   -3.3311    3.2223    0.8393 C   0  0  0  0  0  0  0  0  0  0  0  0
   -2.7843    3.7760    0.0731 H   0  0  0  0  0  0  0  0  0  0  0  0
   -4.4008    3.3059    0.6432 H   0  0  0  0  0  0  0  0  0  0  0  0
   -3.1078    3.6672    1.8115 H   0  0  0  0  0  0  0  0  0  0  0  0
  5  6  2  0  0  0  0
  5  7  1  0  0  0  0
  2  3  1  0  0  0  0
  2  4  1  0  0  0  0
  2  5  1  0  0  0  0
  1  2  1  0  0  0  0
 29 30  2  0  0  0  0
 29 31  1  0  0  0  0
 26 27  1  0  0  0  0
 26 28  1  0  0  0  0
 23 24  1  0  0  0  0
 23 25  1  0  0  0  0
 22 23  1  0  0  0  0
 22 26  1  0  0  0  0
 20 21  1  0  0  0  0
 20 22  2  0  0  0  0
 17 18  1  0  0  0  0
 17 19  1  0  0  0  0
 17 20  1  0  0  0  0
 14 15  1  0  0  0  0
 14 16  1  0  0  0  0
 14 17  1  0  0  0  0
 11 12  1  0  0  0  0
 11 13  1  0  0  0  0
 11 14  1  0  0  0  0
  9 10  1  0  0  0  0
  9 11  1  0  0  0  0
  9 29  1  0  0  0  0
  7  8  1  0  0  0  0
  7  9  1  0  0  0  0
 33 34  1  0  0  0  0
 33 35  1  0  0  0  0
 33 36  1  0  0  0  0
 31 32  1  0  0  0  0
 31 33  1  0  0  0  0
M  CHG  1  20   1
M  END
$$$$
default_name
  -OEChem-01062215323D

 36 35  0     1  0  0  0  0  0999 V2000
   -4.2256   -3.6731    1.8584 H   0  0  0  0  0  0  0  0  0  0  0  0
   -4.2396   -2.6781    1.4144 C   0  0  0  0  0  0  0  0  0  0  0  0
   -4.9506   -2.0521    1.9514 H   0  0  0  0  0  0  0  0  0  0  0  0
   -4.5266   -2.7521    0.3674 H   0  0  0  0  0  0  0  0  0  0  0  0
   -2.8576   -2.0761    1.5184 C   0  0  0  0  0  0  0  0  0  0  0  0
   -1.9456   -2.7051    2.0404 O   0  0  0  0  0  0  0  0  0  0  0  0
   -2.6926   -0.8481    1.0174 N   0  0  0  0  0  0  0  0  0  0  0  0
   -3.4926   -0.3971    0.5954 H   0  0  0  0  0  0  0  0  0  0  0  0
   -1.4216   -0.1071    1.0434 C   0  0  1  0  0  0  0  0  0  0  0  0
   -0.8665   -0.4075    1.9336 H   0  0  0  0  0  0  0  0  0  0  0  0
   -0.6047   -0.4956   -0.2052 C   0  0  0  0  0  0  0  0  0  0  0  0
   -1.2255   -0.3404   -1.0899 H   0  0  0  0  0  0  0  0  0  0  0  0
    0.2647    0.1611   -0.2815 H   0  0  0  0  0  0  0  0  0  0  0  0
   -0.1333   -1.9571   -0.1970 C   0  0  0  0  0  0  0  0  0  0  0  0
    0.4999   -2.1357    0.6732 H   0  0  0  0  0  0  0  0  0  0  0  0
   -1.0012   -2.6158   -0.1523 H   0  0  0  0  0  0  0  0  0  0  0  0
    0.6683   -2.2548   -1.4715 C   0  0  0  0  0  0  0  0  0  0  0  0
    0.0355   -2.0479   -2.3376 H   0  0  0  0  0  0  0  0  0  0  0  0
    1.5345   -1.5896   -1.5007 H   0  0  0  0  0  0  0  0  0  0  0  0
    1.1229   -3.6598   -1.5177 N   0  3  0  0  0  0  0  0  0  0  0  0
    0.9070   -4.2309   -0.7187 H   0  0  0  0  0  0  0  0  0  0  0  0
    1.7845   -4.2349   -2.5079 C   0  0  0  0  0  0  0  0  0  0  0  0
    2.1152   -3.5866   -3.5894 N   0  0  0  0  0  0  0  0  0  0  0  0
    1.8567   -2.6192   -3.6716 H   0  0  0  0  0  0  0  0  0  0  0  0
    2.6177   -4.0380   -4.3314 H   0  0  0  0  0  0  0  0  0  0  0  0
    2.1319   -5.4881   -2.4291 N   0  0  0  0  0  0  0  0  0  0  0  0
    1.8989   -6.0297   -1.6147 H   0  0  0  0  0  0  0  0  0  0  0  0
    2.6337   -5.9206   -3.1826 H   0  0  0  0  0  0  0  0  0  0  0  0
   -1.6810    1.3993    1.1092 C   0  0  0  0  0  0  0  0  0  0  0  0
   -0.7341    2.1742    1.1720 O   0  0  0  0  0  0  0  0  0  0  0  0
   -2.9567    1.7979    1.1321 N   0  0  0  0  0  0  0  0  0  0  0  0
   -3.6716    1.0950    1.0389 H   0  0  0  0  0  0  0  0  0  0  0  0
   -3.3759    3.1991    1.1920 C   0  0  0  0  0  0  0  0  0  0  0  0
   -3.0515    3.7205    0.2889 H   0  0  0  0  0  0  0  0  0  0  0  0
   -4.4615    3.2680    1.2718 H   0  0  0  0  0  0  0  0  0  0  0  0
   -2.9199    3.6889    2.0552 H   0  0  0  0  0  0  0  0  0  0  0  0
  5  6  2  0  0  0  0
  5  7  1  0  0  0  0
  2  3  1  0  0  0  0
  2  4  1  0  0  0  0
  2  5  1  0  0  0  0
  1  2  1  0  0  0  0
 29 30  2  0  0  0  0
 29 31  1  0  0  0  0
 26 27  1  0  0  0  0
 26 28  1  0  0  0  0
 23 24  1  0  0  0  0
 23 25  1  0  0  0  0
 22 23  1  0  0  0  0
 22 26  1  0  0  0  0
 20 21  1  0  0  0  0
 20 22  2  0  0  0  0
 17 18  1  0  0  0  0
 17 19  1  0  0  0  0
 17 20  1  0  0  0  0
 14 15  1  0  0  0  0
 14 16  1  0  0  0  0
 14 17  1  0  0  0  0
 11 12  1  0  0  0  0
 11 13  1  0  0  0  0
 11 14  1  0  0  0  0
  9 10  1  0  0  0  0
  9 11  1  0  0  0  0
  9 29  1  0  0  0  0
  7  8  1  0  0  0  0
  7  9  1  0  0  0  0
 33 34  1  0  0  0  0
 33 35  1  0  0  0  0
 33 36  1  0  0  0  0
 31 32  1  0  0  0  0
 31 33  1  0  0  0  0
M  CHG  1  20   1
M  END
$$$$
default_name
  -OEChem-01062215323D

 36 35  0     1  0  0  0  0  0999 V2000
   -4.2256   -3.6731    1.8584 H   0  0  0  0  0  0  0  0  0  0  0  0
   -4.2396   -2.6781    1.4144 C   0  0  0  0  0  0  0  0  0  0  0  0
   -4.9506   -2.0521    1.9514 H   0  0  0  0  0  0  0  0  0  0  0  0
   -4.5266   -2.7521    0.3674 H   0  0  0  0  0  0  0  0  0  0  0  0
   -2.8576   -2.0761    1.5184 C   0  0  0  0  0  0  0  0  0  0  0  0
   -1.9456   -2.7051    2.0404 O   0  0  0  0  0  0  0  0  0  0  0  0
   -2.6926   -0.8481    1.0174 N   0  0  0  0  0  0  0  0  0  0  0  0
   -3.4926   -0.3971    0.5954 H   0  0  0  0  0  0  0  0  0  0  0  0
   -1.4216   -0.1071    1.0434 C   0  0  1  0  0  0  0  0  0  0  0  0
   -0.8665   -0.4075    1.9336 H   0  0  0  0  0  0  0  0  0  0  0  0
   -0.6047   -0.4956   -0.2052 C   0  0  0  0  0  0  0  0  0  0  0  0
   -1.2255   -0.3404   -1.0899 H   0  0  0  0  0  0  0  0  0  0  0  0
    0.2647    0.1611   -0.2815 H   0  0  0  0  0  0  0  0  0  0  0  0
   -0.1333   -1.9571   -0.1970 C   0  0  0  0  0  0  0  0  0  0  0  0
    0.4999   -2.1357    0.6732 H   0  0  0  0  0  0  0  0  0  0  0  0
   -1.0012   -2.6158   -0.1523 H   0  0  0  0  0  0  0  0  0  0  0  0
    0.6683   -2.2548   -1.4715 C   0  0  0  0  0  0  0  0  0  0  0  0
    0.0355   -2.0479   -2.3376 H   0  0  0  0  0  0  0  0  0  0  0  0
    1.5345   -1.5896   -1.5007 H   0  0  0  0  0  0  0  0  0  0  0  0
    1.1229   -3.6598   -1.5177 N   0  3  0  0  0  0  0  0  0  0  0  0
    0.9070   -4.2309   -0.7187 H   0  0  0  0  0  0  0  0  0  0  0  0
    1.7845   -4.2349   -2.5079 C   0  0  0  0  0  0  0  0  0  0  0  0
    2.1152   -3.5866   -3.5894 N   0  0  0  0  0  0  0  0  0  0  0  0
    1.8567   -2.6192   -3.6716 H   0  0  0  0  0  0  0  0  0  0  0  0
    2.6177   -4.0380   -4.3314 H   0  0  0  0  0  0  0  0  0  0  0  0
    2.1319   -5.4881   -2.4291 N   0  0  0  0  0  0  0  0  0  0  0  0
    1.8989   -6.0297   -1.6147 H   0  0  0  0  0  0  0  0  0  0  0  0
    2.6337   -5.9206   -3.1826 H   0  0  0  0  0  0  0  0  0  0  0  0
   -1.6810    1.3993    1.1092 C   0  0  0  0  0  0  0  0  0  0  0  0
   -0.7625    2.1814    0.8955 O   0  0  0  0  0  0  0  0  0  0  0  0
   -2.9154    1.7916    1.4398 N   0  0  0  0  0  0  0  0  0  0  0  0
   -3.6185    1.0813    1.5620 H   0  0  0  0  0  0  0  0  0  0  0  0
   -3.3290    3.1918    1.5451 C   0  0  0  0  0  0  0  0  0  0  0  0
   -3.2541    3.6735    0.5678 H   0  0  0  0  0  0  0  0  0  0  0  0
   -4.3595    3.2583    1.8962 H   0  0  0  0  0  0  0  0  0  0  0  0
   -2.6766    3.7226    2.2419 H   0  0  0  0  0  0  0  0  0  0  0  0
  5  6  2  0  0  0  0
  5  7  1  0  0  0  0
  2  3  1  0  0  0  0
  2  4  1  0  0  0  0
  2  5  1  0  0  0  0
  1  2  1  0  0  0  0
 29 30  2  0  0  0  0
 29 31  1  0  0  0  0
 26 27  1  0  0  0  0
 26 28  1  0  0  0  0
 23 24  1  0  0  0  0
 23 25  1  0  0  0  0
 22 23  1  0  0  0  0
 22 26  1  0  0  0  0
 20 21  1  0  0  0  0
 20 22  2  0  0  0  0
 17 18  1  0  0  0  0
 17 19  1  0  0  0  0
 17 20  1  0  0  0  0
 14 15  1  0  0  0  0
 14 16  1  0  0  0  0
 14 17  1  0  0  0  0
 11 12  1  0  0  0  0
 11 13  1  0  0  0  0
 11 14  1  0  0  0  0
  9 10  1  0  0  0  0
  9 11  1  0  0  0  0
  9 29  1  0  0  0  0
  7  8  1  0  0  0  0
  7  9  1  0  0  0  0
 33 34  1  0  0  0  0
 33 35  1  0  0  0  0
 33 36  1  0  0  0  0
 31 32  1  0  0  0  0
 31 33  1  0  0  0  0
M  CHG  1  20   1
M  END
$$$$
default_name
  -OEChem-01062215323D

 36 35  0     1  0  0  0  0  0999 V2000
   -4.2256   -3.6731    1.8584 H   0  0  0  0  0  0  0  0  0  0  0  0
   -4.2396   -2.6781    1.4144 C   0  0  0  0  0  0  0  0  0  0  0  0
   -4.9506   -2.0521    1.9514 H   0  0  0  0  0  0  0  0  0  0  0  0
   -4.5266   -2.7521    0.3674 H   0  0  0  0  0  0  0  0  0  0  0  0
   -2.8576   -2.0761    1.5184 C   0  0  0  0  0  0  0  0  0  0  0  0
   -1.9456   -2.7051    2.0404 O   0  0  0  0  0  0  0  0  0  0  0  0
   -2.6926   -0.8481    1.0174 N   0  0  0  0  0  0  0  0  0  0  0  0
   -3.4926   -0.3971    0.5954 H   0  0  0  0  0  0  0  0  0  0  0  0
   -1.4216   -0.1071    1.0434 C   0  0  1  0  0  0  0  0  0  0  0  0
   -0.8665   -0.4075    1.9336 H   0  0  0  0  0  0  0  0  0  0  0  0
   -0.6047   -0.4956   -0.2052 C   0  0  0  0  0  0  0  0  0  0  0  0
   -1.2255   -0.3404   -1.0899 H   0  0  0  0  0  0  0  0  0  0  0  0
    0.2647    0.1611   -0.2815 H   0  0  0  0  0  0  0  0  0  0  0  0
   -0.1333   -1.9571   -0.1970 C   0  0  0  0  0  0  0  0  0  0  0  0
    0.4999   -2.1357    0.6732 H   0  0  0  0  0  0  0  0  0  0  0  0
   -1.0012   -2.6158   -0.1523 H   0  0  0  0  0  0  0  0  0  0  0  0
    0.6683   -2.2548   -1.4715 C   0  0  0  0  0  0  0  0  0  0  0  0
    0.0355   -2.0479   -2.3376 H   0  0  0  0  0  0  0  0  0  0  0  0
    1.5345   -1.5896   -1.5007 H   0  0  0  0  0  0  0  0  0  0  0  0
    1.1229   -3.6598   -1.5177 N   0  3  0  0  0  0  0  0  0  0  0  0
    0.9070   -4.2309   -0.7187 H   0  0  0  0  0  0  0  0  0  0  0  0
    1.7845   -4.2349   -2.5079 C   0  0  0  0  0  0  0  0  0  0  0  0
    2.1152   -3.5866   -3.5894 N   0  0  0  0  0  0  0  0  0  0  0  0
    1.8567   -2.6192   -3.6716 H   0  0  0  0  0  0  0  0  0  0  0  0
    2.6177   -4.0380   -4.3314 H   0  0  0  0  0  0  0  0  0  0  0  0
    2.1319   -5.4881   -2.4291 N   0  0  0  0  0  0  0  0  0  0  0  0
    1.8989   -6.0297   -1.6147 H   0  0  0  0  0  0  0  0  0  0  0  0
    2.6337   -5.9206   -3.1826 H   0  0  0  0  0  0  0  0  0  0  0  0
   -1.6810    1.3993    1.1092 C   0  0  0  0  0  0  0  0  0  0  0  0
   -0.8605    2.1759    0.6352 O   0  0  0  0  0  0  0  0  0  0  0  0
   -2.7969    1.7994    1.7268 N   0  0  0  0  0  0  0  0  0  0  0  0
   -3.4338    1.0916    2.0543 H   0  0  0  0  0  0  0  0  0  0  0  0
   -3.1936    3.2007    1.8746 C   0  0  0  0  0  0  0  0  0  0  0  0
   -3.3781    3.6380    0.8910 H   0  0  0  0  0  0  0  0  0  0  0  0
   -4.1018    3.2775    2.4738 H   0  0  0  0  0  0  0  0  0  0  0  0
   -2.3944    3.7661    2.3587 H   0  0  0  0  0  0  0  0  0  0  0  0
  5  6  2  0  0  0  0
  5  7  1  0  0  0  0
  2  3  1  0  0  0  0
  2  4  1  0  0  0  0
  2  5  1  0  0  0  0
  1  2  1  0  0  0  0
 29 30  2  0  0  0  0
 29 31  1  0  0  0  0
 26 27  1  0  0  0  0
 26 28  1  0  0  0  0
 23 24  1  0  0  0  0
 23 25  1  0  0  0  0
 22 23  1  0  0  0  0
 22 26  1  0  0  0  0
 20 21  1  0  0  0  0
 20 22  2  0  0  0  0
 17 18  1  0  0  0  0
 17 19  1  0  0  0  0
 17 20  1  0  0  0  0
 14 15  1  0  0  0  0
 14 16  1  0  0  0  0
 14 17  1  0  0  0  0
 11 12  1  0  0  0  0
 11 13  1  0  0  0  0
 11 14  1  0  0  0  0
  9 10  1  0  0  0  0
  9 11  1  0  0  0  0
  9 29  1  0  0  0  0
  7  8  1  0  0  0  0
  7  9  1  0  0  0  0
 33 34  1  0  0  0  0
 33 35  1  0  0  0  0
 33 36  1  0  0  0  0
 31 32  1  0  0  0  0
 31 33  1  0  0  0  0
M  CHG  1  20   1
M  END
$$$$
default_name
  -OEChem-01062215323D

 36 35  0     1  0  0  0  0  0999 V2000
   -4.2256   -3.6731    1.8584 H   0  0  0  0  0  0  0  0  0  0  0  0
   -4.2396   -2.6781    1.4144 C   0  0  0  0  0  0  0  0  0  0  0  0
   -4.9506   -2.0521    1.9514 H   0  0  0  0  0  0  0  0  0  0  0  0
   -4.5266   -2.7521    0.3674 H   0  0  0  0  0  0  0  0  0  0  0  0
   -2.8576   -2.0761    1.5184 C   0  0  0  0  0  0  0  0  0  0  0  0
   -1.9456   -2.7051    2.0404 O   0  0  0  0  0  0  0  0  0  0  0  0
   -2.6926   -0.8481    1.0174 N   0  0  0  0  0  0  0  0  0  0  0  0
   -3.4926   -0.3971    0.5954 H   0  0  0  0  0  0  0  0  0  0  0  0
   -1.4216   -0.1071    1.0434 C   0  0  1  0  0  0  0  0  0  0  0  0
   -0.8665   -0.4075    1.9336 H   0  0  0  0  0  0  0  0  0  0  0  0
   -0.6047   -0.4956   -0.2052 C   0  0  0  0  0  0  0  0  0  0  0  0
   -1.2255   -0.3404   -1.0899 H   0  0  0  0  0  0  0  0  0  0  0  0
    0.2647    0.1611   -0.2815 H   0  0  0  0  0  0  0  0  0  0  0  0
   -0.1333   -1.9571   -0.1970 C   0  0  0  0  0  0  0  0  0  0  0  0
    0.4999   -2.1357    0.6732 H   0  0  0  0  0  0  0  0  0  0  0  0
   -1.0012   -2.6158   -0.1523 H   0  0  0  0  0  0  0  0  0  0  0  0
    0.6683   -2.2548   -1.4715 C   0  0  0  0  0  0  0  0  0  0  0  0
    0.0355   -2.0479   -2.3376 H   0  0  0  0  0  0  0  0  0  0  0  0
    1.5345   -1.5896   -1.5007 H   0  0  0  0  0  0  0  0  0  0  0  0
    1.1229   -3.6598   -1.5177 N   0  3  0  0  0  0  0  0  0  0  0  0
    0.9070   -4.2309   -0.7187 H   0  0  0  0  0  0  0  0  0  0  0  0
    1.7845   -4.2349   -2.5079 C   0  0  0  0  0  0  0  0  0  0  0  0
    2.1152   -3.5866   -3.5894 N   0  0  0  0  0  0  0  0  0  0  0  0
    1.8567   -2.6192   -3.6716 H   0  0  0  0  0  0  0  0  0  0  0  0
    2.6177   -4.0380   -4.3314 H   0  0  0  0  0  0  0  0  0  0  0  0
    2.1319   -5.4881   -2.4291 N   0  0  0  0  0  0  0  0  0  0  0  0
    1.8989   -6.0297   -1.6147 H   0  0  0  0  0  0  0  0  0  0  0  0
    2.6337   -5.9206   -3.1826 H   0  0  0  0  0  0  0  0  0  0  0  0
   -1.6810    1.3993    1.1092 C   0  0  0  0  0  0  0  0  0  0  0  0
   -1.0213    2.1581    0.4091 O   0  0  0  0  0  0  0  0  0  0  0  0
   -2.6095    1.8209    1.9735 N   0  0  0  0  0  0  0  0  0  0  0  0
   -3.1300    1.1252    2.4823 H   0  0  0  0  0  0  0  0  0  0  0  0
   -2.9790    3.2253    2.1579 C   0  0  0  0  0  0  0  0  0  0  0  0
   -3.4151    3.6165    1.2363 H   0  0  0  0  0  0  0  0  0  0  0  0
   -3.7059    3.3242    2.9651 H   0  0  0  0  0  0  0  0  0  0  0  0
   -2.0925    3.8164    2.3977 H   0  0  0  0  0  0  0  0  0  0  0  0
  5  6  2  0  0  0  0
  5  7  1  0  0  0  0
  2  3  1  0  0  0  0
  2  4  1  0  0  0  0
  2  5  1  0  0  0  0
  1  2  1  0  0  0  0
 29 30  2  0  0  0  0
 29 31  1  0  0  0  0
 26 27  1  0  0  0  0
 26 28  1  0  0  0  0
 23 24  1  0  0  0  0
 23 25  1  0  0  0  0
 22 23  1  0  0  0  0
 22 26  1  0  0  0  0
 20 21  1  0  0  0  0
 20 22  2  0  0  0  0
 17 18  1  0  0  0  0
 17 19  1  0  0  0  0
 17 20  1  0  0  0  0
 14 15  1  0  0  0  0
 14 16  1  0  0  0  0
 14 17  1  0  0  0  0
 11 12  1  0  0  0  0
 11 13  1  0  0  0  0
 11 14  1  0  0  0  0
  9 10  1  0  0  0  0
  9 11  1  0  0  0  0
  9 29  1  0  0  0  0
  7  8  1  0  0  0  0
  7  9  1  0  0  0  0
 33 34  1  0  0  0  0
 33 35  1  0  0  0  0
 33 36  1  0  0  0  0
 31 32  1  0  0  0  0
 31 33  1  0  0  0  0
M  CHG  1  20   1
M  END
$$$$
default_name
  -OEChem-01062215323D

 36 35  0     1  0  0  0  0  0999 V2000
   -4.2256   -3.6731    1.8584 H   0  0  0  0  0  0  0  0  0  0  0  0
   -4.2396   -2.6781    1.4144 C   0  0  0  0  0  0  0  0  0  0  0  0
   -4.9506   -2.0521    1.9514 H   0  0  0  0  0  0  0  0  0  0  0  0
   -4.5266   -2.7521    0.3674 H   0  0  0  0  0  0  0  0  0  0  0  0
   -2.8576   -2.0761    1.5184 C   0  0  0  0  0  0  0  0  0  0  0  0
   -1.9456   -2.7051    2.0404 O   0  0  0  0  0  0  0  0  0  0  0  0
   -2.6926   -0.8481    1.0174 N   0  0  0  0  0  0  0  0  0  0  0  0
   -3.4926   -0.3971    0.5954 H   0  0  0  0  0  0  0  0  0  0  0  0
   -1.4216   -0.1071    1.0434 C   0  0  1  0  0  0  0  0  0  0  0  0
   -0.8665   -0.4075    1.9336 H   0  0  0  0  0  0  0  0  0  0  0  0
   -0.6047   -0.4956   -0.2052 C   0  0  0  0  0  0  0  0  0  0  0  0
   -1.2255   -0.3404   -1.0899 H   0  0  0  0  0  0  0  0  0  0  0  0
    0.2647    0.1611   -0.2815 H   0  0  0  0  0  0  0  0  0  0  0  0
   -0.1333   -1.9571   -0.1970 C   0  0  0  0  0  0  0  0  0  0  0  0
    0.4999   -2.1357    0.6732 H   0  0  0  0  0  0  0  0  0  0  0  0
   -1.0012   -2.6158   -0.1523 H   0  0  0  0  0  0  0  0  0  0  0  0
    0.6683   -2.2548   -1.4715 C   0  0  0  0  0  0  0  0  0  0  0  0
    0.0355   -2.0479   -2.3376 H   0  0  0  0  0  0  0  0  0  0  0  0
    1.5345   -1.5896   -1.5007 H   0  0  0  0  0  0  0  0  0  0  0  0
    1.1229   -3.6598   -1.5177 N   0  3  0  0  0  0  0  0  0  0  0  0
    0.9070   -4.2309   -0.7187 H   0  0  0  0  0  0  0  0  0  0  0  0
    1.7845   -4.2349   -2.5079 C   0  0  0  0  0  0  0  0  0  0  0  0
    2.1152   -3.5866   -3.5894 N   0  0  0  0  0  0  0  0  0  0  0  0
    1.8567   -2.6192   -3.6716 H   0  0  0  0  0  0  0  0  0  0  0  0
    2.6177   -4.0380   -4.3314 H   0  0  0  0  0  0  0  0  0  0  0  0
    2.1319   -5.4881   -2.4291 N   0  0  0  0  0  0  0  0  0  0  0  0
    1.8989   -6.0297   -1.6147 H   0  0  0  0  0  0  0  0  0  0  0  0
    2.6337   -5.9206   -3.1826 H   0  0  0  0  0  0  0  0  0  0  0  0
   -1.6810    1.3993    1.1092 C   0  0  0  0  0  0  0  0  0  0  0  0
   -1.2342    2.1291    0.2324 O   0  0  0  0  0  0  0  0  0  0  0  0
   -2.3659    1.8546    2.1630 N   0  0  0  0  0  0  0  0  0  0  0  0
   -2.7279    1.1799    2.8169 H   0  0  0  0  0  0  0  0  0  0  0  0
   -2.6998    3.2639    2.3758 C   0  0  0  0  0  0  0  0  0  0  0  0
   -3.3627    3.6105    1.5802 H   0  0  0  0  0  0  0  0  0  0  0  0
   -3.1988    3.3953    3.3368 H   0  0  0  0  0  0  0  0  0  0  0  0
   -1.7915    3.8701    2.3563 H   0  0  0  0  0  0  0  0  0  0  0  0
  5  6  2  0  0  0  0
  5  7  1  0  0  0  0
  2  3  1  0  0  0  0
  2  4  1  0  0  0  0
  2  5  1  0  0  0  0
  1  2  1  0  0  0  0
 29 30  2  0  0  0  0
 29 31  1  0  0  0  0
 26 27  1  0  0  0  0
 26 28  1  0  0  0  0
 23 24  1  0  0  0  0
 23 25  1  0  0  0  0
 22 23  1  0  0  0  0
 22 26  1  0  0  0  0
 20 21  1  0  0  0  0
 20 22  2  0  0  0  0
 17 18  1  0  0  0  0
 17 19  1  0  0  0  0
 17 20  1  0  0  0  0
 14 15  1  0  0  0  0
 14 16  1  0  0  0  0
 14 17  1  0  0  0  0
 11 12  1  0  0  0  0
 11 13  1  0  0  0  0
 11 14  1  0  0  0  0
  9 10  1  0  0  0  0
  9 11  1  0  0  0  0
  9 29  1  0  0  0  0
  7  8  1  0  0  0  0
  7  9  1  0  0  0  0
 33 34  1  0  0  0  0
 33 35  1  0  0  0  0
 33 36  1  0  0  0  0
 31 32  1  0  0  0  0
 31 33  1  0  0  0  0
M  CHG  1  20   1
M  END
$$$$
default_name
  -OEChem-01062215323D

 36 35  0     1  0  0  0  0  0999 V2000
   -4.2256   -3.6731    1.8584 H   0  0  0  0  0  0  0  0  0  0  0  0
   -4.2396   -2.6781    1.4144 C   0  0  0  0  0  0  0  0  0  0  0  0
   -4.9506   -2.0521    1.9514 H   0  0  0  0  0  0  0  0  0  0  0  0
   -4.5266   -2.7521    0.3674 H   0  0  0  0  0  0  0  0  0  0  0  0
   -2.8576   -2.0761    1.5184 C   0  0  0  0  0  0  0  0  0  0  0  0
   -1.9456   -2.7051    2.0404 O   0  0  0  0  0  0  0  0  0  0  0  0
   -2.6926   -0.8481    1.0174 N   0  0  0  0  0  0  0  0  0  0  0  0
   -3.4926   -0.3971    0.5954 H   0  0  0  0  0  0  0  0  0  0  0  0
   -1.4216   -0.1071    1.0434 C   0  0  1  0  0  0  0  0  0  0  0  0
   -0.8665   -0.4075    1.9336 H   0  0  0  0  0  0  0  0  0  0  0  0
   -0.6047   -0.4956   -0.2052 C   0  0  0  0  0  0  0  0  0  0  0  0
   -1.2255   -0.3404   -1.0899 H   0  0  0  0  0  0  0  0  0  0  0  0
    0.2647    0.1611   -0.2815 H   0  0  0  0  0  0  0  0  0  0  0  0
   -0.1333   -1.9571   -0.1970 C   0  0  0  0  0  0  0  0  0  0  0  0
    0.4999   -2.1357    0.6732 H   0  0  0  0  0  0  0  0  0  0  0  0
   -1.0012   -2.6158   -0.1523 H   0  0  0  0  0  0  0  0  0  0  0  0
    0.6683   -2.2548   -1.4715 C   0  0  0  0  0  0  0  0  0  0  0  0
    0.0355   -2.0479   -2.3376 H   0  0  0  0  0  0  0  0  0  0  0  0
    1.5345   -1.5896   -1.5007 H   0  0  0  0  0  0  0  0  0  0  0  0
    1.1229   -3.6598   -1.5177 N   0  3  0  0  0  0  0  0  0  0  0  0
    0.9070   -4.2309   -0.7187 H   0  0  0  0  0  0  0  0  0  0  0  0
    1.7845   -4.2349   -2.5079 C   0  0  0  0  0  0  0  0  0  0  0  0
    2.1152   -3.5866   -3.5894 N   0  0  0  0  0  0  0  0  0  0  0  0
    1.8567   -2.6192   -3.6716 H   0  0  0  0  0  0  0  0  0  0  0  0
    2.6177   -4.0380   -4.3314 H   0  0  0  0  0  0  0  0  0  0  0  0
    2.1319   -5.4881   -2.4291 N   0  0  0  0  0  0  0  0  0  0  0  0
    1.8989   -6.0297   -1.6147 H   0  0  0  0  0  0  0  0  0  0  0  0
    2.6337   -5.9206   -3.1826 H   0  0  0  0  0  0  0  0  0  0  0  0
   -1.6810    1.3993    1.1092 C   0  0  0  0  0  0  0  0  0  0  0  0
   -1.4845    2.0911    0.1173 O   0  0  0  0  0  0  0  0  0  0  0  0
   -2.0826    1.8982    2.2825 N   0  0  0  0  0  0  0  0  0  0  0  0
   -2.2548    1.2518    3.0351 H   0  0  0  0  0  0  0  0  0  0  0  0
   -2.3750    3.3138    2.5135 C   0  0  0  0  0  0  0  0  0  0  0  0
   -3.2243    3.6204    1.8992 H   0  0  0  0  0  0  0  0  0  0  0  0
   -2.6150    3.4859    3.5635 H   0  0  0  0  0  0  0  0  0  0  0  0
   -1.5119    3.9234    2.2372 H   0  0  0  0  0  0  0  0  0  0  0  0
  5  6  2  0  0  0  0
  5  7  1  0  0  0  0
  2  3  1  0  0  0  0
  2  4  1  0  0  0  0
  2  5  1  0  0  0  0
  1  2  1  0  0  0  0
 29 30  2  0  0  0  0
 29 31  1  0  0  0  0
 26 27  1  0  0  0  0
 26 28  1  0  0  0  0
 23 24  1  0  0  0  0
 23 25  1  0  0  0  0
 22 23  1  0  0  0  0
 22 26  1  0  0  0  0
 20 21  1  0  0  0  0
 20 22  2  0  0  0  0
 17 18  1  0  0  0  0
 17 19  1  0  0  0  0
 17 20  1  0  0  0  0
 14 15  1  0  0  0  0
 14 16  1  0  0  0  0
 14 17  1  0  0  0  0
 11 12  1  0  0  0  0
 11 13  1  0  0  0  0
 11 14  1  0  0  0  0
  9 10  1  0  0  0  0
  9 11  1  0  0  0  0
  9 29  1  0  0  0  0
  7  8  1  0  0  0  0
  7  9  1  0  0  0  0
 33 34  1  0  0  0  0
 33 35  1  0  0  0  0
 33 36  1  0  0  0  0
 31 32  1  0  0  0  0
 31 33  1  0  0  0  0
M  CHG  1  20   1
M  END
$$$$
default_name
  -OEChem-01062215323D

 36 35  0     1  0  0  0  0  0999 V2000
   -4.2256   -3.6731    1.8584 H   0  0  0  0  0  0  0  0  0  0  0  0
   -4.2396   -2.6781    1.4144 C   0  0  0  0  0  0  0  0  0  0  0  0
   -4.9506   -2.0521    1.9514 H   0  0  0  0  0  0  0  0  0  0  0  0
   -4.5266   -2.7521    0.3674 H   0  0  0  0  0  0  0  0  0  0  0  0
   -2.8576   -2.0761    1.5184 C   0  0  0  0  0  0  0  0  0  0  0  0
   -1.9456   -2.7051    2.0404 O   0  0  0  0  0  0  0  0  0  0  0  0
   -2.6926   -0.8481    1.0174 N   0  0  0  0  0  0  0  0  0  0  0  0
   -3.4926   -0.3971    0.5954 H   0  0  0  0  0  0  0  0  0  0  0  0
   -1.4216   -0.1071    1.0434 C   0  0  1  0  0  0  0  0  0  0  0  0
   -0.8665   -0.4075    1.9336 H   0  0  0  0  0  0  0  0  0  0  0  0
   -0.6047   -0.4956   -0.2052 C   0  0  0  0  0  0  0  0  0  0  0  0
   -1.2255   -0.3404   -1.0899 H   0  0  0  0  0  0  0  0  0  0  0  0
    0.2647    0.1611   -0.2815 H   0  0  0  0  0  0  0  0  0  0  0  0
   -0.1333   -1.9571   -0.1970 C   0  0  0  0  0  0  0  0  0  0  0  0
    0.4999   -2.1357    0.6732 H   0  0  0  0  0  0  0  0  0  0  0  0
   -1.0012   -2.6158   -0.1523 H   0  0  0  0  0  0  0  0  0  0  0  0
    0.6683   -2.2548   -1.4715 C   0  0  0  0  0  0  0  0  0  0  0  0
    0.0355   -2.0479   -2.3376 H   0  0  0  0  0  0  0  0  0  0  0  0
    1.5345   -1.5896   -1.5007 H   0  0  0  0  0  0  0  0  0  0  0  0
    1.1229   -3.6598   -1.5177 N   0  3  0  0  0  0  0  0  0  0  0  0
    0.9070   -4.2309   -0.7187 H   0  0  0  0  0  0  0  0  0  0  0  0
    1.7845   -4.2349   -2.5079 C   0  0  0  0  0  0  0  0  0  0  0  0
    2.1152   -3.5866   -3.5894 N   0  0  0  0  0  0  0  0  0  0  0  0
    1.8567   -2.6192   -3.6716 H   0  0  0  0  0  0  0  0  0  0  0  0
    2.6177   -4.0380   -4.3314 H   0  0  0  0  0  0  0  0  0  0  0  0
    2.1319   -5.4881   -2.4291 N   0  0  0  0  0  0  0  0  0  0  0  0
    1.8989   -6.0297   -1.6147 H   0  0  0  0  0  0  0  0  0  0  0  0
    2.6337   -5.9206   -3.1826 H   0  0  0  0  0  0  0  0  0  0  0  0
   -1.6810    1.3993    1.1092 C   0  0  0  0  0  0  0  0  0  0  0  0
   -1.7551    2.0465    0.0715 O   0  0  0  0  0  0  0  0  0  0  0  0
   -1.7790    1.9487    2.3239 N   0  0  0  0  0  0  0  0  0  0  0  0
   -1.7431    1.3361    3.1223 H   0  0  0  0  0  0  0  0  0  0  0  0
   -2.0267    3.3717    2.5614 C   0  0  0  0  0  0  0  0  0  0  0  0
   -3.0095    3.6455    2.1718 H   0  0  0  0  0  0  0  0  0  0  0  0
   -1.9944    3.5899    3.6297 H   0  0  0  0  0  0  0  0  0  0  0  0
   -1.2728    3.9728    2.0485 H   0  0  0  0  0  0  0  0  0  0  0  0
  5  6  2  0  0  0  0
  5  7  1  0  0  0  0
  2  3  1  0  0  0  0
  2  4  1  0  0  0  0
  2  5  1  0  0  0  0
  1  2  1  0  0  0  0
 29 30  2  0  0  0  0
 29 31  1  0  0  0  0
 26 27  1  0  0  0  0
 26 28  1  0  0  0  0
 23 24  1  0  0  0  0
 23 25  1  0  0  0  0
 22 23  1  0  0  0  0
 22 26  1  0  0  0  0
 20 21  1  0  0  0  0
 20 22  2  0  0  0  0
 17 18  1  0  0  0  0
 17 19  1  0  0  0  0
 17 20  1  0  0  0  0
 14 15  1  0  0  0  0
 14 16  1  0  0  0  0
 14 17  1  0  0  0  0
 11 12  1  0  0  0  0
 11 13  1  0  0  0  0
 11 14  1  0  0  0  0
  9 10  1  0  0  0  0
  9 11  1  0  0  0  0
  9 29  1  0  0  0  0
  7  8  1  0  0  0  0
  7  9  1  0  0  0  0
 33 34  1  0  0  0  0
 33 35  1  0  0  0  0
 33 36  1  0  0  0  0
 31 32  1  0  0  0  0
 31 33  1  0  0  0  0
M  CHG  1  20   1
M  END
$$$$
default_name
  -OEChem-01062215323D

 36 35  0     1  0  0  0  0  0999 V2000
   -4.2256   -3.6731    1.8584 H   0  0  0  0  0  0  0  0  0  0  0  0
   -4.2396   -2.6781    1.4144 C   0  0  0  0  0  0  0  0  0  0  0  0
   -4.9506   -2.0521    1.9514 H   0  0  0  0  0  0  0  0  0  0  0  0
   -4.5266   -2.7521    0.3674 H   0  0  0  0  0  0  0  0  0  0  0  0
   -2.8576   -2.0761    1.5184 C   0  0  0  0  0  0  0  0  0  0  0  0
   -1.9456   -2.7051    2.0404 O   0  0  0  0  0  0  0  0  0  0  0  0
   -2.6926   -0.8481    1.0174 N   0  0  0  0  0  0  0  0  0  0  0  0
   -3.4926   -0.3971    0.5954 H   0  0  0  0  0  0  0  0  0  0  0  0
   -1.4216   -0.1071    1.0434 C   0  0  1  0  0  0  0  0  0  0  0  0
   -0.8665   -0.4075    1.9336 H   0  0  0  0  0  0  0  0  0  0  0  0
   -0.6047   -0.4956   -0.2052 C   0  0  0  0  0  0  0  0  0  0  0  0
   -1.2255   -0.3404   -1.0899 H   0  0  0  0  0  0  0  0  0  0  0  0
    0.2647    0.1611   -0.2815 H   0  0  0  0  0  0  0  0  0  0  0  0
   -0.1333   -1.9571   -0.1970 C   0  0  0  0  0  0  0  0  0  0  0  0
    0.4999   -2.1357    0.6732 H   0  0  0  0  0  0  0  0  0  0  0  0
   -1.0012   -2.6158   -0.1523 H   0  0  0  0  0  0  0  0  0  0  0  0
    0.6683   -2.2548   -1.4715 C   0  0  0  0  0  0  0  0  0  0  0  0
    0.0355   -2.0479   -2.3376 H   0  0  0  0  0  0  0  0  0  0  0  0
    1.5345   -1.5896   -1.5007 H   0  0  0  0  0  0  0  0  0  0  0  0
    1.1229   -3.6598   -1.5177 N   0  3  0  0  0  0  0  0  0  0  0  0
    0.9070   -4.2309   -0.7187 H   0  0  0  0  0  0  0  0  0  0  0  0
    1.7845   -4.2349   -2.5079 C   0  0  0  0  0  0  0  0  0  0  0  0
    2.1152   -3.5866   -3.5894 N   0  0  0  0  0  0  0  0  0  0  0  0
    1.8567   -2.6192   -3.6716 H   0  0  0  0  0  0  0  0  0  0  0  0
    2.6177   -4.0380   -4.3314 H   0  0  0  0  0  0  0  0  0  0  0  0
    2.1319   -5.4881   -2.4291 N   0  0  0  0  0  0  0  0  0  0  0  0
    1.8989   -6.0297   -1.6147 H   0  0  0  0  0  0  0  0  0  0  0  0
    2.6337   -5.9206   -3.1826 H   0  0  0  0  0  0  0  0  0  0  0  0
   -1.6810    1.3993    1.1092 C   0  0  0  0  0  0  0  0  0  0  0  0
   -2.0277    1.9983    0.0983 O   0  0  0  0  0  0  0  0  0  0  0  0
   -1.4758    2.0026    2.2843 N   0  0  0  0  0  0  0  0  0  0  0  0
   -1.2275    1.4271    3.0723 H   0  0  0  0  0  0  0  0  0  0  0  0
   -1.6788    3.4336    2.5165 C   0  0  0  0  0  0  0  0  0  0  0  0
   -2.7328    3.6841    2.3791 H   0  0  0  0  0  0  0  0  0  0  0  0
   -1.3792    3.7002    3.5309 H   0  0  0  0  0  0  0  0  0  0  0  0
   -1.0905    4.0150    1.8032 H   0  0  0  0  0  0  0  0  0  0  0  0
  5  6  2  0  0  0  0
  5  7  1  0  0  0  0
  2  3  1  0  0  0  0
  2  4  1  0  0  0  0
  2  5  1  0  0  0  0
  1  2  1  0  0  0  0
 29 30  2  0  0  0  0
 29 31  1  0  0  0  0
 26 27  1  0  0  0  0
 26 28  1  0  0  0  0
 23 24  1  0  0  0  0
 23 25  1  0  0  0  0
 22 23  1  0  0  0  0
 22 26  1  0  0  0  0
 20 21  1  0  0  0  0
 20 22  2  0  0  0  0
 17 18  1  0  0  0  0
 17 19  1  0  0  0  0
 17 20  1  0  0  0  0
 14 15  1  0  0  0  0
 14 16  1  0  0  0  0
 14 17  1  0  0  0  0
 11 12  1  0  0  0  0
 11 13  1  0  0  0  0
 11 14  1  0  0  0  0
  9 10  1  0  0  0  0
  9 11  1  0  0  0  0
  9 29  1  0  0  0  0
  7  8  1  0  0  0  0
  7  9  1  0  0  0  0
 33 34  1  0  0  0  0
 33 35  1  0  0  0  0
 33 36  1  0  0  0  0
 31 32  1  0  0  0  0
 31 33  1  0  0  0  0
M  CHG  1  20   1
M  END
$$$$
default_name
  -OEChem-01062215323D

 36 35  0     1  0  0  0  0  0999 V2000
   -4.2256   -3.6731    1.8584 H   0  0  0  0  0  0  0  0  0  0  0  0
   -4.2396   -2.6781    1.4144 C   0  0  0  0  0  0  0  0  0  0  0  0
   -4.9506   -2.0521    1.9514 H   0  0  0  0  0  0  0  0  0  0  0  0
   -4.5266   -2.7521    0.3674 H   0  0  0  0  0  0  0  0  0  0  0  0
   -2.8576   -2.0761    1.5184 C   0  0  0  0  0  0  0  0  0  0  0  0
   -1.9456   -2.7051    2.0404 O   0  0  0  0  0  0  0  0  0  0  0  0
   -2.6926   -0.8481    1.0174 N   0  0  0  0  0  0  0  0  0  0  0  0
   -3.4926   -0.3971    0.5954 H   0  0  0  0  0  0  0  0  0  0  0  0
   -1.4216   -0.1071    1.0434 C   0  0  1  0  0  0  0  0  0  0  0  0
   -0.8665   -0.4075    1.9336 H   0  0  0  0  0  0  0  0  0  0  0  0
   -0.6047   -0.4956   -0.2052 C   0  0  0  0  0  0  0  0  0  0  0  0
   -1.2255   -0.3404   -1.0899 H   0  0  0  0  0  0  0  0  0  0  0  0
    0.2647    0.1611   -0.2815 H   0  0  0  0  0  0  0  0  0  0  0  0
   -0.1333   -1.9571   -0.1970 C   0  0  0  0  0  0  0  0  0  0  0  0
    0.4999   -2.1357    0.6732 H   0  0  0  0  0  0  0  0  0  0  0  0
   -1.0012   -2.6158   -0.1523 H   0  0  0  0  0  0  0  0  0  0  0  0
    0.6683   -2.2548   -1.4715 C   0  0  0  0  0  0  0  0  0  0  0  0
    0.0355   -2.0479   -2.3376 H   0  0  0  0  0  0  0  0  0  0  0  0
    1.5345   -1.5896   -1.5007 H   0  0  0  0  0  0  0  0  0  0  0  0
    1.1229   -3.6598   -1.5177 N   0  3  0  0  0  0  0  0  0  0  0  0
    0.9070   -4.2309   -0.7187 H   0  0  0  0  0  0  0  0  0  0  0  0
    1.7845   -4.2349   -2.5079 C   0  0  0  0  0  0  0  0  0  0  0  0
    2.1152   -3.5866   -3.5894 N   0  0  0  0  0  0  0  0  0  0  0  0
    1.8567   -2.6192   -3.6716 H   0  0  0  0  0  0  0  0  0  0  0  0
    2.6177   -4.0380   -4.3314 H   0  0  0  0  0  0  0  0  0  0  0  0
    2.1319   -5.4881   -2.4291 N   0  0  0  0  0  0  0  0  0  0  0  0
    1.8989   -6.0297   -1.6147 H   0  0  0  0  0  0  0  0  0  0  0  0
    2.6337   -5.9206   -3.1826 H   0  0  0  0  0  0  0  0  0  0  0  0
   -1.6810    1.3993    1.1092 C   0  0  0  0  0  0  0  0  0  0  0  0
   -2.2837    1.9500    0.1957 O   0  0  0  0  0  0  0  0  0  0  0  0
   -1.1936    2.0564    2.1663 N   0  0  0  0  0  0  0  0  0  0  0  0
   -0.7432    1.5186    2.8887 H   0  0  0  0  0  0  0  0  0  0  0  0
   -1.3548    3.4953    2.3817 C   0  0  0  0  0  0  0  0  0  0  0  0
   -2.4131    3.7336    2.5073 H   0  0  0  0  0  0  0  0  0  0  0  0
   -0.8114    3.8092    3.2739 H   0  0  0  0  0  0  0  0  0  0  0  0
   -0.9774    4.0469    1.5180 H   0  0  0  0  0  0  0  0  0  0  0  0
  5  6  2  0  0  0  0
  5  7  1  0  0  0  0
  2  3  1  0  0  0  0
  2  4  1  0  0  0  0
  2  5  1  0  0  0  0
  1  2  1  0  0  0  0
 29 30  2  0  0  0  0
 29 31  1  0  0  0  0
 26 27  1  0  0  0  0
 26 28  1  0  0  0  0
 23 24  1  0  0  0  0
 23 25  1  0  0  0  0
 22 23  1  0  0  0  0
 22 26  1  0  0  0  0
 20 21  1  0  0  0  0
 20 22  2  0  0  0  0
 17 18  1  0  0  0  0
 17 19  1  0  0  0  0
 17 20  1  0  0  0  0
 14 15  1  0  0  0  0
 14 16  1  0  0  0  0
 14 17  1  0  0  0  0
 11 12  1  0  0  0  0
 11 13  1  0  0  0  0
 11 14  1  0  0  0  0
  9 10  1  0  0  0  0
  9 11  1  0  0  0  0
  9 29  1  0  0  0  0
  7  8  1  0  0  0  0
  7  9  1  0  0  0  0
 33 34  1  0  0  0  0
 33 35  1  0  0  0  0
 33 36  1  0  0  0  0
 31 32  1  0  0  0  0
 31 33  1  0  0  0  0
M  CHG  1  20   1
M  END
$$$$
default_name
  -OEChem-01062215323D

 36 35  0     1  0  0  0  0  0999 V2000
   -4.2256   -3.6731    1.8584 H   0  0  0  0  0  0  0  0  0  0  0  0
   -4.2396   -2.6781    1.4144 C   0  0  0  0  0  0  0  0  0  0  0  0
   -4.9506   -2.0521    1.9514 H   0  0  0  0  0  0  0  0  0  0  0  0
   -4.5266   -2.7521    0.3674 H   0  0  0  0  0  0  0  0  0  0  0  0
   -2.8576   -2.0761    1.5184 C   0  0  0  0  0  0  0  0  0  0  0  0
   -1.9456   -2.7051    2.0404 O   0  0  0  0  0  0  0  0  0  0  0  0
   -2.6926   -0.8481    1.0174 N   0  0  0  0  0  0  0  0  0  0  0  0
   -3.4926   -0.3971    0.5954 H   0  0  0  0  0  0  0  0  0  0  0  0
   -1.4216   -0.1071    1.0434 C   0  0  1  0  0  0  0  0  0  0  0  0
   -0.8665   -0.4075    1.9336 H   0  0  0  0  0  0  0  0  0  0  0  0
   -0.6047   -0.4956   -0.2052 C   0  0  0  0  0  0  0  0  0  0  0  0
   -1.2255   -0.3404   -1.0899 H   0  0  0  0  0  0  0  0  0  0  0  0
    0.2647    0.1611   -0.2815 H   0  0  0  0  0  0  0  0  0  0  0  0
   -0.1333   -1.9571   -0.1970 C   0  0  0  0  0  0  0  0  0  0  0  0
    0.4999   -2.1357    0.6732 H   0  0  0  0  0  0  0  0  0  0  0  0
   -1.0012   -2.6158   -0.1523 H   0  0  0  0  0  0  0  0  0  0  0  0
    0.6683   -2.2548   -1.4715 C   0  0  0  0  0  0  0  0  0  0  0  0
    0.0355   -2.0479   -2.3376 H   0  0  0  0  0  0  0  0  0  0  0  0
    1.5345   -1.5896   -1.5007 H   0  0  0  0  0  0  0  0  0  0  0  0
    1.1229   -3.6598   -1.5177 N   0  3  0  0  0  0  0  0  0  0  0  0
    0.9070   -4.2309   -0.7187 H   0  0  0  0  0  0  0  0  0  0  0  0
    1.7845   -4.2349   -2.5079 C   0  0  0  0  0  0  0  0  0  0  0  0
    2.1152   -3.5866   -3.5894 N   0  0  0  0  0  0  0  0  0  0  0  0
    1.8567   -2.6192   -3.6716 H   0  0  0  0  0  0  0  0  0  0  0  0
    2.6177   -4.0380   -4.3314 H   0  0  0  0  0  0  0  0  0  0  0  0
    2.1319   -5.4881   -2.4291 N   0  0  0  0  0  0  0  0  0  0  0  0
    1.8989   -6.0297   -1.6147 H   0  0  0  0  0  0  0  0  0  0  0  0
    2.6337   -5.9206   -3.1826 H   0  0  0  0  0  0  0  0  0  0  0  0
   -1.6810    1.3993    1.1092 C   0  0  0  0  0  0  0  0  0  0  0  0
   -2.5056    1.9047    0.3571 O   0  0  0  0  0  0  0  0  0  0  0  0
   -0.9516    2.1063    1.9782 N   0  0  0  0  0  0  0  0  0  0  0  0
   -0.3232    1.6042    2.5839 H   0  0  0  0  0  0  0  0  0  0  0  0
   -1.0769    3.5525    2.1663 C   0  0  0  0  0  0  0  0  0  0  0  0
   -2.0723    3.7905    2.5474 H   0  0  0  0  0  0  0  0  0  0  0  0
   -0.3296    3.9096    2.8762 H   0  0  0  0  0  0  0  0  0  0  0  0
   -0.9411    4.0665    1.2122 H   0  0  0  0  0  0  0  0  0  0  0  0
  5  6  2  0  0  0  0
  5  7  1  0  0  0  0
  2  3  1  0  0  0  0
  2  4  1  0  0  0  0
  2  5  1  0  0  0  0
  1  2  1  0  0  0  0
 29 30  2  0  0  0  0
 29 31  1  0  0  0  0
 26 27  1  0  0  0  0
 26 28  1  0  0  0  0
 23 24  1  0  0  0  0
 23 25  1  0  0  0  0
 22 23  1  0  0  0  0
 22 26  1  0  0  0  0
 20 21  1  0  0  0  0
 20 22  2  0  0  0  0
 17 18  1  0  0  0  0
 17 19  1  0  0  0  0
 17 20  1  0  0  0  0
 14 15  1  0  0  0  0
 14 16  1  0  0  0  0
 14 17  1  0  0  0  0
 11 12  1  0  0  0  0
 11 13  1  0  0  0  0
 11 14  1  0  0  0  0
  9 10  1  0  0  0  0
  9 11  1  0  0  0  0
  9 29  1  0  0  0  0
  7  8  1  0  0  0  0
  7  9  1  0  0  0  0
 33 34  1  0  0  0  0
 33 35  1  0  0  0  0
 33 36  1  0  0  0  0
 31 32  1  0  0  0  0
 31 33  1  0  0  0  0
M  CHG  1  20   1
M  END
$$$$
default_name
  -OEChem-01062215323D

 36 35  0     1  0  0  0  0  0999 V2000
   -4.2256   -3.6731    1.8584 H   0  0  0  0  0  0  0  0  0  0  0  0
   -4.2396   -2.6781    1.4144 C   0  0  0  0  0  0  0  0  0  0  0  0
   -4.9506   -2.0521    1.9514 H   0  0  0  0  0  0  0  0  0  0  0  0
   -4.5266   -2.7521    0.3674 H   0  0  0  0  0  0  0  0  0  0  0  0
   -2.8576   -2.0761    1.5184 C   0  0  0  0  0  0  0  0  0  0  0  0
   -1.9456   -2.7051    2.0404 O   0  0  0  0  0  0  0  0  0  0  0  0
   -2.6926   -0.8481    1.0174 N   0  0  0  0  0  0  0  0  0  0  0  0
   -3.4926   -0.3971    0.5954 H   0  0  0  0  0  0  0  0  0  0  0  0
   -1.4216   -0.1071    1.0434 C   0  0  1  0  0  0  0  0  0  0  0  0
   -0.8665   -0.4075    1.9336 H   0  0  0  0  0  0  0  0  0  0  0  0
   -0.6047   -0.4956   -0.2052 C   0  0  0  0  0  0  0  0  0  0  0  0
   -1.2255   -0.3404   -1.0899 H   0  0  0  0  0  0  0  0  0  0  0  0
    0.2647    0.1611   -0.2815 H   0  0  0  0  0  0  0  0  0  0  0  0
   -0.1333   -1.9571   -0.1970 C   0  0  0  0  0  0  0  0  0  0  0  0
    0.4999   -2.1357    0.6732 H   0  0  0  0  0  0  0  0  0  0  0  0
   -1.0012   -2.6158   -0.1523 H   0  0  0  0  0  0  0  0  0  0  0  0
    0.6683   -2.2548   -1.4715 C   0  0  0  0  0  0  0  0  0  0  0  0
    0.0355   -2.0479   -2.3376 H   0  0  0  0  0  0  0  0  0  0  0  0
    1.5345   -1.5896   -1.5007 H   0  0  0  0  0  0  0  0  0  0  0  0
    1.1229   -3.6598   -1.5177 N   0  3  0  0  0  0  0  0  0  0  0  0
    0.9070   -4.2309   -0.7187 H   0  0  0  0  0  0  0  0  0  0  0  0
    1.7845   -4.2349   -2.5079 C   0  0  0  0  0  0  0  0  0  0  0  0
    2.1152   -3.5866   -3.5894 N   0  0  0  0  0  0  0  0  0  0  0  0
    1.8567   -2.6192   -3.6716 H   0  0  0  0  0  0  0  0  0  0  0  0
    2.6177   -4.0380   -4.3314 H   0  0  0  0  0  0  0  0  0  0  0  0
    2.1319   -5.4881   -2.4291 N   0  0  0  0  0  0  0  0  0  0  0  0
    1.8989   -6.0297   -1.6147 H   0  0  0  0  0  0  0  0  0  0  0  0
    2.6337   -5.9206   -3.1826 H   0  0  0  0  0  0  0  0  0  0  0  0
   -1.6810    1.3993    1.1092 C   0  0  0  0  0  0  0  0  0  0  0  0
   -2.6783    1.8656    0.5716 O   0  0  0  0  0  0  0  0  0  0  0  0
   -0.7665    2.1489    1.7325 N   0  0  0  0  0  0  0  0  0  0  0  0
    0.0038    1.6782    2.1787 H   0  0  0  0  0  0  0  0  0  0  0  0
   -0.8640    3.6015    1.8848 C   0  0  0  0  0  0  0  0  0  0  0  0
   -1.7334    3.8511    2.4968 H   0  0  0  0  0  0  0  0  0  0  0  0
    0.0332    3.9944    2.3648 H   0  0  0  0  0  0  0  0  0  0  0  0
   -0.9842    4.0724    0.9068 H   0  0  0  0  0  0  0  0  0  0  0  0
  5  6  2  0  0  0  0
  5  7  1  0  0  0  0
  2  3  1  0  0  0  0
  2  4  1  0  0  0  0
  2  5  1  0  0  0  0
  1  2  1  0  0  0  0
 29 30  2  0  0  0  0
 29 31  1  0  0  0  0
 26 27  1  0  0  0  0
 26 28  1  0  0  0  0
 23 24  1  0  0  0  0
 23 25  1  0  0  0  0
 22 23  1  0  0  0  0
 22 26  1  0  0  0  0
 20 21  1  0  0  0  0
 20 22  2  0  0  0  0
 17 18  1  0  0  0  0
 17 19  1  0  0  0  0
 17 20  1  0  0  0  0
 14 15  1  0  0  0  0
 14 16  1  0  0  0  0
 14 17  1  0  0  0  0
 11 12  1  0  0  0  0
 11 13  1  0  0  0  0
 11 14  1  0  0  0  0
  9 10  1  0  0  0  0
  9 11  1  0  0  0  0
  9 29  1  0  0  0  0
  7  8  1  0  0  0  0
  7  9  1  0  0  0  0
 33 34  1  0  0  0  0
 33 35  1  0  0  0  0
 33 36  1  0  0  0  0
 31 32  1  0  0  0  0
 31 33  1  0  0  0  0
M  CHG  1  20   1
M  END
$$$$
default_name
  -OEChem-01062215323D

 36 35  0     1  0  0  0  0  0999 V2000
   -4.2256   -3.6731    1.8584 H   0  0  0  0  0  0  0  0  0  0  0  0
   -4.2396   -2.6781    1.4144 C   0  0  0  0  0  0  0  0  0  0  0  0
   -4.9506   -2.0521    1.9514 H   0  0  0  0  0  0  0  0  0  0  0  0
   -4.5266   -2.7521    0.3674 H   0  0  0  0  0  0  0  0  0  0  0  0
   -2.8576   -2.0761    1.5184 C   0  0  0  0  0  0  0  0  0  0  0  0
   -1.9456   -2.7051    2.0404 O   0  0  0  0  0  0  0  0  0  0  0  0
   -2.6926   -0.8481    1.0174 N   0  0  0  0  0  0  0  0  0  0  0  0
   -3.4926   -0.3971    0.5954 H   0  0  0  0  0  0  0  0  0  0  0  0
   -1.4216   -0.1071    1.0434 C   0  0  1  0  0  0  0  0  0  0  0  0
   -0.8665   -0.4075    1.9336 H   0  0  0  0  0  0  0  0  0  0  0  0
   -0.6047   -0.4956   -0.2052 C   0  0  0  0  0  0  0  0  0  0  0  0
   -1.2255   -0.3404   -1.0899 H   0  0  0  0  0  0  0  0  0  0  0  0
    0.2647    0.1611   -0.2815 H   0  0  0  0  0  0  0  0  0  0  0  0
   -0.1333   -1.9571   -0.1970 C   0  0  0  0  0  0  0  0  0  0  0  0
    0.4999   -2.1357    0.6732 H   0  0  0  0  0  0  0  0  0  0  0  0
   -1.0012   -2.6158   -0.1523 H   0  0  0  0  0  0  0  0  0  0  0  0
    0.6683   -2.2548   -1.4715 C   0  0  0  0  0  0  0  0  0  0  0  0
    0.0355   -2.0479   -2.3376 H   0  0  0  0  0  0  0  0  0  0  0  0
    1.5345   -1.5896   -1.5007 H   0  0  0  0  0  0  0  0  0  0  0  0
    1.1229   -3.6598   -1.5177 N   0  3  0  0  0  0  0  0  0  0  0  0
    0.9070   -4.2309   -0.7187 H   0  0  0  0  0  0  0  0  0  0  0  0
    1.7845   -4.2349   -2.5079 C   0  0  0  0  0  0  0  0  0  0  0  0
    2.1152   -3.5866   -3.5894 N   0  0  0  0  0  0  0  0  0  0  0  0
    1.8567   -2.6192   -3.6716 H   0  0  0  0  0  0  0  0  0  0  0  0
    2.6177   -4.0380   -4.3314 H   0  0  0  0  0  0  0  0  0  0  0  0
    2.1319   -5.4881   -2.4291 N   0  0  0  0  0  0  0  0  0  0  0  0
    1.8989   -6.0297   -1.6147 H   0  0  0  0  0  0  0  0  0  0  0  0
    2.6337   -5.9206   -3.1826 H   0  0  0  0  0  0  0  0  0  0  0  0
   -1.6810    1.3993    1.1092 C   0  0  0  0  0  0  0  0  0  0  0  0
   -2.7900    1.8353    0.8244 O   0  0  0  0  0  0  0  0  0  0  0  0
   -0.6507    2.1813    1.4463 N   0  0  0  0  0  0  0  0  0  0  0  0
    0.2156    1.7356    1.7007 H   0  0  0  0  0  0  0  0  0  0  0  0
   -0.7306    3.6388    1.5566 C   0  0  0  0  0  0  0  0  0  0  0  0
   -1.4197    3.9112    2.3589 H   0  0  0  0  0  0  0  0  0  0  0  0
    0.2525    4.0579    1.7747 H   0  0  0  0  0  0  0  0  0  0  0  0
   -1.1038    4.0642    0.6224 H   0  0  0  0  0  0  0  0  0  0  0  0
  5  6  2  0  0  0  0
  5  7  1  0  0  0  0
  2  3  1  0  0  0  0
  2  4  1  0  0  0  0
  2  5  1  0  0  0  0
  1  2  1  0  0  0  0
 29 30  2  0  0  0  0
 29 31  1  0  0  0  0
 26 27  1  0  0  0  0
 26 28  1  0  0  0  0
 23 24  1  0  0  0  0
 23 25  1  0  0  0  0
 22 23  1  0  0  0  0
 22 26  1  0  0  0  0
 20 21  1  0  0  0  0
 20 22  2  0  0  0  0
 17 18  1  0  0  0  0
 17 19  1  0  0  0  0
 17 20  1  0  0  0  0
 14 15  1  0  0  0  0
 14 16  1  0  0  0  0
 14 17  1  0  0  0  0
 11 12  1  0  0  0  0
 11 13  1  0  0  0  0
 11 14  1  0  0  0  0
  9 10  1  0  0  0  0
  9 11  1  0  0  0  0
  9 29  1  0  0  0  0
  7  8  1  0  0  0  0
  7  9  1  0  0  0  0
 33 34  1  0  0  0  0
 33 35  1  0  0  0  0
 33 36  1  0  0  0  0
 31 32  1  0  0  0  0
 31 33  1  0  0  0  0
M  CHG  1  20   1
M  END
$$$$
default_name
  -OEChem-01062215323D

 36 35  0     1  0  0  0  0  0999 V2000
   -4.2256   -3.6731    1.8584 H   0  0  0  0  0  0  0  0  0  0  0  0
   -4.2396   -2.6781    1.4144 C   0  0  0  0  0  0  0  0  0  0  0  0
   -4.9506   -2.0521    1.9514 H   0  0  0  0  0  0  0  0  0  0  0  0
   -4.5266   -2.7521    0.3674 H   0  0  0  0  0  0  0  0  0  0  0  0
   -2.8576   -2.0761    1.5184 C   0  0  0  0  0  0  0  0  0  0  0  0
   -1.9456   -2.7051    2.0404 O   0  0  0  0  0  0  0  0  0  0  0  0
   -2.6926   -0.8481    1.0174 N   0  0  0  0  0  0  0  0  0  0  0  0
   -3.4926   -0.3971    0.5954 H   0  0  0  0  0  0  0  0  0  0  0  0
   -1.4216   -0.1071    1.0434 C   0  0  1  0  0  0  0  0  0  0  0  0
   -0.7579   -0.5878    1.7640 H   0  0  0  0  0  0  0  0  0  0  0  0
   -0.7791   -0.1912   -0.3557 C   0  0  0  0  0  0  0  0  0  0  0  0
   -1.5087    0.1456   -1.0949 H   0  0  0  0  0  0  0  0  0  0  0  0
    0.0794    0.4828   -0.3952 H   0  0  0  0  0  0  0  0  0  0  0  0
   -0.3258   -1.6082   -0.7361 C   0  0  0  0  0  0  0  0  0  0  0  0
    0.4140   -1.9642   -0.0177 H   0  0  0  0  0  0  0  0  0  0  0  0
   -1.1870   -2.2769   -0.7278 H   0  0  0  0  0  0  0  0  0  0  0  0
    0.2991   -1.5982   -2.1379 C   0  0  0  0  0  0  0  0  0  0  0  0
   -0.4394   -1.2154   -2.8461 H   0  0  0  0  0  0  0  0  0  0  0  0
    1.1608   -0.9266   -2.1296 H   0  0  0  0  0  0  0  0  0  0  0  0
    0.7293   -2.9483   -2.5561 N   0  3  0  0  0  0  0  0  0  0  0  0
    0.6140   -3.6875   -1.8841 H   0  0  0  0  0  0  0  0  0  0  0  0
    1.2497   -3.2749   -3.7272 C   0  0  0  0  0  0  0  0  0  0  0  0
    1.4427   -2.3952   -4.6696 N   0  0  0  0  0  0  0  0  0  0  0  0
    1.1856   -1.4391   -4.4989 H   0  0  0  0  0  0  0  0  0  0  0  0
    1.8391   -2.6597   -5.5526 H   0  0  0  0  0  0  0  0  0  0  0  0
    1.5916   -4.5070   -3.9767 N   0  0  0  0  0  0  0  0  0  0  0  0
    1.4617   -5.2212   -3.2810 H   0  0  0  0  0  0  0  0  0  0  0  0
    1.9860   -4.7506   -4.8665 H   0  0  0  0  0  0  0  0  0  0  0  0
   -1.6547    1.3413    1.4779 C   0  0  0  0  0  0  0  0  0  0  0  0
   -2.7940    1.7274    1.7104 O   0  0  0  0  0  0  0  0  0  0  0  0
   -0.5830    2.1371    1.5472 N   0  0  0  0  0  0  0  0  0  0  0  0
    0.3204    1.7268    1.3754 H   0  0  0  0  0  0  0  0  0  0  0  0
   -0.6326    3.5445    1.9467 C   0  0  0  0  0  0  0  0  0  0  0  0
   -0.9691    3.6227    2.9827 H   0  0  0  0  0  0  0  0  0  0  0  0
    0.3547    3.9997    1.8582 H   0  0  0  0  0  0  0  0  0  0  0  0
   -1.3372    4.0879    1.3134 H   0  0  0  0  0  0  0  0  0  0  0  0
  5  6  2  0  0  0  0
  5  7  1  0  0  0  0
  2  3  1  0  0  0  0
  2  4  1  0  0  0  0
  2  5  1  0  0  0  0
  1  2  1  0  0  0  0
 29 30  2  0  0  0  0
 29 31  1  0  0  0  0
 26 27  1  0  0  0  0
 26 28  1  0  0  0  0
 23 24  1  0  0  0  0
 23 25  1  0  0  0  0
 22 23  1  0  0  0  0
 22 26  1  0  0  0  0
 20 21  1  0  0  0  0
 20 22  2  0  0  0  0
 17 18  1  0  0  0  0
 17 19  1  0  0  0  0
 17 20  1  0  0  0  0
 14 15  1  0  0  0  0
 14 16  1  0  0  0  0
 14 17  1  0  0  0  0
 11 12  1  0  0  0  0
 11 13  1  0  0  0  0
 11 14  1  0  0  0  0
  9 10  1  0  0  0  0
  9 11  1  0  0  0  0
  9 29  1  0  0  0  0
  7  8  1  0  0  0  0
  7  9  1  0  0  0  0
 33 34  1  0  0  0  0
 33 35  1  0  0  0  0
 33 36  1  0  0  0  0
 31 32  1  0  0  0  0
 31 33  1  0  0  0  0
M  CHG  1  20   1
M  END
$$$$
default_name
  -OEChem-01062215323D

 36 35  0     1  0  0  0  0  0999 V2000
   -4.2256   -3.6731    1.8584 H   0  0  0  0  0  0  0  0  0  0  0  0
   -4.2396   -2.6781    1.4144 C   0  0  0  0  0  0  0  0  0  0  0  0
   -4.9506   -2.0521    1.9514 H   0  0  0  0  0  0  0  0  0  0  0  0
   -4.5266   -2.7521    0.3674 H   0  0  0  0  0  0  0  0  0  0  0  0
   -2.8576   -2.0761    1.5184 C   0  0  0  0  0  0  0  0  0  0  0  0
   -1.9456   -2.7051    2.0404 O   0  0  0  0  0  0  0  0  0  0  0  0
   -2.6926   -0.8481    1.0174 N   0  0  0  0  0  0  0  0  0  0  0  0
   -3.4926   -0.3971    0.5954 H   0  0  0  0  0  0  0  0  0  0  0  0
   -1.4216   -0.1071    1.0434 C   0  0  1  0  0  0  0  0  0  0  0  0
   -0.7579   -0.5878    1.7640 H   0  0  0  0  0  0  0  0  0  0  0  0
   -0.7791   -0.1912   -0.3557 C   0  0  0  0  0  0  0  0  0  0  0  0
   -1.5087    0.1456   -1.0949 H   0  0  0  0  0  0  0  0  0  0  0  0
    0.0794    0.4828   -0.3952 H   0  0  0  0  0  0  0  0  0  0  0  0
   -0.3258   -1.6082   -0.7361 C   0  0  0  0  0  0  0  0  0  0  0  0
    0.4140   -1.9642   -0.0177 H   0  0  0  0  0  0  0  0  0  0  0  0
   -1.1870   -2.2769   -0.7278 H   0  0  0  0  0  0  0  0  0  0  0  0
    0.2991   -1.5982   -2.1379 C   0  0  0  0  0  0  0  0  0  0  0  0
   -0.4394   -1.2154   -2.8461 H   0  0  0  0  0  0  0  0  0  0  0  0
    1.1608   -0.9266   -2.1296 H   0  0  0  0  0  0  0  0  0  0  0  0
    0.7293   -2.9483   -2.5561 N   0  3  0  0  0  0  0  0  0  0  0  0
    0.6140   -3.6875   -1.8841 H   0  0  0  0  0  0  0  0  0  0  0  0
    1.2497   -3.2749   -3.7272 C   0  0  0  0  0  0  0  0  0  0  0  0
    1.4427   -2.3952   -4.6696 N   0  0  0  0  0  0  0  0  0  0  0  0
    1.1856   -1.4391   -4.4989 H   0  0  0  0  0  0  0  0  0  0  0  0
    1.8391   -2.6597   -5.5526 H   0  0  0  0  0  0  0  0  0  0  0  0
    1.5916   -4.5070   -3.9767 N   0  0  0  0  0  0  0  0  0  0  0  0
    1.4617   -5.2212   -3.2810 H   0  0  0  0  0  0  0  0  0  0  0  0
    1.9860   -4.7506   -4.8665 H   0  0  0  0  0  0  0  0  0  0  0  0
   -1.6547    1.3413    1.4779 C   0  0  0  0  0  0  0  0  0  0  0  0
   -2.7298    1.6592    1.9722 O   0  0  0  0  0  0  0  0  0  0  0  0
   -0.6642    2.2111    1.2568 N   0  0  0  0  0  0  0  0  0  0  0  0
    0.1994    1.8559    0.8801 H   0  0  0  0  0  0  0  0  0  0  0  0
   -0.7252    3.6296    1.6133 C   0  0  0  0  0  0  0  0  0  0  0  0
   -0.8044    3.7348    2.6974 H   0  0  0  0  0  0  0  0  0  0  0  0
    0.1720    4.1466    1.2705 H   0  0  0  0  0  0  0  0  0  0  0  0
   -1.6032    4.0920    1.1571 H   0  0  0  0  0  0  0  0  0  0  0  0
  5  6  2  0  0  0  0
  5  7  1  0  0  0  0
  2  3  1  0  0  0  0
  2  4  1  0  0  0  0
  2  5  1  0  0  0  0
  1  2  1  0  0  0  0
 29 30  2  0  0  0  0
 29 31  1  0  0  0  0
 26 27  1  0  0  0  0
 26 28  1  0  0  0  0
 23 24  1  0  0  0  0
 23 25  1  0  0  0  0
 22 23  1  0  0  0  0
 22 26  1  0  0  0  0
 20 21  1  0  0  0  0
 20 22  2  0  0  0  0
 17 18  1  0  0  0  0
 17 19  1  0  0  0  0
 17 20  1  0  0  0  0
 14 15  1  0  0  0  0
 14 16  1  0  0  0  0
 14 17  1  0  0  0  0
 11 12  1  0  0  0  0
 11 13  1  0  0  0  0
 11 14  1  0  0  0  0
  9 10  1  0  0  0  0
  9 11  1  0  0  0  0
  9 29  1  0  0  0  0
  7  8  1  0  0  0  0
  7  9  1  0  0  0  0
 33 34  1  0  0  0  0
 33 35  1  0  0  0  0
 33 36  1  0  0  0  0
 31 32  1  0  0  0  0
 31 33  1  0  0  0  0
M  CHG  1  20   1
M  END
$$$$
default_name
  -OEChem-01062215323D

 36 35  0     1  0  0  0  0  0999 V2000
   -4.2256   -3.6731    1.8584 H   0  0  0  0  0  0  0  0  0  0  0  0
   -4.2396   -2.6781    1.4144 C   0  0  0  0  0  0  0  0  0  0  0  0
   -4.9506   -2.0521    1.9514 H   0  0  0  0  0  0  0  0  0  0  0  0
   -4.5266   -2.7521    0.3674 H   0  0  0  0  0  0  0  0  0  0  0  0
   -2.8576   -2.0761    1.5184 C   0  0  0  0  0  0  0  0  0  0  0  0
   -1.9456   -2.7051    2.0404 O   0  0  0  0  0  0  0  0  0  0  0  0
   -2.6926   -0.8481    1.0174 N   0  0  0  0  0  0  0  0  0  0  0  0
   -3.4926   -0.3971    0.5954 H   0  0  0  0  0  0  0  0  0  0  0  0
   -1.4216   -0.1071    1.0434 C   0  0  1  0  0  0  0  0  0  0  0  0
   -0.7579   -0.5878    1.7640 H   0  0  0  0  0  0  0  0  0  0  0  0
   -0.7791   -0.1912   -0.3557 C   0  0  0  0  0  0  0  0  0  0  0  0
   -1.5087    0.1456   -1.0949 H   0  0  0  0  0  0  0  0  0  0  0  0
    0.0794    0.4828   -0.3952 H   0  0  0  0  0  0  0  0  0  0  0  0
   -0.3258   -1.6082   -0.7361 C   0  0  0  0  0  0  0  0  0  0  0  0
    0.4140   -1.9642   -0.0177 H   0  0  0  0  0  0  0  0  0  0  0  0
   -1.1870   -2.2769   -0.7278 H   0  0  0  0  0  0  0  0  0  0  0  0
    0.2991   -1.5982   -2.1379 C   0  0  0  0  0  0  0  0  0  0  0  0
   -0.4394   -1.2154   -2.8461 H   0  0  0  0  0  0  0  0  0  0  0  0
    1.1608   -0.9266   -2.1296 H   0  0  0  0  0  0  0  0  0  0  0  0
    0.7293   -2.9483   -2.5561 N   0  3  0  0  0  0  0  0  0  0  0  0
    0.6140   -3.6875   -1.8841 H   0  0  0  0  0  0  0  0  0  0  0  0
    1.2497   -3.2749   -3.7272 C   0  0  0  0  0  0  0  0  0  0  0  0
    1.4427   -2.3952   -4.6696 N   0  0  0  0  0  0  0  0  0  0  0  0
    1.1856   -1.4391   -4.4989 H   0  0  0  0  0  0  0  0  0  0  0  0
    1.8391   -2.6597   -5.5526 H   0  0  0  0  0  0  0  0  0  0  0  0
    1.5916   -4.5070   -3.9767 N   0  0  0  0  0  0  0  0  0  0  0  0
    1.4617   -5.2212   -3.2810 H   0  0  0  0  0  0  0  0  0  0  0  0
    1.9860   -4.7506   -4.8665 H   0  0  0  0  0  0  0  0  0  0  0  0
   -1.6547    1.3413    1.4779 C   0  0  0  0  0  0  0  0  0  0  0  0
   -2.5985    1.6083    2.2121 O   0  0  0  0  0  0  0  0  0  0  0  0
   -0.8192    2.2653    0.9932 N   0  0  0  0  0  0  0  0  0  0  0  0
   -0.0482    1.9522    0.4262 H   0  0  0  0  0  0  0  0  0  0  0  0
   -0.9026    3.6918    1.3107 C   0  0  0  0  0  0  0  0  0  0  0  0
   -0.7233    3.8439    2.3772 H   0  0  0  0  0  0  0  0  0  0  0  0
   -0.1593    4.2518    0.7418 H   0  0  0  0  0  0  0  0  0  0  0  0
   -1.8988    4.0702    1.0712 H   0  0  0  0  0  0  0  0  0  0  0  0
  5  6  2  0  0  0  0
  5  7  1  0  0  0  0
  2  3  1  0  0  0  0
  2  4  1  0  0  0  0
  2  5  1  0  0  0  0
  1  2  1  0  0  0  0
 29 30  2  0  0  0  0
 29 31  1  0  0  0  0
 26 27  1  0  0  0  0
 26 28  1  0  0  0  0
 23 24  1  0  0  0  0
 23 25  1  0  0  0  0
 22 23  1  0  0  0  0
 22 26  1  0  0  0  0
 20 21  1  0  0  0  0
 20 22  2  0  0  0  0
 17 18  1  0  0  0  0
 17 19  1  0  0  0  0
 17 20  1  0  0  0  0
 14 15  1  0  0  0  0
 14 16  1  0  0  0  0
 14 17  1  0  0  0  0
 11 12  1  0  0  0  0
 11 13  1  0  0  0  0
 11 14  1  0  0  0  0
  9 10  1  0  0  0  0
  9 11  1  0  0  0  0
  9 29  1  0  0  0  0
  7  8  1  0  0  0  0
  7  9  1  0  0  0  0
 33 34  1  0  0  0  0
 33 35  1  0  0  0  0
 33 36  1  0  0  0  0
 31 32  1  0  0  0  0
 31 33  1  0  0  0  0
M  CHG  1  20   1
M  END
$$$$
default_name
  -OEChem-01062215323D

 36 35  0     1  0  0  0  0  0999 V2000
   -4.2256   -3.6731    1.8584 H   0  0  0  0  0  0  0  0  0  0  0  0
   -4.2396   -2.6781    1.4144 C   0  0  0  0  0  0  0  0  0  0  0  0
   -4.9506   -2.0521    1.9514 H   0  0  0  0  0  0  0  0  0  0  0  0
   -4.5266   -2.7521    0.3674 H   0  0  0  0  0  0  0  0  0  0  0  0
   -2.8576   -2.0761    1.5184 C   0  0  0  0  0  0  0  0  0  0  0  0
   -1.9456   -2.7051    2.0404 O   0  0  0  0  0  0  0  0  0  0  0  0
   -2.6926   -0.8481    1.0174 N   0  0  0  0  0  0  0  0  0  0  0  0
   -3.4926   -0.3971    0.5954 H   0  0  0  0  0  0  0  0  0  0  0  0
   -1.4216   -0.1071    1.0434 C   0  0  1  0  0  0  0  0  0  0  0  0
   -0.7579   -0.5878    1.7640 H   0  0  0  0  0  0  0  0  0  0  0  0
   -0.7791   -0.1912   -0.3557 C   0  0  0  0  0  0  0  0  0  0  0  0
   -1.5087    0.1456   -1.0949 H   0  0  0  0  0  0  0  0  0  0  0  0
    0.0794    0.4828   -0.3952 H   0  0  0  0  0  0  0  0  0  0  0  0
   -0.3258   -1.6082   -0.7361 C   0  0  0  0  0  0  0  0  0  0  0  0
    0.4140   -1.9642   -0.0177 H   0  0  0  0  0  0  0  0  0  0  0  0
   -1.1870   -2.2769   -0.7278 H   0  0  0  0  0  0  0  0  0  0  0  0
    0.2991   -1.5982   -2.1379 C   0  0  0  0  0  0  0  0  0  0  0  0
   -0.4394   -1.2154   -2.8461 H   0  0  0  0  0  0  0  0  0  0  0  0
    1.1608   -0.9266   -2.1296 H   0  0  0  0  0  0  0  0  0  0  0  0
    0.7293   -2.9483   -2.5561 N   0  3  0  0  0  0  0  0  0  0  0  0
    0.6140   -3.6875   -1.8841 H   0  0  0  0  0  0  0  0  0  0  0  0
    1.2497   -3.2749   -3.7272 C   0  0  0  0  0  0  0  0  0  0  0  0
    1.4427   -2.3952   -4.6696 N   0  0  0  0  0  0  0  0  0  0  0  0
    1.1856   -1.4391   -4.4989 H   0  0  0  0  0  0  0  0  0  0  0  0
    1.8391   -2.6597   -5.5526 H   0  0  0  0  0  0  0  0  0  0  0  0
    1.5916   -4.5070   -3.9767 N   0  0  0  0  0  0  0  0  0  0  0  0
    1.4617   -5.2212   -3.2810 H   0  0  0  0  0  0  0  0  0  0  0  0
    1.9860   -4.7506   -4.8665 H   0  0  0  0  0  0  0  0  0  0  0  0
   -1.6547    1.3413    1.4779 C   0  0  0  0  0  0  0  0  0  0  0  0
   -2.4093    1.5783    2.4136 O   0  0  0  0  0  0  0  0  0  0  0  0
   -1.0375    2.2957    0.7745 N   0  0  0  0  0  0  0  0  0  0  0  0
   -0.4057    2.0091    0.0447 H   0  0  0  0  0  0  0  0  0  0  0  0
   -1.1527    3.7270    1.0593 C   0  0  0  0  0  0  0  0  0  0  0  0
   -0.7316    3.9426    2.0436 H   0  0  0  0  0  0  0  0  0  0  0  0
   -0.6165    4.3083    0.3081 H   0  0  0  0  0  0  0  0  0  0  0  0
   -2.2037    4.0240    1.0614 H   0  0  0  0  0  0  0  0  0  0  0  0
  5  6  2  0  0  0  0
  5  7  1  0  0  0  0
  2  3  1  0  0  0  0
  2  4  1  0  0  0  0
  2  5  1  0  0  0  0
  1  2  1  0  0  0  0
 29 30  2  0  0  0  0
 29 31  1  0  0  0  0
 26 27  1  0  0  0  0
 26 28  1  0  0  0  0
 23 24  1  0  0  0  0
 23 25  1  0  0  0  0
 22 23  1  0  0  0  0
 22 26  1  0  0  0  0
 20 21  1  0  0  0  0
 20 22  2  0  0  0  0
 17 18  1  0  0  0  0
 17 19  1  0  0  0  0
 17 20  1  0  0  0  0
 14 15  1  0  0  0  0
 14 16  1  0  0  0  0
 14 17  1  0  0  0  0
 11 12  1  0  0  0  0
 11 13  1  0  0  0  0
 11 14  1  0  0  0  0
  9 10  1  0  0  0  0
  9 11  1  0  0  0  0
  9 29  1  0  0  0  0
  7  8  1  0  0  0  0
  7  9  1  0  0  0  0
 33 34  1  0  0  0  0
 33 35  1  0  0  0  0
 33 36  1  0  0  0  0
 31 32  1  0  0  0  0
 31 33  1  0  0  0  0
M  CHG  1  20   1
M  END
$$$$
default_name
  -OEChem-01062215323D

 36 35  0     1  0  0  0  0  0999 V2000
   -4.2256   -3.6731    1.8584 H   0  0  0  0  0  0  0  0  0  0  0  0
   -4.2396   -2.6781    1.4144 C   0  0  0  0  0  0  0  0  0  0  0  0
   -4.9506   -2.0521    1.9514 H   0  0  0  0  0  0  0  0  0  0  0  0
   -4.5266   -2.7521    0.3674 H   0  0  0  0  0  0  0  0  0  0  0  0
   -2.8576   -2.0761    1.5184 C   0  0  0  0  0  0  0  0  0  0  0  0
   -1.9456   -2.7051    2.0404 O   0  0  0  0  0  0  0  0  0  0  0  0
   -2.6926   -0.8481    1.0174 N   0  0  0  0  0  0  0  0  0  0  0  0
   -3.4926   -0.3971    0.5954 H   0  0  0  0  0  0  0  0  0  0  0  0
   -1.4216   -0.1071    1.0434 C   0  0  1  0  0  0  0  0  0  0  0  0
   -0.7579   -0.5878    1.7640 H   0  0  0  0  0  0  0  0  0  0  0  0
   -0.7791   -0.1912   -0.3557 C   0  0  0  0  0  0  0  0  0  0  0  0
   -1.5087    0.1456   -1.0949 H   0  0  0  0  0  0  0  0  0  0  0  0
    0.0794    0.4828   -0.3952 H   0  0  0  0  0  0  0  0  0  0  0  0
   -0.3258   -1.6082   -0.7361 C   0  0  0  0  0  0  0  0  0  0  0  0
    0.4140   -1.9642   -0.0177 H   0  0  0  0  0  0  0  0  0  0  0  0
   -1.1870   -2.2769   -0.7278 H   0  0  0  0  0  0  0  0  0  0  0  0
    0.2991   -1.5982   -2.1379 C   0  0  0  0  0  0  0  0  0  0  0  0
   -0.4394   -1.2154   -2.8461 H   0  0  0  0  0  0  0  0  0  0  0  0
    1.1608   -0.9266   -2.1296 H   0  0  0  0  0  0  0  0  0  0  0  0
    0.7293   -2.9483   -2.5561 N   0  3  0  0  0  0  0  0  0  0  0  0
    0.6140   -3.6875   -1.8841 H   0  0  0  0  0  0  0  0  0  0  0  0
    1.2497   -3.2749   -3.7272 C   0  0  0  0  0  0  0  0  0  0  0  0
    1.4427   -2.3952   -4.6696 N   0  0  0  0  0  0  0  0  0  0  0  0
    1.1856   -1.4391   -4.4989 H   0  0  0  0  0  0  0  0  0  0  0  0
    1.8391   -2.6597   -5.5526 H   0  0  0  0  0  0  0  0  0  0  0  0
    1.5916   -4.5070   -3.9767 N   0  0  0  0  0  0  0  0  0  0  0  0
    1.4617   -5.2212   -3.2810 H   0  0  0  0  0  0  0  0  0  0  0  0
    1.9860   -4.7506   -4.8665 H   0  0  0  0  0  0  0  0  0  0  0  0
   -1.6547    1.3413    1.4779 C   0  0  0  0  0  0  0  0  0  0  0  0
   -2.1749    1.5712    2.5631 O   0  0  0  0  0  0  0  0  0  0  0  0
   -1.3042    2.3005    0.6155 N   0  0  0  0  0  0  0  0  0  0  0  0
   -0.8487    2.0227   -0.2385 H   0  0  0  0  0  0  0  0  0  0  0  0
   -1.4584    3.7326    0.8765 C   0  0  0  0  0  0  0  0  0  0  0  0
   -0.8285    4.0242    1.7196 H   0  0  0  0  0  0  0  0  0  0  0  0
   -1.1686    4.3122   -0.0010 H   0  0  0  0  0  0  0  0  0  0  0  0
   -2.4972    3.9566    1.1286 H   0  0  0  0  0  0  0  0  0  0  0  0
  5  6  2  0  0  0  0
  5  7  1  0  0  0  0
  2  3  1  0  0  0  0
  2  4  1  0  0  0  0
  2  5  1  0  0  0  0
  1  2  1  0  0  0  0
 29 30  2  0  0  0  0
 29 31  1  0  0  0  0
 26 27  1  0  0  0  0
 26 28  1  0  0  0  0
 23 24  1  0  0  0  0
 23 25  1  0  0  0  0
 22 23  1  0  0  0  0
 22 26  1  0  0  0  0
 20 21  1  0  0  0  0
 20 22  2  0  0  0  0
 17 18  1  0  0  0  0
 17 19  1  0  0  0  0
 17 20  1  0  0  0  0
 14 15  1  0  0  0  0
 14 16  1  0  0  0  0
 14 17  1  0  0  0  0
 11 12  1  0  0  0  0
 11 13  1  0  0  0  0
 11 14  1  0  0  0  0
  9 10  1  0  0  0  0
  9 11  1  0  0  0  0
  9 29  1  0  0  0  0
  7  8  1  0  0  0  0
  7  9  1  0  0  0  0
 33 34  1  0  0  0  0
 33 35  1  0  0  0  0
 33 36  1  0  0  0  0
 31 32  1  0  0  0  0
 31 33  1  0  0  0  0
M  CHG  1  20   1
M  END
$$$$
default_name
  -OEChem-01062215323D

 36 35  0     1  0  0  0  0  0999 V2000
   -4.2256   -3.6731    1.8584 H   0  0  0  0  0  0  0  0  0  0  0  0
   -4.2396   -2.6781    1.4144 C   0  0  0  0  0  0  0  0  0  0  0  0
   -4.9506   -2.0521    1.9514 H   0  0  0  0  0  0  0  0  0  0  0  0
   -4.5266   -2.7521    0.3674 H   0  0  0  0  0  0  0  0  0  0  0  0
   -2.8576   -2.0761    1.5184 C   0  0  0  0  0  0  0  0  0  0  0  0
   -1.9456   -2.7051    2.0404 O   0  0  0  0  0  0  0  0  0  0  0  0
   -2.6926   -0.8481    1.0174 N   0  0  0  0  0  0  0  0  0  0  0  0
   -3.4926   -0.3971    0.5954 H   0  0  0  0  0  0  0  0  0  0  0  0
   -1.4216   -0.1071    1.0434 C   0  0  1  0  0  0  0  0  0  0  0  0
   -0.7579   -0.5878    1.7640 H   0  0  0  0  0  0  0  0  0  0  0  0
   -0.7791   -0.1912   -0.3557 C   0  0  0  0  0  0  0  0  0  0  0  0
   -1.5087    0.1456   -1.0949 H   0  0  0  0  0  0  0  0  0  0  0  0
    0.0794    0.4828   -0.3952 H   0  0  0  0  0  0  0  0  0  0  0  0
   -0.3258   -1.6082   -0.7361 C   0  0  0  0  0  0  0  0  0  0  0  0
    0.4140   -1.9642   -0.0177 H   0  0  0  0  0  0  0  0  0  0  0  0
   -1.1870   -2.2769   -0.7278 H   0  0  0  0  0  0  0  0  0  0  0  0
    0.2991   -1.5982   -2.1379 C   0  0  0  0  0  0  0  0  0  0  0  0
   -0.4394   -1.2154   -2.8461 H   0  0  0  0  0  0  0  0  0  0  0  0
    1.1608   -0.9266   -2.1296 H   0  0  0  0  0  0  0  0  0  0  0  0
    0.7293   -2.9483   -2.5561 N   0  3  0  0  0  0  0  0  0  0  0  0
    0.6140   -3.6875   -1.8841 H   0  0  0  0  0  0  0  0  0  0  0  0
    1.2497   -3.2749   -3.7272 C   0  0  0  0  0  0  0  0  0  0  0  0
    1.4427   -2.3952   -4.6696 N   0  0  0  0  0  0  0  0  0  0  0  0
    1.1856   -1.4391   -4.4989 H   0  0  0  0  0  0  0  0  0  0  0  0
    1.8391   -2.6597   -5.5526 H   0  0  0  0  0  0  0  0  0  0  0  0
    1.5916   -4.5070   -3.9767 N   0  0  0  0  0  0  0  0  0  0  0  0
    1.4617   -5.2212   -3.2810 H   0  0  0  0  0  0  0  0  0  0  0  0
    1.9860   -4.7506   -4.8665 H   0  0  0  0  0  0  0  0  0  0  0  0
   -1.6547    1.3413    1.4779 C   0  0  0  0  0  0  0  0  0  0  0  0
   -1.9113    1.5875    2.6504 O   0  0  0  0  0  0  0  0  0  0  0  0
   -1.6011    2.2792    0.5270 N   0  0  0  0  0  0  0  0  0  0  0  0
   -1.3470    1.9922   -0.4040 H   0  0  0  0  0  0  0  0  0  0  0  0
   -1.7989    3.7084    0.7745 C   0  0  0  0  0  0  0  0  0  0  0  0
   -1.0075    4.0832    1.4271 H   0  0  0  0  0  0  0  0  0  0  0  0
   -1.7779    4.2631   -0.1644 H   0  0  0  0  0  0  0  0  0  0  0  0
   -2.7593    3.8726    1.2680 H   0  0  0  0  0  0  0  0  0  0  0  0
  5  6  2  0  0  0  0
  5  7  1  0  0  0  0
  2  3  1  0  0  0  0
  2  4  1  0  0  0  0
  2  5  1  0  0  0  0
  1  2  1  0  0  0  0
 29 30  2  0  0  0  0
 29 31  1  0  0  0  0
 26 27  1  0  0  0  0
 26 28  1  0  0  0  0
 23 24  1  0  0  0  0
 23 25  1  0  0  0  0
 22 23  1  0  0  0  0
 22 26  1  0  0  0  0
 20 21  1  0  0  0  0
 20 22  2  0  0  0  0
 17 18  1  0  0  0  0
 17 19  1  0  0  0  0
 17 20  1  0  0  0  0
 14 15  1  0  0  0  0
 14 16  1  0  0  0  0
 14 17  1  0  0  0  0
 11 12  1  0  0  0  0
 11 13  1  0  0  0  0
 11 14  1  0  0  0  0
  9 10  1  0  0  0  0
  9 11  1  0  0  0  0
  9 29  1  0  0  0  0
  7  8  1  0  0  0  0
  7  9  1  0  0  0  0
 33 34  1  0  0  0  0
 33 35  1  0  0  0  0
 33 36  1  0  0  0  0
 31 32  1  0  0  0  0
 31 33  1  0  0  0  0
M  CHG  1  20   1
M  END
$$$$
default_name
  -OEChem-01062215323D

 36 35  0     1  0  0  0  0  0999 V2000
   -4.2256   -3.6731    1.8584 H   0  0  0  0  0  0  0  0  0  0  0  0
   -4.2396   -2.6781    1.4144 C   0  0  0  0  0  0  0  0  0  0  0  0
   -4.9506   -2.0521    1.9514 H   0  0  0  0  0  0  0  0  0  0  0  0
   -4.5266   -2.7521    0.3674 H   0  0  0  0  0  0  0  0  0  0  0  0
   -2.8576   -2.0761    1.5184 C   0  0  0  0  0  0  0  0  0  0  0  0
   -1.9456   -2.7051    2.0404 O   0  0  0  0  0  0  0  0  0  0  0  0
   -2.6926   -0.8481    1.0174 N   0  0  0  0  0  0  0  0  0  0  0  0
   -3.4926   -0.3971    0.5954 H   0  0  0  0  0  0  0  0  0  0  0  0
   -1.4216   -0.1071    1.0434 C   0  0  1  0  0  0  0  0  0  0  0  0
   -0.7579   -0.5878    1.7640 H   0  0  0  0  0  0  0  0  0  0  0  0
   -0.7791   -0.1912   -0.3557 C   0  0  0  0  0  0  0  0  0  0  0  0
   -1.5087    0.1456   -1.0949 H   0  0  0  0  0  0  0  0  0  0  0  0
    0.0794    0.4828   -0.3952 H   0  0  0  0  0  0  0  0  0  0  0  0
   -0.3258   -1.6082   -0.7361 C   0  0  0  0  0  0  0  0  0  0  0  0
    0.4140   -1.9642   -0.0177 H   0  0  0  0  0  0  0  0  0  0  0  0
   -1.1870   -2.2769   -0.7278 H   0  0  0  0  0  0  0  0  0  0  0  0
    0.2991   -1.5982   -2.1379 C   0  0  0  0  0  0  0  0  0  0  0  0
   -0.4394   -1.2154   -2.8461 H   0  0  0  0  0  0  0  0  0  0  0  0
    1.1608   -0.9266   -2.1296 H   0  0  0  0  0  0  0  0  0  0  0  0
    0.7293   -2.9483   -2.5561 N   0  3  0  0  0  0  0  0  0  0  0  0
    0.6140   -3.6875   -1.8841 H   0  0  0  0  0  0  0  0  0  0  0  0
    1.2497   -3.2749   -3.7272 C   0  0  0  0  0  0  0  0  0  0  0  0
    1.4427   -2.3952   -4.6696 N   0  0  0  0  0  0  0  0  0  0  0  0
    1.1856   -1.4391   -4.4989 H   0  0  0  0  0  0  0  0  0  0  0  0
    1.8391   -2.6597   -5.5526 H   0  0  0  0  0  0  0  0  0  0  0  0
    1.5916   -4.5070   -3.9767 N   0  0  0  0  0  0  0  0  0  0  0  0
    1.4617   -5.2212   -3.2810 H   0  0  0  0  0  0  0  0  0  0  0  0
    1.9860   -4.7506   -4.8665 H   0  0  0  0  0  0  0  0  0  0  0  0
   -1.6547    1.3413    1.4779 C   0  0  0  0  0  0  0  0  0  0  0  0
   -1.6365    1.6260    2.6694 O   0  0  0  0  0  0  0  0  0  0  0  0
   -1.9080    2.2334    0.5152 N   0  0  0  0  0  0  0  0  0  0  0  0
   -1.8666    1.9195   -0.4406 H   0  0  0  0  0  0  0  0  0  0  0  0
   -2.1510    3.6559    0.7604 C   0  0  0  0  0  0  0  0  0  0  0  0
   -1.2564    4.1154    1.1862 H   0  0  0  0  0  0  0  0  0  0  0  0
   -2.4029    4.1645   -0.1711 H   0  0  0  0  0  0  0  0  0  0  0  0
   -2.9721    3.7777    1.4701 H   0  0  0  0  0  0  0  0  0  0  0  0
  5  6  2  0  0  0  0
  5  7  1  0  0  0  0
  2  3  1  0  0  0  0
  2  4  1  0  0  0  0
  2  5  1  0  0  0  0
  1  2  1  0  0  0  0
 29 30  2  0  0  0  0
 29 31  1  0  0  0  0
 26 27  1  0  0  0  0
 26 28  1  0  0  0  0
 23 24  1  0  0  0  0
 23 25  1  0  0  0  0
 22 23  1  0  0  0  0
 22 26  1  0  0  0  0
 20 21  1  0  0  0  0
 20 22  2  0  0  0  0
 17 18  1  0  0  0  0
 17 19  1  0  0  0  0
 17 20  1  0  0  0  0
 14 15  1  0  0  0  0
 14 16  1  0  0  0  0
 14 17  1  0  0  0  0
 11 12  1  0  0  0  0
 11 13  1  0  0  0  0
 11 14  1  0  0  0  0
  9 10  1  0  0  0  0
  9 11  1  0  0  0  0
  9 29  1  0  0  0  0
  7  8  1  0  0  0  0
  7  9  1  0  0  0  0
 33 34  1  0  0  0  0
 33 35  1  0  0  0  0
 33 36  1  0  0  0  0
 31 32  1  0  0  0  0
 31 33  1  0  0  0  0
M  CHG  1  20   1
M  END
$$$$
default_name
  -OEChem-01062215323D

 36 35  0     1  0  0  0  0  0999 V2000
   -4.2256   -3.6731    1.8584 H   0  0  0  0  0  0  0  0  0  0  0  0
   -4.2396   -2.6781    1.4144 C   0  0  0  0  0  0  0  0  0  0  0  0
   -4.9506   -2.0521    1.9514 H   0  0  0  0  0  0  0  0  0  0  0  0
   -4.5266   -2.7521    0.3674 H   0  0  0  0  0  0  0  0  0  0  0  0
   -2.8576   -2.0761    1.5184 C   0  0  0  0  0  0  0  0  0  0  0  0
   -1.9456   -2.7051    2.0404 O   0  0  0  0  0  0  0  0  0  0  0  0
   -2.6926   -0.8481    1.0174 N   0  0  0  0  0  0  0  0  0  0  0  0
   -3.4926   -0.3971    0.5954 H   0  0  0  0  0  0  0  0  0  0  0  0
   -1.4216   -0.1071    1.0434 C   0  0  1  0  0  0  0  0  0  0  0  0
   -0.7579   -0.5878    1.7640 H   0  0  0  0  0  0  0  0  0  0  0  0
   -0.7791   -0.1912   -0.3557 C   0  0  0  0  0  0  0  0  0  0  0  0
   -1.5087    0.1456   -1.0949 H   0  0  0  0  0  0  0  0  0  0  0  0
    0.0794    0.4828   -0.3952 H   0  0  0  0  0  0  0  0  0  0  0  0
   -0.3258   -1.6082   -0.7361 C   0  0  0  0  0  0  0  0  0  0  0  0
    0.4140   -1.9642   -0.0177 H   0  0  0  0  0  0  0  0  0  0  0  0
   -1.1870   -2.2769   -0.7278 H   0  0  0  0  0  0  0  0  0  0  0  0
    0.2991   -1.5982   -2.1379 C   0  0  0  0  0  0  0  0  0  0  0  0
   -0.4394   -1.2154   -2.8461 H   0  0  0  0  0  0  0  0  0  0  0  0
    1.1608   -0.9266   -2.1296 H   0  0  0  0  0  0  0  0  0  0  0  0
    0.7293   -2.9483   -2.5561 N   0  3  0  0  0  0  0  0  0  0  0  0
    0.6140   -3.6875   -1.8841 H   0  0  0  0  0  0  0  0  0  0  0  0
    1.2497   -3.2749   -3.7272 C   0  0  0  0  0  0  0  0  0  0  0  0
    1.4427   -2.3952   -4.6696 N   0  0  0  0  0  0  0  0  0  0  0  0
    1.1856   -1.4391   -4.4989 H   0  0  0  0  0  0  0  0  0  0  0  0
    1.8391   -2.6597   -5.5526 H   0  0  0  0  0  0  0  0  0  0  0  0
    1.5916   -4.5070   -3.9767 N   0  0  0  0  0  0  0  0  0  0  0  0
    1.4617   -5.2212   -3.2810 H   0  0  0  0  0  0  0  0  0  0  0  0
    1.9860   -4.7506   -4.8665 H   0  0  0  0  0  0  0  0  0  0  0  0
   -1.6547    1.3413    1.4779 C   0  0  0  0  0  0  0  0  0  0  0  0
   -1.3693    1.6842    2.6190 O   0  0  0  0  0  0  0  0  0  0  0  0
   -2.2040    2.1661    0.5808 N   0  0  0  0  0  0  0  0  0  0  0  0
   -2.3721    1.8097   -0.3458 H   0  0  0  0  0  0  0  0  0  0  0  0
   -2.4907    3.5788    0.8351 C   0  0  0  0  0  0  0  0  0  0  0  0
   -1.5582    4.1187    1.0131 H   0  0  0  0  0  0  0  0  0  0  0  0
   -3.0009    4.0231   -0.0205 H   0  0  0  0  0  0  0  0  0  0  0  0
   -3.1212    3.6784    1.7213 H   0  0  0  0  0  0  0  0  0  0  0  0
  5  6  2  0  0  0  0
  5  7  1  0  0  0  0
  2  3  1  0  0  0  0
  2  4  1  0  0  0  0
  2  5  1  0  0  0  0
  1  2  1  0  0  0  0
 29 30  2  0  0  0  0
 29 31  1  0  0  0  0
 26 27  1  0  0  0  0
 26 28  1  0  0  0  0
 23 24  1  0  0  0  0
 23 25  1  0  0  0  0
 22 23  1  0  0  0  0
 22 26  1  0  0  0  0
 20 21  1  0  0  0  0
 20 22  2  0  0  0  0
 17 18  1  0  0  0  0
 17 19  1  0  0  0  0
 17 20  1  0  0  0  0
 14 15  1  0  0  0  0
 14 16  1  0  0  0  0
 14 17  1  0  0  0  0
 11 12  1  0  0  0  0
 11 13  1  0  0  0  0
 11 14  1  0  0  0  0
  9 10  1  0  0  0  0
  9 11  1  0  0  0  0
  9 29  1  0  0  0  0
  7  8  1  0  0  0  0
  7  9  1  0  0  0  0
 33 34  1  0  0  0  0
 33 35  1  0  0  0  0
 33 36  1  0  0  0  0
 31 32  1  0  0  0  0
 31 33  1  0  0  0  0
M  CHG  1  20   1
M  END
$$$$
default_name
  -OEChem-01062215323D

 36 35  0     1  0  0  0  0  0999 V2000
   -4.2256   -3.6731    1.8584 H   0  0  0  0  0  0  0  0  0  0  0  0
   -4.2396   -2.6781    1.4144 C   0  0  0  0  0  0  0  0  0  0  0  0
   -4.9506   -2.0521    1.9514 H   0  0  0  0  0  0  0  0  0  0  0  0
   -4.5266   -2.7521    0.3674 H   0  0  0  0  0  0  0  0  0  0  0  0
   -2.8576   -2.0761    1.5184 C   0  0  0  0  0  0  0  0  0  0  0  0
   -1.9456   -2.7051    2.0404 O   0  0  0  0  0  0  0  0  0  0  0  0
   -2.6926   -0.8481    1.0174 N   0  0  0  0  0  0  0  0  0  0  0  0
   -3.4926   -0.3971    0.5954 H   0  0  0  0  0  0  0  0  0  0  0  0
   -1.4216   -0.1071    1.0434 C   0  0  1  0  0  0  0  0  0  0  0  0
   -0.7579   -0.5878    1.7640 H   0  0  0  0  0  0  0  0  0  0  0  0
   -0.7791   -0.1912   -0.3557 C   0  0  0  0  0  0  0  0  0  0  0  0
   -1.5087    0.1456   -1.0949 H   0  0  0  0  0  0  0  0  0  0  0  0
    0.0794    0.4828   -0.3952 H   0  0  0  0  0  0  0  0  0  0  0  0
   -0.3258   -1.6082   -0.7361 C   0  0  0  0  0  0  0  0  0  0  0  0
    0.4140   -1.9642   -0.0177 H   0  0  0  0  0  0  0  0  0  0  0  0
   -1.1870   -2.2769   -0.7278 H   0  0  0  0  0  0  0  0  0  0  0  0
    0.2991   -1.5982   -2.1379 C   0  0  0  0  0  0  0  0  0  0  0  0
   -0.4394   -1.2154   -2.8461 H   0  0  0  0  0  0  0  0  0  0  0  0
    1.1608   -0.9266   -2.1296 H   0  0  0  0  0  0  0  0  0  0  0  0
    0.7293   -2.9483   -2.5561 N   0  3  0  0  0  0  0  0  0  0  0  0
    0.6140   -3.6875   -1.8841 H   0  0  0  0  0  0  0  0  0  0  0  0
    1.2497   -3.2749   -3.7272 C   0  0  0  0  0  0  0  0  0  0  0  0
    1.4427   -2.3952   -4.6696 N   0  0  0  0  0  0  0  0  0  0  0  0
    1.1856   -1.4391   -4.4989 H   0  0  0  0  0  0  0  0  0  0  0  0
    1.8391   -2.6597   -5.5526 H   0  0  0  0  0  0  0  0  0  0  0  0
    1.5916   -4.5070   -3.9767 N   0  0  0  0  0  0  0  0  0  0  0  0
    1.4617   -5.2212   -3.2810 H   0  0  0  0  0  0  0  0  0  0  0  0
    1.9860   -4.7506   -4.8665 H   0  0  0  0  0  0  0  0  0  0  0  0
   -1.6547    1.3413    1.4779 C   0  0  0  0  0  0  0  0  0  0  0  0
   -1.1278    1.7580    2.5025 O   0  0  0  0  0  0  0  0  0  0  0  0
   -2.4688    2.0819    0.7193 N   0  0  0  0  0  0  0  0  0  0  0  0
   -2.8291    1.6702   -0.1261 H   0  0  0  0  0  0  0  0  0  0  0  0
   -2.7949    3.4823    0.9935 C   0  0  0  0  0  0  0  0  0  0  0  0
   -1.8924    4.0929    0.9198 H   0  0  0  0  0  0  0  0  0  0  0  0
   -3.5313    3.8484    0.2770 H   0  0  0  0  0  0  0  0  0  0  0  0
   -3.1964    3.5814    2.0044 H   0  0  0  0  0  0  0  0  0  0  0  0
  5  6  2  0  0  0  0
  5  7  1  0  0  0  0
  2  3  1  0  0  0  0
  2  4  1  0  0  0  0
  2  5  1  0  0  0  0
  1  2  1  0  0  0  0
 29 30  2  0  0  0  0
 29 31  1  0  0  0  0
 26 27  1  0  0  0  0
 26 28  1  0  0  0  0
 23 24  1  0  0  0  0
 23 25  1  0  0  0  0
 22 23  1  0  0  0  0
 22 26  1  0  0  0  0
 20 21  1  0  0  0  0
 20 22  2  0  0  0  0
 17 18  1  0  0  0  0
 17 19  1  0  0  0  0
 17 20  1  0  0  0  0
 14 15  1  0  0  0  0
 14 16  1  0  0  0  0
 14 17  1  0  0  0  0
 11 12  1  0  0  0  0
 11 13  1  0  0  0  0
 11 14  1  0  0  0  0
  9 10  1  0  0  0  0
  9 11  1  0  0  0  0
  9 29  1  0  0  0  0
  7  8  1  0  0  0  0
  7  9  1  0  0  0  0
 33 34  1  0  0  0  0
 33 35  1  0  0  0  0
 33 36  1  0  0  0  0
 31 32  1  0  0  0  0
 31 33  1  0  0  0  0
M  CHG  1  20   1
M  END
$$$$
default_name
  -OEChem-01062215323D

 36 35  0     1  0  0  0  0  0999 V2000
   -4.2256   -3.6731    1.8584 H   0  0  0  0  0  0  0  0  0  0  0  0
   -4.2396   -2.6781    1.4144 C   0  0  0  0  0  0  0  0  0  0  0  0
   -4.9506   -2.0521    1.9514 H   0  0  0  0  0  0  0  0  0  0  0  0
   -4.5266   -2.7521    0.3674 H   0  0  0  0  0  0  0  0  0  0  0  0
   -2.8576   -2.0761    1.5184 C   0  0  0  0  0  0  0  0  0  0  0  0
   -1.9456   -2.7051    2.0404 O   0  0  0  0  0  0  0  0  0  0  0  0
   -2.6926   -0.8481    1.0174 N   0  0  0  0  0  0  0  0  0  0  0  0
   -3.4926   -0.3971    0.5954 H   0  0  0  0  0  0  0  0  0  0  0  0
   -1.4216   -0.1071    1.0434 C   0  0  1  0  0  0  0  0  0  0  0  0
   -0.7579   -0.5878    1.7640 H   0  0  0  0  0  0  0  0  0  0  0  0
   -0.7791   -0.1912   -0.3557 C   0  0  0  0  0  0  0  0  0  0  0  0
   -1.5087    0.1456   -1.0949 H   0  0  0  0  0  0  0  0  0  0  0  0
    0.0794    0.4828   -0.3952 H   0  0  0  0  0  0  0  0  0  0  0  0
   -0.3258   -1.6082   -0.7361 C   0  0  0  0  0  0  0  0  0  0  0  0
    0.4140   -1.9642   -0.0177 H   0  0  0  0  0  0  0  0  0  0  0  0
   -1.1870   -2.2769   -0.7278 H   0  0  0  0  0  0  0  0  0  0  0  0
    0.2991   -1.5982   -2.1379 C   0  0  0  0  0  0  0  0  0  0  0  0
   -0.4394   -1.2154   -2.8461 H   0  0  0  0  0  0  0  0  0  0  0  0
    1.1608   -0.9266   -2.1296 H   0  0  0  0  0  0  0  0  0  0  0  0
    0.7293   -2.9483   -2.5561 N   0  3  0  0  0  0  0  0  0  0  0  0
    0.6140   -3.6875   -1.8841 H   0  0  0  0  0  0  0  0  0  0  0  0
    1.2497   -3.2749   -3.7272 C   0  0  0  0  0  0  0  0  0  0  0  0
    1.4427   -2.3952   -4.6696 N   0  0  0  0  0  0  0  0  0  0  0  0
    1.1856   -1.4391   -4.4989 H   0  0  0  0  0  0  0  0  0  0  0  0
    1.8391   -2.6597   -5.5526 H   0  0  0  0  0  0  0  0  0  0  0  0
    1.5916   -4.5070   -3.9767 N   0  0  0  0  0  0  0  0  0  0  0  0
    1.4617   -5.2212   -3.2810 H   0  0  0  0  0  0  0  0  0  0  0  0
    1.9860   -4.7506   -4.8665 H   0  0  0  0  0  0  0  0  0  0  0  0
   -1.6547    1.3413    1.4779 C   0  0  0  0  0  0  0  0  0  0  0  0
   -0.9284    1.8424    2.3279 O   0  0  0  0  0  0  0  0  0  0  0  0
   -2.6846    1.9865    0.9213 N   0  0  0  0  0  0  0  0  0  0  0  0
   -3.2064    1.5106    0.2037 H   0  0  0  0  0  0  0  0  0  0  0  0
   -3.0428    3.3730    1.2249 C   0  0  0  0  0  0  0  0  0  0  0  0
   -2.2362    4.0397    0.9125 H   0  0  0  0  0  0  0  0  0  0  0  0
   -3.9579    3.6525    0.7013 H   0  0  0  0  0  0  0  0  0  0  0  0
   -3.1925    3.4933    2.3001 H   0  0  0  0  0  0  0  0  0  0  0  0
  5  6  2  0  0  0  0
  5  7  1  0  0  0  0
  2  3  1  0  0  0  0
  2  4  1  0  0  0  0
  2  5  1  0  0  0  0
  1  2  1  0  0  0  0
 29 30  2  0  0  0  0
 29 31  1  0  0  0  0
 26 27  1  0  0  0  0
 26 28  1  0  0  0  0
 23 24  1  0  0  0  0
 23 25  1  0  0  0  0
 22 23  1  0  0  0  0
 22 26  1  0  0  0  0
 20 21  1  0  0  0  0
 20 22  2  0  0  0  0
 17 18  1  0  0  0  0
 17 19  1  0  0  0  0
 17 20  1  0  0  0  0
 14 15  1  0  0  0  0
 14 16  1  0  0  0  0
 14 17  1  0  0  0  0
 11 12  1  0  0  0  0
 11 13  1  0  0  0  0
 11 14  1  0  0  0  0
  9 10  1  0  0  0  0
  9 11  1  0  0  0  0
  9 29  1  0  0  0  0
  7  8  1  0  0  0  0
  7  9  1  0  0  0  0
 33 34  1  0  0  0  0
 33 35  1  0  0  0  0
 33 36  1  0  0  0  0
 31 32  1  0  0  0  0
 31 33  1  0  0  0  0
M  CHG  1  20   1
M  END
$$$$
default_name
  -OEChem-01062215323D

 36 35  0     1  0  0  0  0  0999 V2000
   -4.2256   -3.6731    1.8584 H   0  0  0  0  0  0  0  0  0  0  0  0
   -4.2396   -2.6781    1.4144 C   0  0  0  0  0  0  0  0  0  0  0  0
   -4.9506   -2.0521    1.9514 H   0  0  0  0  0  0  0  0  0  0  0  0
   -4.5266   -2.7521    0.3674 H   0  0  0  0  0  0  0  0  0  0  0  0
   -2.8576   -2.0761    1.5184 C   0  0  0  0  0  0  0  0  0  0  0  0
   -1.9456   -2.7051    2.0404 O   0  0  0  0  0  0  0  0  0  0  0  0
   -2.6926   -0.8481    1.0174 N   0  0  0  0  0  0  0  0  0  0  0  0
   -3.4926   -0.3971    0.5954 H   0  0  0  0  0  0  0  0  0  0  0  0
   -1.4216   -0.1071    1.0434 C   0  0  1  0  0  0  0  0  0  0  0  0
   -0.7579   -0.5878    1.7640 H   0  0  0  0  0  0  0  0  0  0  0  0
   -0.7791   -0.1912   -0.3557 C   0  0  0  0  0  0  0  0  0  0  0  0
   -1.5087    0.1456   -1.0949 H   0  0  0  0  0  0  0  0  0  0  0  0
    0.0794    0.4828   -0.3952 H   0  0  0  0  0  0  0  0  0  0  0  0
   -0.3258   -1.6082   -0.7361 C   0  0  0  0  0  0  0  0  0  0  0  0
    0.4140   -1.9642   -0.0177 H   0  0  0  0  0  0  0  0  0  0  0  0
   -1.1870   -2.2769   -0.7278 H   0  0  0  0  0  0  0  0  0  0  0  0
    0.2991   -1.5982   -2.1379 C   0  0  0  0  0  0  0  0  0  0  0  0
   -0.4394   -1.2154   -2.8461 H   0  0  0  0  0  0  0  0  0  0  0  0
    1.1608   -0.9266   -2.1296 H   0  0  0  0  0  0  0  0  0  0  0  0
    0.7293   -2.9483   -2.5561 N   0  3  0  0  0  0  0  0  0  0  0  0
    0.6140   -3.6875   -1.8841 H   0  0  0  0  0  0  0  0  0  0  0  0
    1.2497   -3.2749   -3.7272 C   0  0  0  0  0  0  0  0  0  0  0  0
    1.4427   -2.3952   -4.6696 N   0  0  0  0  0  0  0  0  0  0  0  0
    1.1856   -1.4391   -4.4989 H   0  0  0  0  0  0  0  0  0  0  0  0
    1.8391   -2.6597   -5.5526 H   0  0  0  0  0  0  0  0  0  0  0  0
    1.5916   -4.5070   -3.9767 N   0  0  0  0  0  0  0  0  0  0  0  0
    1.4617   -5.2212   -3.2810 H   0  0  0  0  0  0  0  0  0  0  0  0
    1.9860   -4.7506   -4.8665 H   0  0  0  0  0  0  0  0  0  0  0  0
   -1.6547    1.3413    1.4779 C   0  0  0  0  0  0  0  0  0  0  0  0
   -0.7849    1.9318    2.1071 O   0  0  0  0  0  0  0  0  0  0  0  0
   -2.8364    1.8866    1.1730 N   0  0  0  0  0  0  0  0  0  0  0  0
   -3.4784    1.3416    0.6210 H   0  0  0  0  0  0  0  0  0  0  0  0
   -3.2175    3.2584    1.5134 C   0  0  0  0  0  0  0  0  0  0  0  0
   -2.5661    3.9628    0.9919 H   0  0  0  0  0  0  0  0  0  0  0  0
   -4.2516    3.4486    1.2233 H   0  0  0  0  0  0  0  0  0  0  0  0
   -3.1098    3.4202    2.5882 H   0  0  0  0  0  0  0  0  0  0  0  0
  5  6  2  0  0  0  0
  5  7  1  0  0  0  0
  2  3  1  0  0  0  0
  2  4  1  0  0  0  0
  2  5  1  0  0  0  0
  1  2  1  0  0  0  0
 29 30  2  0  0  0  0
 29 31  1  0  0  0  0
 26 27  1  0  0  0  0
 26 28  1  0  0  0  0
 23 24  1  0  0  0  0
 23 25  1  0  0  0  0
 22 23  1  0  0  0  0
 22 26  1  0  0  0  0
 20 21  1  0  0  0  0
 20 22  2  0  0  0  0
 17 18  1  0  0  0  0
 17 19  1  0  0  0  0
 17 20  1  0  0  0  0
 14 15  1  0  0  0  0
 14 16  1  0  0  0  0
 14 17  1  0  0  0  0
 11 12  1  0  0  0  0
 11 13  1  0  0  0  0
 11 14  1  0  0  0  0
  9 10  1  0  0  0  0
  9 11  1  0  0  0  0
  9 29  1  0  0  0  0
  7  8  1  0  0  0  0
  7  9  1  0  0  0  0
 33 34  1  0  0  0  0
 33 35  1  0  0  0  0
 33 36  1  0  0  0  0
 31 32  1  0  0  0  0
 31 33  1  0  0  0  0
M  CHG  1  20   1
M  END
$$$$
default_name
  -OEChem-01062215323D

 36 35  0     1  0  0  0  0  0999 V2000
   -4.2256   -3.6731    1.8584 H   0  0  0  0  0  0  0  0  0  0  0  0
   -4.2396   -2.6781    1.4144 C   0  0  0  0  0  0  0  0  0  0  0  0
   -4.9506   -2.0521    1.9514 H   0  0  0  0  0  0  0  0  0  0  0  0
   -4.5266   -2.7521    0.3674 H   0  0  0  0  0  0  0  0  0  0  0  0
   -2.8576   -2.0761    1.5184 C   0  0  0  0  0  0  0  0  0  0  0  0
   -1.9456   -2.7051    2.0404 O   0  0  0  0  0  0  0  0  0  0  0  0
   -2.6926   -0.8481    1.0174 N   0  0  0  0  0  0  0  0  0  0  0  0
   -3.4926   -0.3971    0.5954 H   0  0  0  0  0  0  0  0  0  0  0  0
   -1.4216   -0.1071    1.0434 C   0  0  1  0  0  0  0  0  0  0  0  0
   -0.7579   -0.5878    1.7640 H   0  0  0  0  0  0  0  0  0  0  0  0
   -0.7791   -0.1912   -0.3557 C   0  0  0  0  0  0  0  0  0  0  0  0
   -1.5087    0.1456   -1.0949 H   0  0  0  0  0  0  0  0  0  0  0  0
    0.0794    0.4828   -0.3952 H   0  0  0  0  0  0  0  0  0  0  0  0
   -0.3258   -1.6082   -0.7361 C   0  0  0  0  0  0  0  0  0  0  0  0
    0.4140   -1.9642   -0.0177 H   0  0  0  0  0  0  0  0  0  0  0  0
   -1.1870   -2.2769   -0.7278 H   0  0  0  0  0  0  0  0  0  0  0  0
    0.2991   -1.5982   -2.1379 C   0  0  0  0  0  0  0  0  0  0  0  0
   -0.4394   -1.2154   -2.8461 H   0  0  0  0  0  0  0  0  0  0  0  0
    1.1608   -0.9266   -2.1296 H   0  0  0  0  0  0  0  0  0  0  0  0
    0.7293   -2.9483   -2.5561 N   0  3  0  0  0  0  0  0  0  0  0  0
    0.6140   -3.6875   -1.8841 H   0  0  0  0  0  0  0  0  0  0  0  0
    1.2497   -3.2749   -3.7272 C   0  0  0  0  0  0  0  0  0  0  0  0
    1.4427   -2.3952   -4.6696 N   0  0  0  0  0  0  0  0  0  0  0  0
    1.1856   -1.4391   -4.4989 H   0  0  0  0  0  0  0  0  0  0  0  0
    1.8391   -2.6597   -5.5526 H   0  0  0  0  0  0  0  0  0  0  0  0
    1.5916   -4.5070   -3.9767 N   0  0  0  0  0  0  0  0  0  0  0  0
    1.4617   -5.2212   -3.2810 H   0  0  0  0  0  0  0  0  0  0  0  0
    1.9860   -4.7506   -4.8665 H   0  0  0  0  0  0  0  0  0  0  0  0
   -1.6547    1.3413    1.4779 C   0  0  0  0  0  0  0  0  0  0  0  0
   -0.7069    2.0199    1.8551 O   0  0  0  0  0  0  0  0  0  0  0  0
   -2.9141    1.7888    1.4573 N   0  0  0  0  0  0  0  0  0  0  0  0
   -3.6264    1.1749    1.0973 H   0  0  0  0  0  0  0  0  0  0  0  0
   -3.3072    3.1461    1.8395 C   0  0  0  0  0  0  0  0  0  0  0  0
   -2.8597    3.8674    1.1523 H   0  0  0  0  0  0  0  0  0  0  0  0
   -4.3924    3.2507    1.8076 H   0  0  0  0  0  0  0  0  0  0  0  0
   -2.9540    3.3670    2.8491 H   0  0  0  0  0  0  0  0  0  0  0  0
  5  6  2  0  0  0  0
  5  7  1  0  0  0  0
  2  3  1  0  0  0  0
  2  4  1  0  0  0  0
  2  5  1  0  0  0  0
  1  2  1  0  0  0  0
 29 30  2  0  0  0  0
 29 31  1  0  0  0  0
 26 27  1  0  0  0  0
 26 28  1  0  0  0  0
 23 24  1  0  0  0  0
 23 25  1  0  0  0  0
 22 23  1  0  0  0  0
 22 26  1  0  0  0  0
 20 21  1  0  0  0  0
 20 22  2  0  0  0  0
 17 18  1  0  0  0  0
 17 19  1  0  0  0  0
 17 20  1  0  0  0  0
 14 15  1  0  0  0  0
 14 16  1  0  0  0  0
 14 17  1  0  0  0  0
 11 12  1  0  0  0  0
 11 13  1  0  0  0  0
 11 14  1  0  0  0  0
  9 10  1  0  0  0  0
  9 11  1  0  0  0  0
  9 29  1  0  0  0  0
  7  8  1  0  0  0  0
  7  9  1  0  0  0  0
 33 34  1  0  0  0  0
 33 35  1  0  0  0  0
 33 36  1  0  0  0  0
 31 32  1  0  0  0  0
 31 33  1  0  0  0  0
M  CHG  1  20   1
M  END
$$$$
default_name
  -OEChem-01062215323D

 36 35  0     1  0  0  0  0  0999 V2000
   -4.2256   -3.6731    1.8584 H   0  0  0  0  0  0  0  0  0  0  0  0
   -4.2396   -2.6781    1.4144 C   0  0  0  0  0  0  0  0  0  0  0  0
   -4.9506   -2.0521    1.9514 H   0  0  0  0  0  0  0  0  0  0  0  0
   -4.5266   -2.7521    0.3674 H   0  0  0  0  0  0  0  0  0  0  0  0
   -2.8576   -2.0761    1.5184 C   0  0  0  0  0  0  0  0  0  0  0  0
   -1.9456   -2.7051    2.0404 O   0  0  0  0  0  0  0  0  0  0  0  0
   -2.6926   -0.8481    1.0174 N   0  0  0  0  0  0  0  0  0  0  0  0
   -3.4926   -0.3971    0.5954 H   0  0  0  0  0  0  0  0  0  0  0  0
   -1.4216   -0.1071    1.0434 C   0  0  1  0  0  0  0  0  0  0  0  0
   -0.7579   -0.5878    1.7640 H   0  0  0  0  0  0  0  0  0  0  0  0
   -0.7791   -0.1912   -0.3557 C   0  0  0  0  0  0  0  0  0  0  0  0
   -1.5087    0.1456   -1.0949 H   0  0  0  0  0  0  0  0  0  0  0  0
    0.0794    0.4828   -0.3952 H   0  0  0  0  0  0  0  0  0  0  0  0
   -0.3258   -1.6082   -0.7361 C   0  0  0  0  0  0  0  0  0  0  0  0
    0.4140   -1.9642   -0.0177 H   0  0  0  0  0  0  0  0  0  0  0  0
   -1.1870   -2.2769   -0.7278 H   0  0  0  0  0  0  0  0  0  0  0  0
    0.2991   -1.5982   -2.1379 C   0  0  0  0  0  0  0  0  0  0  0  0
   -0.4394   -1.2154   -2.8461 H   0  0  0  0  0  0  0  0  0  0  0  0
    1.1608   -0.9266   -2.1296 H   0  0  0  0  0  0  0  0  0  0  0  0
    0.7293   -2.9483   -2.5561 N   0  3  0  0  0  0  0  0  0  0  0  0
    0.6140   -3.6875   -1.8841 H   0  0  0  0  0  0  0  0  0  0  0  0
    1.2497   -3.2749   -3.7272 C   0  0  0  0  0  0  0  0  0  0  0  0
    1.4427   -2.3952   -4.6696 N   0  0  0  0  0  0  0  0  0  0  0  0
    1.1856   -1.4391   -4.4989 H   0  0  0  0  0  0  0  0  0  0  0  0
    1.8391   -2.6597   -5.5526 H   0  0  0  0  0  0  0  0  0  0  0  0
    1.5916   -4.5070   -3.9767 N   0  0  0  0  0  0  0  0  0  0  0  0
    1.4617   -5.2212   -3.2810 H   0  0  0  0  0  0  0  0  0  0  0  0
    1.9860   -4.7506   -4.8665 H   0  0  0  0  0  0  0  0  0  0  0  0
   -1.6547    1.3413    1.4779 C   0  0  0  0  0  0  0  0  0  0  0  0
   -0.6998    2.1008    1.5891 O   0  0  0  0  0  0  0  0  0  0  0  0
   -2.9123    1.6999    1.7549 N   0  0  0  0  0  0  0  0  0  0  0  0
   -3.6404    1.0218    1.6003 H   0  0  0  0  0  0  0  0  0  0  0  0
   -3.3056    3.0440    2.1808 C   0  0  0  0  0  0  0  0  0  0  0  0
   -3.0969    3.7600    1.3831 H   0  0  0  0  0  0  0  0  0  0  0  0
   -4.3707    3.0722    2.4143 H   0  0  0  0  0  0  0  0  0  0  0  0
   -2.7357    3.3374    3.0651 H   0  0  0  0  0  0  0  0  0  0  0  0
  5  6  2  0  0  0  0
  5  7  1  0  0  0  0
  2  3  1  0  0  0  0
  2  4  1  0  0  0  0
  2  5  1  0  0  0  0
  1  2  1  0  0  0  0
 29 30  2  0  0  0  0
 29 31  1  0  0  0  0
 26 27  1  0  0  0  0
 26 28  1  0  0  0  0
 23 24  1  0  0  0  0
 23 25  1  0  0  0  0
 22 23  1  0  0  0  0
 22 26  1  0  0  0  0
 20 21  1  0  0  0  0
 20 22  2  0  0  0  0
 17 18  1  0  0  0  0
 17 19  1  0  0  0  0
 17 20  1  0  0  0  0
 14 15  1  0  0  0  0
 14 16  1  0  0  0  0
 14 17  1  0  0  0  0
 11 12  1  0  0  0  0
 11 13  1  0  0  0  0
 11 14  1  0  0  0  0
  9 10  1  0  0  0  0
  9 11  1  0  0  0  0
  9 29  1  0  0  0  0
  7  8  1  0  0  0  0
  7  9  1  0  0  0  0
 33 34  1  0  0  0  0
 33 35  1  0  0  0  0
 33 36  1  0  0  0  0
 31 32  1  0  0  0  0
 31 33  1  0  0  0  0
M  CHG  1  20   1
M  END
$$$$
default_name
  -OEChem-01062215323D

 36 35  0     1  0  0  0  0  0999 V2000
   -4.2256   -3.6731    1.8584 H   0  0  0  0  0  0  0  0  0  0  0  0
   -4.2396   -2.6781    1.4144 C   0  0  0  0  0  0  0  0  0  0  0  0
   -4.9506   -2.0521    1.9514 H   0  0  0  0  0  0  0  0  0  0  0  0
   -4.5266   -2.7521    0.3674 H   0  0  0  0  0  0  0  0  0  0  0  0
   -2.8576   -2.0761    1.5184 C   0  0  0  0  0  0  0  0  0  0  0  0
   -1.9456   -2.7051    2.0404 O   0  0  0  0  0  0  0  0  0  0  0  0
   -2.6926   -0.8481    1.0174 N   0  0  0  0  0  0  0  0  0  0  0  0
   -3.4926   -0.3971    0.5954 H   0  0  0  0  0  0  0  0  0  0  0  0
   -1.4216   -0.1071    1.0434 C   0  0  1  0  0  0  0  0  0  0  0  0
   -0.7579   -0.5878    1.7640 H   0  0  0  0  0  0  0  0  0  0  0  0
   -0.7791   -0.1912   -0.3557 C   0  0  0  0  0  0  0  0  0  0  0  0
   -1.5087    0.1456   -1.0949 H   0  0  0  0  0  0  0  0  0  0  0  0
    0.0794    0.4828   -0.3952 H   0  0  0  0  0  0  0  0  0  0  0  0
   -0.3258   -1.6082   -0.7361 C   0  0  0  0  0  0  0  0  0  0  0  0
    0.4140   -1.9642   -0.0177 H   0  0  0  0  0  0  0  0  0  0  0  0
   -1.1870   -2.2769   -0.7278 H   0  0  0  0  0  0  0  0  0  0  0  0
    0.2991   -1.5982   -2.1379 C   0  0  0  0  0  0  0  0  0  0  0  0
   -0.4394   -1.2154   -2.8461 H   0  0  0  0  0  0  0  0  0  0  0  0
    1.1608   -0.9266   -2.1296 H   0  0  0  0  0  0  0  0  0  0  0  0
    0.7293   -2.9483   -2.5561 N   0  3  0  0  0  0  0  0  0  0  0  0
    0.6140   -3.6875   -1.8841 H   0  0  0  0  0  0  0  0  0  0  0  0
    1.2497   -3.2749   -3.7272 C   0  0  0  0  0  0  0  0  0  0  0  0
    1.4427   -2.3952   -4.6696 N   0  0  0  0  0  0  0  0  0  0  0  0
    1.1856   -1.4391   -4.4989 H   0  0  0  0  0  0  0  0  0  0  0  0
    1.8391   -2.6597   -5.5526 H   0  0  0  0  0  0  0  0  0  0  0  0
    1.5916   -4.5070   -3.9767 N   0  0  0  0  0  0  0  0  0  0  0  0
    1.4617   -5.2212   -3.2810 H   0  0  0  0  0  0  0  0  0  0  0  0
    1.9860   -4.7506   -4.8665 H   0  0  0  0  0  0  0  0  0  0  0  0
   -1.6547    1.3413    1.4779 C   0  0  0  0  0  0  0  0  0  0  0  0
   -0.7641    2.1690    1.3273 O   0  0  0  0  0  0  0  0  0  0  0  0
   -2.8311    1.6258    2.0453 N   0  0  0  0  0  0  0  0  0  0  0  0
   -3.5195    0.8927    2.0956 H   0  0  0  0  0  0  0  0  0  0  0  0
   -3.2130    2.9589    2.5141 C   0  0  0  0  0  0  0  0  0  0  0  0
   -3.2617    3.6479    1.6683 H   0  0  0  0  0  0  0  0  0  0  0  0
   -4.1880    2.9253    3.0020 H   0  0  0  0  0  0  0  0  0  0  0  0
   -2.4697    3.3333    3.2214 H   0  0  0  0  0  0  0  0  0  0  0  0
  5  6  2  0  0  0  0
  5  7  1  0  0  0  0
  2  3  1  0  0  0  0
  2  4  1  0  0  0  0
  2  5  1  0  0  0  0
  1  2  1  0  0  0  0
 29 30  2  0  0  0  0
 29 31  1  0  0  0  0
 26 27  1  0  0  0  0
 26 28  1  0  0  0  0
 23 24  1  0  0  0  0
 23 25  1  0  0  0  0
 22 23  1  0  0  0  0
 22 26  1  0  0  0  0
 20 21  1  0  0  0  0
 20 22  2  0  0  0  0
 17 18  1  0  0  0  0
 17 19  1  0  0  0  0
 17 20  1  0  0  0  0
 14 15  1  0  0  0  0
 14 16  1  0  0  0  0
 14 17  1  0  0  0  0
 11 12  1  0  0  0  0
 11 13  1  0  0  0  0
 11 14  1  0  0  0  0
  9 10  1  0  0  0  0
  9 11  1  0  0  0  0
  9 29  1  0  0  0  0
  7  8  1  0  0  0  0
  7  9  1  0  0  0  0
 33 34  1  0  0  0  0
 33 35  1  0  0  0  0
 33 36  1  0  0  0  0
 31 32  1  0  0  0  0
 31 33  1  0  0  0  0
M  CHG  1  20   1
M  END
$$$$
default_name
  -OEChem-01062215323D

 36 35  0     1  0  0  0  0  0999 V2000
   -4.2256   -3.6731    1.8584 H   0  0  0  0  0  0  0  0  0  0  0  0
   -4.2396   -2.6781    1.4144 C   0  0  0  0  0  0  0  0  0  0  0  0
   -4.9506   -2.0521    1.9514 H   0  0  0  0  0  0  0  0  0  0  0  0
   -4.5266   -2.7521    0.3674 H   0  0  0  0  0  0  0  0  0  0  0  0
   -2.8576   -2.0761    1.5184 C   0  0  0  0  0  0  0  0  0  0  0  0
   -1.9456   -2.7051    2.0404 O   0  0  0  0  0  0  0  0  0  0  0  0
   -2.6926   -0.8481    1.0174 N   0  0  0  0  0  0  0  0  0  0  0  0
   -3.4926   -0.3971    0.5954 H   0  0  0  0  0  0  0  0  0  0  0  0
   -1.4216   -0.1071    1.0434 C   0  0  1  0  0  0  0  0  0  0  0  0
   -0.7579   -0.5878    1.7640 H   0  0  0  0  0  0  0  0  0  0  0  0
   -0.7791   -0.1912   -0.3557 C   0  0  0  0  0  0  0  0  0  0  0  0
   -1.5087    0.1456   -1.0949 H   0  0  0  0  0  0  0  0  0  0  0  0
    0.0794    0.4828   -0.3952 H   0  0  0  0  0  0  0  0  0  0  0  0
   -0.3258   -1.6082   -0.7361 C   0  0  0  0  0  0  0  0  0  0  0  0
    0.4140   -1.9642   -0.0177 H   0  0  0  0  0  0  0  0  0  0  0  0
   -1.1870   -2.2769   -0.7278 H   0  0  0  0  0  0  0  0  0  0  0  0
    0.2991   -1.5982   -2.1379 C   0  0  0  0  0  0  0  0  0  0  0  0
   -0.4394   -1.2154   -2.8461 H   0  0  0  0  0  0  0  0  0  0  0  0
    1.1608   -0.9266   -2.1296 H   0  0  0  0  0  0  0  0  0  0  0  0
    0.7293   -2.9483   -2.5561 N   0  3  0  0  0  0  0  0  0  0  0  0
    0.6140   -3.6875   -1.8841 H   0  0  0  0  0  0  0  0  0  0  0  0
    1.2497   -3.2749   -3.7272 C   0  0  0  0  0  0  0  0  0  0  0  0
    1.4427   -2.3952   -4.6696 N   0  0  0  0  0  0  0  0  0  0  0  0
    1.1856   -1.4391   -4.4989 H   0  0  0  0  0  0  0  0  0  0  0  0
    1.8391   -2.6597   -5.5526 H   0  0  0  0  0  0  0  0  0  0  0  0
    1.5916   -4.5070   -3.9767 N   0  0  0  0  0  0  0  0  0  0  0  0
    1.4617   -5.2212   -3.2810 H   0  0  0  0  0  0  0  0  0  0  0  0
    1.9860   -4.7506   -4.8665 H   0  0  0  0  0  0  0  0  0  0  0  0
   -1.6547    1.3413    1.4779 C   0  0  0  0  0  0  0  0  0  0  0  0
   -0.8953    2.2199    1.0874 O   0  0  0  0  0  0  0  0  0  0  0  0
   -2.6761    1.5717    2.3089 N   0  0  0  0  0  0  0  0  0  0  0  0
   -3.2718    0.7964    2.5494 H   0  0  0  0  0  0  0  0  0  0  0  0
   -3.0356    2.8967    2.8168 C   0  0  0  0  0  0  0  0  0  0  0  0
   -3.3427    3.5388    1.9885 H   0  0  0  0  0  0  0  0  0  0  0  0
   -3.8567    2.8201    3.5307 H   0  0  0  0  0  0  0  0  0  0  0  0
   -2.1741    3.3551    3.3073 H   0  0  0  0  0  0  0  0  0  0  0  0
  5  6  2  0  0  0  0
  5  7  1  0  0  0  0
  2  3  1  0  0  0  0
  2  4  1  0  0  0  0
  2  5  1  0  0  0  0
  1  2  1  0  0  0  0
 29 30  2  0  0  0  0
 29 31  1  0  0  0  0
 26 27  1  0  0  0  0
 26 28  1  0  0  0  0
 23 24  1  0  0  0  0
 23 25  1  0  0  0  0
 22 23  1  0  0  0  0
 22 26  1  0  0  0  0
 20 21  1  0  0  0  0
 20 22  2  0  0  0  0
 17 18  1  0  0  0  0
 17 19  1  0  0  0  0
 17 20  1  0  0  0  0
 14 15  1  0  0  0  0
 14 16  1  0  0  0  0
 14 17  1  0  0  0  0
 11 12  1  0  0  0  0
 11 13  1  0  0  0  0
 11 14  1  0  0  0  0
  9 10  1  0  0  0  0
  9 11  1  0  0  0  0
  9 29  1  0  0  0  0
  7  8  1  0  0  0  0
  7  9  1  0  0  0  0
 33 34  1  0  0  0  0
 33 35  1  0  0  0  0
 33 36  1  0  0  0  0
 31 32  1  0  0  0  0
 31 33  1  0  0  0  0
M  CHG  1  20   1
M  END
$$$$
default_name
  -OEChem-01062215323D

 36 35  0     1  0  0  0  0  0999 V2000
   -4.2256   -3.6731    1.8584 H   0  0  0  0  0  0  0  0  0  0  0  0
   -4.2396   -2.6781    1.4144 C   0  0  0  0  0  0  0  0  0  0  0  0
   -4.9506   -2.0521    1.9514 H   0  0  0  0  0  0  0  0  0  0  0  0
   -4.5266   -2.7521    0.3674 H   0  0  0  0  0  0  0  0  0  0  0  0
   -2.8576   -2.0761    1.5184 C   0  0  0  0  0  0  0  0  0  0  0  0
   -1.9456   -2.7051    2.0404 O   0  0  0  0  0  0  0  0  0  0  0  0
   -2.6926   -0.8481    1.0174 N   0  0  0  0  0  0  0  0  0  0  0  0
   -3.4926   -0.3971    0.5954 H   0  0  0  0  0  0  0  0  0  0  0  0
   -1.4216   -0.1071    1.0434 C   0  0  1  0  0  0  0  0  0  0  0  0
   -0.7579   -0.5878    1.7640 H   0  0  0  0  0  0  0  0  0  0  0  0
   -0.7791   -0.1912   -0.3557 C   0  0  0  0  0  0  0  0  0  0  0  0
   -1.5087    0.1456   -1.0949 H   0  0  0  0  0  0  0  0  0  0  0  0
    0.0794    0.4828   -0.3952 H   0  0  0  0  0  0  0  0  0  0  0  0
   -0.3258   -1.6082   -0.7361 C   0  0  0  0  0  0  0  0  0  0  0  0
    0.4140   -1.9642   -0.0177 H   0  0  0  0  0  0  0  0  0  0  0  0
   -1.1870   -2.2769   -0.7278 H   0  0  0  0  0  0  0  0  0  0  0  0
    0.2991   -1.5982   -2.1379 C   0  0  0  0  0  0  0  0  0  0  0  0
   -0.4394   -1.2154   -2.8461 H   0  0  0  0  0  0  0  0  0  0  0  0
    1.1608   -0.9266   -2.1296 H   0  0  0  0  0  0  0  0  0  0  0  0
    0.7293   -2.9483   -2.5561 N   0  3  0  0  0  0  0  0  0  0  0  0
    0.6140   -3.6875   -1.8841 H   0  0  0  0  0  0  0  0  0  0  0  0
    1.2497   -3.2749   -3.7272 C   0  0  0  0  0  0  0  0  0  0  0  0
    1.4427   -2.3952   -4.6696 N   0  0  0  0  0  0  0  0  0  0  0  0
    1.1856   -1.4391   -4.4989 H   0  0  0  0  0  0  0  0  0  0  0  0
    1.8391   -2.6597   -5.5526 H   0  0  0  0  0  0  0  0  0  0  0  0
    1.5916   -4.5070   -3.9767 N   0  0  0  0  0  0  0  0  0  0  0  0
    1.4617   -5.2212   -3.2810 H   0  0  0  0  0  0  0  0  0  0  0  0
    1.9860   -4.7506   -4.8665 H   0  0  0  0  0  0  0  0  0  0  0  0
   -1.6547    1.3413    1.4779 C   0  0  0  0  0  0  0  0  0  0  0  0
   -1.0846    2.2499    0.8858 O   0  0  0  0  0  0  0  0  0  0  0  0
   -2.4578    1.5412    2.5276 N   0  0  0  0  0  0  0  0  0  0  0  0
   -2.9143    0.7395    2.9310 H   0  0  0  0  0  0  0  0  0  0  0  0
   -2.7856    2.8615    3.0681 C   0  0  0  0  0  0  0  0  0  0  0  0
   -3.3345    3.4401    2.3221 H   0  0  0  0  0  0  0  0  0  0  0  0
   -3.3995    2.7636    3.9644 H   0  0  0  0  0  0  0  0  0  0  0  0
   -1.8692    3.4013    3.3170 H   0  0  0  0  0  0  0  0  0  0  0  0
  5  6  2  0  0  0  0
  5  7  1  0  0  0  0
  2  3  1  0  0  0  0
  2  4  1  0  0  0  0
  2  5  1  0  0  0  0
  1  2  1  0  0  0  0
 29 30  2  0  0  0  0
 29 31  1  0  0  0  0
 26 27  1  0  0  0  0
 26 28  1  0  0  0  0
 23 24  1  0  0  0  0
 23 25  1  0  0  0  0
 22 23  1  0  0  0  0
 22 26  1  0  0  0  0
 20 21  1  0  0  0  0
 20 22  2  0  0  0  0
 17 18  1  0  0  0  0
 17 19  1  0  0  0  0
 17 20  1  0  0  0  0
 14 15  1  0  0  0  0
 14 16  1  0  0  0  0
 14 17  1  0  0  0  0
 11 12  1  0  0  0  0
 11 13  1  0  0  0  0
 11 14  1  0  0  0  0
  9 10  1  0  0  0  0
  9 11  1  0  0  0  0
  9 29  1  0  0  0  0
  7  8  1  0  0  0  0
  7  9  1  0  0  0  0
 33 34  1  0  0  0  0
 33 35  1  0  0  0  0
 33 36  1  0  0  0  0
 31 32  1  0  0  0  0
 31 33  1  0  0  0  0
M  CHG  1  20   1
M  END
$$$$
default_name
  -OEChem-01062215323D

 36 35  0     1  0  0  0  0  0999 V2000
   -4.2256   -3.6731    1.8584 H   0  0  0  0  0  0  0  0  0  0  0  0
   -4.2396   -2.6781    1.4144 C   0  0  0  0  0  0  0  0  0  0  0  0
   -4.9506   -2.0521    1.9514 H   0  0  0  0  0  0  0  0  0  0  0  0
   -4.5266   -2.7521    0.3674 H   0  0  0  0  0  0  0  0  0  0  0  0
   -2.8576   -2.0761    1.5184 C   0  0  0  0  0  0  0  0  0  0  0  0
   -1.9456   -2.7051    2.0404 O   0  0  0  0  0  0  0  0  0  0  0  0
   -2.6926   -0.8481    1.0174 N   0  0  0  0  0  0  0  0  0  0  0  0
   -3.4926   -0.3971    0.5954 H   0  0  0  0  0  0  0  0  0  0  0  0
   -1.4216   -0.1071    1.0434 C   0  0  1  0  0  0  0  0  0  0  0  0
   -0.7579   -0.5878    1.7640 H   0  0  0  0  0  0  0  0  0  0  0  0
   -0.7791   -0.1912   -0.3557 C   0  0  0  0  0  0  0  0  0  0  0  0
   -1.5087    0.1456   -1.0949 H   0  0  0  0  0  0  0  0  0  0  0  0
    0.0794    0.4828   -0.3952 H   0  0  0  0  0  0  0  0  0  0  0  0
   -0.3258   -1.6082   -0.7361 C   0  0  0  0  0  0  0  0  0  0  0  0
    0.4140   -1.9642   -0.0177 H   0  0  0  0  0  0  0  0  0  0  0  0
   -1.1870   -2.2769   -0.7278 H   0  0  0  0  0  0  0  0  0  0  0  0
    0.2991   -1.5982   -2.1379 C   0  0  0  0  0  0  0  0  0  0  0  0
   -0.4394   -1.2154   -2.8461 H   0  0  0  0  0  0  0  0  0  0  0  0
    1.1608   -0.9266   -2.1296 H   0  0  0  0  0  0  0  0  0  0  0  0
    0.7293   -2.9483   -2.5561 N   0  3  0  0  0  0  0  0  0  0  0  0
    0.6140   -3.6875   -1.8841 H   0  0  0  0  0  0  0  0  0  0  0  0
    1.2497   -3.2749   -3.7272 C   0  0  0  0  0  0  0  0  0  0  0  0
    1.4427   -2.3952   -4.6696 N   0  0  0  0  0  0  0  0  0  0  0  0
    1.1856   -1.4391   -4.4989 H   0  0  0  0  0  0  0  0  0  0  0  0
    1.8391   -2.6597   -5.5526 H   0  0  0  0  0  0  0  0  0  0  0  0
    1.5916   -4.5070   -3.9767 N   0  0  0  0  0  0  0  0  0  0  0  0
    1.4617   -5.2212   -3.2810 H   0  0  0  0  0  0  0  0  0  0  0  0
    1.9860   -4.7506   -4.8665 H   0  0  0  0  0  0  0  0  0  0  0  0
   -1.6547    1.3413    1.4779 C   0  0  0  0  0  0  0  0  0  0  0  0
   -1.3190    2.2570    0.7363 O   0  0  0  0  0  0  0  0  0  0  0  0
   -2.1911    1.5365    2.6866 N   0  0  0  0  0  0  0  0  0  0  0  0
   -2.4714    0.7259    3.2141 H   0  0  0  0  0  0  0  0  0  0  0  0
   -2.4798    2.8559    3.2510 C   0  0  0  0  0  0  0  0  0  0  0  0
   -3.2376    3.3585    2.6461 H   0  0  0  0  0  0  0  0  0  0  0  0
   -2.8474    2.7597    4.2735 H   0  0  0  0  0  0  0  0  0  0  0  0
   -1.5757    3.4686    3.2499 H   0  0  0  0  0  0  0  0  0  0  0  0
  5  6  2  0  0  0  0
  5  7  1  0  0  0  0
  2  3  1  0  0  0  0
  2  4  1  0  0  0  0
  2  5  1  0  0  0  0
  1  2  1  0  0  0  0
 29 30  2  0  0  0  0
 29 31  1  0  0  0  0
 26 27  1  0  0  0  0
 26 28  1  0  0  0  0
 23 24  1  0  0  0  0
 23 25  1  0  0  0  0
 22 23  1  0  0  0  0
 22 26  1  0  0  0  0
 20 21  1  0  0  0  0
 20 22  2  0  0  0  0
 17 18  1  0  0  0  0
 17 19  1  0  0  0  0
 17 20  1  0  0  0  0
 14 15  1  0  0  0  0
 14 16  1  0  0  0  0
 14 17  1  0  0  0  0
 11 12  1  0  0  0  0
 11 13  1  0  0  0  0
 11 14  1  0  0  0  0
  9 10  1  0  0  0  0
  9 11  1  0  0  0  0
  9 29  1  0  0  0  0
  7  8  1  0  0  0  0
  7  9  1  0  0  0  0
 33 34  1  0  0  0  0
 33 35  1  0  0  0  0
 33 36  1  0  0  0  0
 31 32  1  0  0  0  0
 31 33  1  0  0  0  0
M  CHG  1  20   1
M  END
$$$$
default_name
  -OEChem-01062215323D

 36 35  0     1  0  0  0  0  0999 V2000
   -4.2256   -3.6731    1.8584 H   0  0  0  0  0  0  0  0  0  0  0  0
   -4.2396   -2.6781    1.4144 C   0  0  0  0  0  0  0  0  0  0  0  0
   -4.9506   -2.0521    1.9514 H   0  0  0  0  0  0  0  0  0  0  0  0
   -4.5266   -2.7521    0.3674 H   0  0  0  0  0  0  0  0  0  0  0  0
   -2.8576   -2.0761    1.5184 C   0  0  0  0  0  0  0  0  0  0  0  0
   -1.9456   -2.7051    2.0404 O   0  0  0  0  0  0  0  0  0  0  0  0
   -2.6926   -0.8481    1.0174 N   0  0  0  0  0  0  0  0  0  0  0  0
   -3.4926   -0.3971    0.5954 H   0  0  0  0  0  0  0  0  0  0  0  0
   -1.4216   -0.1071    1.0434 C   0  0  1  0  0  0  0  0  0  0  0  0
   -0.7579   -0.5878    1.7640 H   0  0  0  0  0  0  0  0  0  0  0  0
   -0.7791   -0.1912   -0.3557 C   0  0  0  0  0  0  0  0  0  0  0  0
   -1.5087    0.1456   -1.0949 H   0  0  0  0  0  0  0  0  0  0  0  0
    0.0794    0.4828   -0.3952 H   0  0  0  0  0  0  0  0  0  0  0  0
   -0.3258   -1.6082   -0.7361 C   0  0  0  0  0  0  0  0  0  0  0  0
    0.4140   -1.9642   -0.0177 H   0  0  0  0  0  0  0  0  0  0  0  0
   -1.1870   -2.2769   -0.7278 H   0  0  0  0  0  0  0  0  0  0  0  0
    0.2991   -1.5982   -2.1379 C   0  0  0  0  0  0  0  0  0  0  0  0
   -0.4394   -1.2154   -2.8461 H   0  0  0  0  0  0  0  0  0  0  0  0
    1.1608   -0.9266   -2.1296 H   0  0  0  0  0  0  0  0  0  0  0  0
    0.7293   -2.9483   -2.5561 N   0  3  0  0  0  0  0  0  0  0  0  0
    0.6140   -3.6875   -1.8841 H   0  0  0  0  0  0  0  0  0  0  0  0
    1.2497   -3.2749   -3.7272 C   0  0  0  0  0  0  0  0  0  0  0  0
    1.4427   -2.3952   -4.6696 N   0  0  0  0  0  0  0  0  0  0  0  0
    1.1856   -1.4391   -4.4989 H   0  0  0  0  0  0  0  0  0  0  0  0
    1.8391   -2.6597   -5.5526 H   0  0  0  0  0  0  0  0  0  0  0  0
    1.5916   -4.5070   -3.9767 N   0  0  0  0  0  0  0  0  0  0  0  0
    1.4617   -5.2212   -3.2810 H   0  0  0  0  0  0  0  0  0  0  0  0
    1.9860   -4.7506   -4.8665 H   0  0  0  0  0  0  0  0  0  0  0  0
   -1.6547    1.3413    1.4779 C   0  0  0  0  0  0  0  0  0  0  0  0
   -1.5826    2.2407    0.6491 O   0  0  0  0  0  0  0  0  0  0  0  0
   -1.8942    1.5577    2.7751 N   0  0  0  0  0  0  0  0  0  0  0  0
   -1.9731    0.7564    3.3797 H   0  0  0  0  0  0  0  0  0  0  0  0
   -2.1393    2.8801    3.3530 C   0  0  0  0  0  0  0  0  0  0  0  0
   -3.0586    3.2996    2.9386 H   0  0  0  0  0  0  0  0  0  0  0  0
   -2.2381    2.8088    4.4369 H   0  0  0  0  0  0  0  0  0  0  0  0
   -1.3136    3.5527    3.1105 H   0  0  0  0  0  0  0  0  0  0  0  0
  5  6  2  0  0  0  0
  5  7  1  0  0  0  0
  2  3  1  0  0  0  0
  2  4  1  0  0  0  0
  2  5  1  0  0  0  0
  1  2  1  0  0  0  0
 29 30  2  0  0  0  0
 29 31  1  0  0  0  0
 26 27  1  0  0  0  0
 26 28  1  0  0  0  0
 23 24  1  0  0  0  0
 23 25  1  0  0  0  0
 22 23  1  0  0  0  0
 22 26  1  0  0  0  0
 20 21  1  0  0  0  0
 20 22  2  0  0  0  0
 17 18  1  0  0  0  0
 17 19  1  0  0  0  0
 17 20  1  0  0  0  0
 14 15  1  0  0  0  0
 14 16  1  0  0  0  0
 14 17  1  0  0  0  0
 11 12  1  0  0  0  0
 11 13  1  0  0  0  0
 11 14  1  0  0  0  0
  9 10  1  0  0  0  0
  9 11  1  0  0  0  0
  9 29  1  0  0  0  0
  7  8  1  0  0  0  0
  7  9  1  0  0  0  0
 33 34  1  0  0  0  0
 33 35  1  0  0  0  0
 33 36  1  0  0  0  0
 31 32  1  0  0  0  0
 31 33  1  0  0  0  0
M  CHG  1  20   1
M  END
$$$$
default_name
  -OEChem-01062215323D

 36 35  0     1  0  0  0  0  0999 V2000
   -4.2256   -3.6731    1.8584 H   0  0  0  0  0  0  0  0  0  0  0  0
   -4.2396   -2.6781    1.4144 C   0  0  0  0  0  0  0  0  0  0  0  0
   -4.9506   -2.0521    1.9514 H   0  0  0  0  0  0  0  0  0  0  0  0
   -4.5266   -2.7521    0.3674 H   0  0  0  0  0  0  0  0  0  0  0  0
   -2.8576   -2.0761    1.5184 C   0  0  0  0  0  0  0  0  0  0  0  0
   -1.9456   -2.7051    2.0404 O   0  0  0  0  0  0  0  0  0  0  0  0
   -2.6926   -0.8481    1.0174 N   0  0  0  0  0  0  0  0  0  0  0  0
   -3.4926   -0.3971    0.5954 H   0  0  0  0  0  0  0  0  0  0  0  0
   -1.4216   -0.1071    1.0434 C   0  0  1  0  0  0  0  0  0  0  0  0
   -0.7579   -0.5878    1.7640 H   0  0  0  0  0  0  0  0  0  0  0  0
   -0.7791   -0.1912   -0.3557 C   0  0  0  0  0  0  0  0  0  0  0  0
   -1.5087    0.1456   -1.0949 H   0  0  0  0  0  0  0  0  0  0  0  0
    0.0794    0.4828   -0.3952 H   0  0  0  0  0  0  0  0  0  0  0  0
   -0.3258   -1.6082   -0.7361 C   0  0  0  0  0  0  0  0  0  0  0  0
    0.4140   -1.9642   -0.0177 H   0  0  0  0  0  0  0  0  0  0  0  0
   -1.1870   -2.2769   -0.7278 H   0  0  0  0  0  0  0  0  0  0  0  0
    0.2991   -1.5982   -2.1379 C   0  0  0  0  0  0  0  0  0  0  0  0
   -0.4394   -1.2154   -2.8461 H   0  0  0  0  0  0  0  0  0  0  0  0
    1.1608   -0.9266   -2.1296 H   0  0  0  0  0  0  0  0  0  0  0  0
    0.7293   -2.9483   -2.5561 N   0  3  0  0  0  0  0  0  0  0  0  0
    0.6140   -3.6875   -1.8841 H   0  0  0  0  0  0  0  0  0  0  0  0
    1.2497   -3.2749   -3.7272 C   0  0  0  0  0  0  0  0  0  0  0  0
    1.4427   -2.3952   -4.6696 N   0  0  0  0  0  0  0  0  0  0  0  0
    1.1856   -1.4391   -4.4989 H   0  0  0  0  0  0  0  0  0  0  0  0
    1.8391   -2.6597   -5.5526 H   0  0  0  0  0  0  0  0  0  0  0  0
    1.5916   -4.5070   -3.9767 N   0  0  0  0  0  0  0  0  0  0  0  0
    1.4617   -5.2212   -3.2810 H   0  0  0  0  0  0  0  0  0  0  0  0
    1.9860   -4.7506   -4.8665 H   0  0  0  0  0  0  0  0  0  0  0  0
   -1.6547    1.3413    1.4779 C   0  0  0  0  0  0  0  0  0  0  0  0
   -1.8574    2.2022    0.6300 O   0  0  0  0  0  0  0  0  0  0  0  0
   -1.5873    1.6036    2.7869 N   0  0  0  0  0  0  0  0  0  0  0  0
   -1.4535    0.8291    3.4163 H   0  0  0  0  0  0  0  0  0  0  0  0
   -1.7872    2.9326    3.3671 C   0  0  0  0  0  0  0  0  0  0  0  0
   -2.8097    3.2674    3.1795 H   0  0  0  0  0  0  0  0  0  0  0  0
   -1.6131    2.9074    4.4436 H   0  0  0  0  0  0  0  0  0  0  0  0
   -1.1008    3.6476    2.9083 H   0  0  0  0  0  0  0  0  0  0  0  0
  5  6  2  0  0  0  0
  5  7  1  0  0  0  0
  2  3  1  0  0  0  0
  2  4  1  0  0  0  0
  2  5  1  0  0  0  0
  1  2  1  0  0  0  0
 29 30  2  0  0  0  0
 29 31  1  0  0  0  0
 26 27  1  0  0  0  0
 26 28  1  0  0  0  0
 23 24  1  0  0  0  0
 23 25  1  0  0  0  0
 22 23  1  0  0  0  0
 22 26  1  0  0  0  0
 20 21  1  0  0  0  0
 20 22  2  0  0  0  0
 17 18  1  0  0  0  0
 17 19  1  0  0  0  0
 17 20  1  0  0  0  0
 14 15  1  0  0  0  0
 14 16  1  0  0  0  0
 14 17  1  0  0  0  0
 11 12  1  0  0  0  0
 11 13  1  0  0  0  0
 11 14  1  0  0  0  0
  9 10  1  0  0  0  0
  9 11  1  0  0  0  0
  9 29  1  0  0  0  0
  7  8  1  0  0  0  0
  7  9  1  0  0  0  0
 33 34  1  0  0  0  0
 33 35  1  0  0  0  0
 33 36  1  0  0  0  0
 31 32  1  0  0  0  0
 31 33  1  0  0  0  0
M  CHG  1  20   1
M  END
$$$$
default_name
  -OEChem-01062215323D

 36 35  0     1  0  0  0  0  0999 V2000
   -4.2256   -3.6731    1.8584 H   0  0  0  0  0  0  0  0  0  0  0  0
   -4.2396   -2.6781    1.4144 C   0  0  0  0  0  0  0  0  0  0  0  0
   -4.9506   -2.0521    1.9514 H   0  0  0  0  0  0  0  0  0  0  0  0
   -4.5266   -2.7521    0.3674 H   0  0  0  0  0  0  0  0  0  0  0  0
   -2.8576   -2.0761    1.5184 C   0  0  0  0  0  0  0  0  0  0  0  0
   -1.9456   -2.7051    2.0404 O   0  0  0  0  0  0  0  0  0  0  0  0
   -2.6926   -0.8481    1.0174 N   0  0  0  0  0  0  0  0  0  0  0  0
   -3.4926   -0.3971    0.5954 H   0  0  0  0  0  0  0  0  0  0  0  0
   -1.4216   -0.1071    1.0434 C   0  0  1  0  0  0  0  0  0  0  0  0
   -0.7579   -0.5878    1.7640 H   0  0  0  0  0  0  0  0  0  0  0  0
   -0.7791   -0.1912   -0.3557 C   0  0  0  0  0  0  0  0  0  0  0  0
   -1.5087    0.1456   -1.0949 H   0  0  0  0  0  0  0  0  0  0  0  0
    0.0794    0.4828   -0.3952 H   0  0  0  0  0  0  0  0  0  0  0  0
   -0.3258   -1.6082   -0.7361 C   0  0  0  0  0  0  0  0  0  0  0  0
    0.4140   -1.9642   -0.0177 H   0  0  0  0  0  0  0  0  0  0  0  0
   -1.1870   -2.2769   -0.7278 H   0  0  0  0  0  0  0  0  0  0  0  0
    0.2991   -1.5982   -2.1379 C   0  0  0  0  0  0  0  0  0  0  0  0
   -0.4394   -1.2154   -2.8461 H   0  0  0  0  0  0  0  0  0  0  0  0
    1.1608   -0.9266   -2.1296 H   0  0  0  0  0  0  0  0  0  0  0  0
    0.7293   -2.9483   -2.5561 N   0  3  0  0  0  0  0  0  0  0  0  0
    0.6140   -3.6875   -1.8841 H   0  0  0  0  0  0  0  0  0  0  0  0
    1.2497   -3.2749   -3.7272 C   0  0  0  0  0  0  0  0  0  0  0  0
    1.4427   -2.3952   -4.6696 N   0  0  0  0  0  0  0  0  0  0  0  0
    1.1856   -1.4391   -4.4989 H   0  0  0  0  0  0  0  0  0  0  0  0
    1.8391   -2.6597   -5.5526 H   0  0  0  0  0  0  0  0  0  0  0  0
    1.5916   -4.5070   -3.9767 N   0  0  0  0  0  0  0  0  0  0  0  0
    1.4617   -5.2212   -3.2810 H   0  0  0  0  0  0  0  0  0  0  0  0
    1.9860   -4.7506   -4.8665 H   0  0  0  0  0  0  0  0  0  0  0  0
   -1.6547    1.3413    1.4779 C   0  0  0  0  0  0  0  0  0  0  0  0
   -2.1246    2.1440    0.6805 O   0  0  0  0  0  0  0  0  0  0  0  0
   -1.2913    1.6709    2.7213 N   0  0  0  0  0  0  0  0  0  0  0  0
   -0.9480    0.9389    3.3215 H   0  0  0  0  0  0  0  0  0  0  0  0
   -1.4475    3.0097    3.2924 C   0  0  0  0  0  0  0  0  0  0  0  0
   -2.5078    3.2641    3.3526 H   0  0  0  0  0  0  0  0  0  0  0  0
   -1.0151    3.0488    4.2930 H   0  0  0  0  0  0  0  0  0  0  0  0
   -0.9517    3.7469    2.6571 H   0  0  0  0  0  0  0  0  0  0  0  0
  5  6  2  0  0  0  0
  5  7  1  0  0  0  0
  2  3  1  0  0  0  0
  2  4  1  0  0  0  0
  2  5  1  0  0  0  0
  1  2  1  0  0  0  0
 29 30  2  0  0  0  0
 29 31  1  0  0  0  0
 26 27  1  0  0  0  0
 26 28  1  0  0  0  0
 23 24  1  0  0  0  0
 23 25  1  0  0  0  0
 22 23  1  0  0  0  0
 22 26  1  0  0  0  0
 20 21  1  0  0  0  0
 20 22  2  0  0  0  0
 17 18  1  0  0  0  0
 17 19  1  0  0  0  0
 17 20  1  0  0  0  0
 14 15  1  0  0  0  0
 14 16  1  0  0  0  0
 14 17  1  0  0  0  0
 11 12  1  0  0  0  0
 11 13  1  0  0  0  0
 11 14  1  0  0  0  0
  9 10  1  0  0  0  0
  9 11  1  0  0  0  0
  9 29  1  0  0  0  0
  7  8  1  0  0  0  0
  7  9  1  0  0  0  0
 33 34  1  0  0  0  0
 33 35  1  0  0  0  0
 33 36  1  0  0  0  0
 31 32  1  0  0  0  0
 31 33  1  0  0  0  0
M  CHG  1  20   1
M  END
$$$$
default_name
  -OEChem-01062215323D

 36 35  0     1  0  0  0  0  0999 V2000
   -4.2256   -3.6731    1.8584 H   0  0  0  0  0  0  0  0  0  0  0  0
   -4.2396   -2.6781    1.4144 C   0  0  0  0  0  0  0  0  0  0  0  0
   -4.9506   -2.0521    1.9514 H   0  0  0  0  0  0  0  0  0  0  0  0
   -4.5266   -2.7521    0.3674 H   0  0  0  0  0  0  0  0  0  0  0  0
   -2.8576   -2.0761    1.5184 C   0  0  0  0  0  0  0  0  0  0  0  0
   -1.9456   -2.7051    2.0404 O   0  0  0  0  0  0  0  0  0  0  0  0
   -2.6926   -0.8481    1.0174 N   0  0  0  0  0  0  0  0  0  0  0  0
   -3.4926   -0.3971    0.5954 H   0  0  0  0  0  0  0  0  0  0  0  0
   -1.4216   -0.1071    1.0434 C   0  0  1  0  0  0  0  0  0  0  0  0
   -0.7579   -0.5878    1.7640 H   0  0  0  0  0  0  0  0  0  0  0  0
   -0.7791   -0.1912   -0.3557 C   0  0  0  0  0  0  0  0  0  0  0  0
   -1.5087    0.1456   -1.0949 H   0  0  0  0  0  0  0  0  0  0  0  0
    0.0794    0.4828   -0.3952 H   0  0  0  0  0  0  0  0  0  0  0  0
   -0.3258   -1.6082   -0.7361 C   0  0  0  0  0  0  0  0  0  0  0  0
    0.4140   -1.9642   -0.0177 H   0  0  0  0  0  0  0  0  0  0  0  0
   -1.1870   -2.2769   -0.7278 H   0  0  0  0  0  0  0  0  0  0  0  0
    0.2991   -1.5982   -2.1379 C   0  0  0  0  0  0  0  0  0  0  0  0
   -0.4394   -1.2154   -2.8461 H   0  0  0  0  0  0  0  0  0  0  0  0
    1.1608   -0.9266   -2.1296 H   0  0  0  0  0  0  0  0  0  0  0  0
    0.7293   -2.9483   -2.5561 N   0  3  0  0  0  0  0  0  0  0  0  0
    0.6140   -3.6875   -1.8841 H   0  0  0  0  0  0  0  0  0  0  0  0
    1.2497   -3.2749   -3.7272 C   0  0  0  0  0  0  0  0  0  0  0  0
    1.4427   -2.3952   -4.6696 N   0  0  0  0  0  0  0  0  0  0  0  0
    1.1856   -1.4391   -4.4989 H   0  0  0  0  0  0  0  0  0  0  0  0
    1.8391   -2.6597   -5.5526 H   0  0  0  0  0  0  0  0  0  0  0  0
    1.5916   -4.5070   -3.9767 N   0  0  0  0  0  0  0  0  0  0  0  0
    1.4617   -5.2212   -3.2810 H   0  0  0  0  0  0  0  0  0  0  0  0
    1.9860   -4.7506   -4.8665 H   0  0  0  0  0  0  0  0  0  0  0  0
   -1.6547    1.3413    1.4779 C   0  0  0  0  0  0  0  0  0  0  0  0
   -2.3661    2.0702    0.7970 O   0  0  0  0  0  0  0  0  0  0  0  0
   -1.0264    1.7551    2.5828 N   0  0  0  0  0  0  0  0  0  0  0  0
   -0.4910    1.0784    3.1017 H   0  0  0  0  0  0  0  0  0  0  0  0
   -1.1433    3.1062    3.1339 C   0  0  0  0  0  0  0  0  0  0  0  0
   -2.1737    3.2899    3.4459 H   0  0  0  0  0  0  0  0  0  0  0  0
   -0.4847    3.2235    3.9954 H   0  0  0  0  0  0  0  0  0  0  0  0
   -0.8765    3.8439    2.3741 H   0  0  0  0  0  0  0  0  0  0  0  0
  5  6  2  0  0  0  0
  5  7  1  0  0  0  0
  2  3  1  0  0  0  0
  2  4  1  0  0  0  0
  2  5  1  0  0  0  0
  1  2  1  0  0  0  0
 29 30  2  0  0  0  0
 29 31  1  0  0  0  0
 26 27  1  0  0  0  0
 26 28  1  0  0  0  0
 23 24  1  0  0  0  0
 23 25  1  0  0  0  0
 22 23  1  0  0  0  0
 22 26  1  0  0  0  0
 20 21  1  0  0  0  0
 20 22  2  0  0  0  0
 17 18  1  0  0  0  0
 17 19  1  0  0  0  0
 17 20  1  0  0  0  0
 14 15  1  0  0  0  0
 14 16  1  0  0  0  0
 14 17  1  0  0  0  0
 11 12  1  0  0  0  0
 11 13  1  0  0  0  0
 11 14  1  0  0  0  0
  9 10  1  0  0  0  0
  9 11  1  0  0  0  0
  9 29  1  0  0  0  0
  7  8  1  0  0  0  0
  7  9  1  0  0  0  0
 33 34  1  0  0  0  0
 33 35  1  0  0  0  0
 33 36  1  0  0  0  0
 31 32  1  0  0  0  0
 31 33  1  0  0  0  0
M  CHG  1  20   1
M  END
$$$$
default_name
  -OEChem-01062215323D

 36 35  0     1  0  0  0  0  0999 V2000
   -4.2256   -3.6731    1.8584 H   0  0  0  0  0  0  0  0  0  0  0  0
   -4.2396   -2.6781    1.4144 C   0  0  0  0  0  0  0  0  0  0  0  0
   -4.9506   -2.0521    1.9514 H   0  0  0  0  0  0  0  0  0  0  0  0
   -4.5266   -2.7521    0.3674 H   0  0  0  0  0  0  0  0  0  0  0  0
   -2.8576   -2.0761    1.5184 C   0  0  0  0  0  0  0  0  0  0  0  0
   -1.9456   -2.7051    2.0404 O   0  0  0  0  0  0  0  0  0  0  0  0
   -2.6926   -0.8481    1.0174 N   0  0  0  0  0  0  0  0  0  0  0  0
   -3.4926   -0.3971    0.5954 H   0  0  0  0  0  0  0  0  0  0  0  0
   -1.4216   -0.1071    1.0434 C   0  0  1  0  0  0  0  0  0  0  0  0
   -0.7579   -0.5878    1.7640 H   0  0  0  0  0  0  0  0  0  0  0  0
   -0.7791   -0.1912   -0.3557 C   0  0  0  0  0  0  0  0  0  0  0  0
   -1.5087    0.1456   -1.0949 H   0  0  0  0  0  0  0  0  0  0  0  0
    0.0794    0.4828   -0.3952 H   0  0  0  0  0  0  0  0  0  0  0  0
   -0.3258   -1.6082   -0.7361 C   0  0  0  0  0  0  0  0  0  0  0  0
    0.4140   -1.9642   -0.0177 H   0  0  0  0  0  0  0  0  0  0  0  0
   -1.1870   -2.2769   -0.7278 H   0  0  0  0  0  0  0  0  0  0  0  0
    0.2991   -1.5982   -2.1379 C   0  0  0  0  0  0  0  0  0  0  0  0
   -0.4394   -1.2154   -2.8461 H   0  0  0  0  0  0  0  0  0  0  0  0
    1.1608   -0.9266   -2.1296 H   0  0  0  0  0  0  0  0  0  0  0  0
    0.7293   -2.9483   -2.5561 N   0  3  0  0  0  0  0  0  0  0  0  0
    0.6140   -3.6875   -1.8841 H   0  0  0  0  0  0  0  0  0  0  0  0
    1.2497   -3.2749   -3.7272 C   0  0  0  0  0  0  0  0  0  0  0  0
    1.4427   -2.3952   -4.6696 N   0  0  0  0  0  0  0  0  0  0  0  0
    1.1856   -1.4391   -4.4989 H   0  0  0  0  0  0  0  0  0  0  0  0
    1.8391   -2.6597   -5.5526 H   0  0  0  0  0  0  0  0  0  0  0  0
    1.5916   -4.5070   -3.9767 N   0  0  0  0  0  0  0  0  0  0  0  0
    1.4617   -5.2212   -3.2810 H   0  0  0  0  0  0  0  0  0  0  0  0
    1.9860   -4.7506   -4.8665 H   0  0  0  0  0  0  0  0  0  0  0  0
   -1.6547    1.3413    1.4779 C   0  0  0  0  0  0  0  0  0  0  0  0
   -2.5654    1.9858    0.9716 O   0  0  0  0  0  0  0  0  0  0  0  0
   -0.8107    1.8504    2.3808 N   0  0  0  0  0  0  0  0  0  0  0  0
   -0.1136    1.2381    2.7719 H   0  0  0  0  0  0  0  0  0  0  0  0
   -0.8954    3.2155    2.9026 C   0  0  0  0  0  0  0  0  0  0  0  0
   -1.8299    3.3430    3.4532 H   0  0  0  0  0  0  0  0  0  0  0  0
   -0.0581    3.4194    3.5712 H   0  0  0  0  0  0  0  0  0  0  0  0
   -0.8804    3.9320    2.0784 H   0  0  0  0  0  0  0  0  0  0  0  0
  5  6  2  0  0  0  0
  5  7  1  0  0  0  0
  2  3  1  0  0  0  0
  2  4  1  0  0  0  0
  2  5  1  0  0  0  0
  1  2  1  0  0  0  0
 29 30  2  0  0  0  0
 29 31  1  0  0  0  0
 26 27  1  0  0  0  0
 26 28  1  0  0  0  0
 23 24  1  0  0  0  0
 23 25  1  0  0  0  0
 22 23  1  0  0  0  0
 22 26  1  0  0  0  0
 20 21  1  0  0  0  0
 20 22  2  0  0  0  0
 17 18  1  0  0  0  0
 17 19  1  0  0  0  0
 17 20  1  0  0  0  0
 14 15  1  0  0  0  0
 14 16  1  0  0  0  0
 14 17  1  0  0  0  0
 11 12  1  0  0  0  0
 11 13  1  0  0  0  0
 11 14  1  0  0  0  0
  9 10  1  0  0  0  0
  9 11  1  0  0  0  0
  9 29  1  0  0  0  0
  7  8  1  0  0  0  0
  7  9  1  0  0  0  0
 33 34  1  0  0  0  0
 33 35  1  0  0  0  0
 33 36  1  0  0  0  0
 31 32  1  0  0  0  0
 31 33  1  0  0  0  0
M  CHG  1  20   1
M  END
$$$$
default_name
  -OEChem-01062215323D

 36 35  0     1  0  0  0  0  0999 V2000
   -4.2256   -3.6731    1.8584 H   0  0  0  0  0  0  0  0  0  0  0  0
   -4.2396   -2.6781    1.4144 C   0  0  0  0  0  0  0  0  0  0  0  0
   -4.9506   -2.0521    1.9514 H   0  0  0  0  0  0  0  0  0  0  0  0
   -4.5266   -2.7521    0.3674 H   0  0  0  0  0  0  0  0  0  0  0  0
   -2.8576   -2.0761    1.5184 C   0  0  0  0  0  0  0  0  0  0  0  0
   -1.9456   -2.7051    2.0404 O   0  0  0  0  0  0  0  0  0  0  0  0
   -2.6926   -0.8481    1.0174 N   0  0  0  0  0  0  0  0  0  0  0  0
   -3.4926   -0.3971    0.5954 H   0  0  0  0  0  0  0  0  0  0  0  0
   -1.4216   -0.1071    1.0434 C   0  0  1  0  0  0  0  0  0  0  0  0
   -0.7579   -0.5878    1.7640 H   0  0  0  0  0  0  0  0  0  0  0  0
   -0.7791   -0.1912   -0.3557 C   0  0  0  0  0  0  0  0  0  0  0  0
   -1.5087    0.1456   -1.0949 H   0  0  0  0  0  0  0  0  0  0  0  0
    0.0794    0.4828   -0.3952 H   0  0  0  0  0  0  0  0  0  0  0  0
   -0.3258   -1.6082   -0.7361 C   0  0  0  0  0  0  0  0  0  0  0  0
    0.4140   -1.9642   -0.0177 H   0  0  0  0  0  0  0  0  0  0  0  0
   -1.1870   -2.2769   -0.7278 H   0  0  0  0  0  0  0  0  0  0  0  0
    0.2991   -1.5982   -2.1379 C   0  0  0  0  0  0  0  0  0  0  0  0
   -0.4394   -1.2154   -2.8461 H   0  0  0  0  0  0  0  0  0  0  0  0
    1.1608   -0.9266   -2.1296 H   0  0  0  0  0  0  0  0  0  0  0  0
    0.7293   -2.9483   -2.5561 N   0  3  0  0  0  0  0  0  0  0  0  0
    0.6140   -3.6875   -1.8841 H   0  0  0  0  0  0  0  0  0  0  0  0
    1.2497   -3.2749   -3.7272 C   0  0  0  0  0  0  0  0  0  0  0  0
    1.4427   -2.3952   -4.6696 N   0  0  0  0  0  0  0  0  0  0  0  0
    1.1856   -1.4391   -4.4989 H   0  0  0  0  0  0  0  0  0  0  0  0
    1.8391   -2.6597   -5.5526 H   0  0  0  0  0  0  0  0  0  0  0  0
    1.5916   -4.5070   -3.9767 N   0  0  0  0  0  0  0  0  0  0  0  0
    1.4617   -5.2212   -3.2810 H   0  0  0  0  0  0  0  0  0  0  0  0
    1.9860   -4.7506   -4.8665 H   0  0  0  0  0  0  0  0  0  0  0  0
   -1.6547    1.3413    1.4779 C   0  0  0  0  0  0  0  0  0  0  0  0
   -2.7090    1.8964    1.1924 O   0  0  0  0  0  0  0  0  0  0  0  0
   -0.6588    1.9504    2.1291 N   0  0  0  0  0  0  0  0  0  0  0  0
    0.1583    1.4070    2.3547 H   0  0  0  0  0  0  0  0  0  0  0  0
   -0.7207    3.3301    2.6140 C   0  0  0  0  0  0  0  0  0  0  0  0
   -1.5000    3.4199    3.3739 H   0  0  0  0  0  0  0  0  0  0  0  0
    0.2356    3.6233    3.0491 H   0  0  0  0  0  0  0  0  0  0  0  0
   -0.9631    4.0051    1.7903 H   0  0  0  0  0  0  0  0  0  0  0  0
  5  6  2  0  0  0  0
  5  7  1  0  0  0  0
  2  3  1  0  0  0  0
  2  4  1  0  0  0  0
  2  5  1  0  0  0  0
  1  2  1  0  0  0  0
 29 30  2  0  0  0  0
 29 31  1  0  0  0  0
 26 27  1  0  0  0  0
 26 28  1  0  0  0  0
 23 24  1  0  0  0  0
 23 25  1  0  0  0  0
 22 23  1  0  0  0  0
 22 26  1  0  0  0  0
 20 21  1  0  0  0  0
 20 22  2  0  0  0  0
 17 18  1  0  0  0  0
 17 19  1  0  0  0  0
 17 20  1  0  0  0  0
 14 15  1  0  0  0  0
 14 16  1  0  0  0  0
 14 17  1  0  0  0  0
 11 12  1  0  0  0  0
 11 13  1  0  0  0  0
 11 14  1  0  0  0  0
  9 10  1  0  0  0  0
  9 11  1  0  0  0  0
  9 29  1  0  0  0  0
  7  8  1  0  0  0  0
  7  9  1  0  0  0  0
 33 34  1  0  0  0  0
 33 35  1  0  0  0  0
 33 36  1  0  0  0  0
 31 32  1  0  0  0  0
 31 33  1  0  0  0  0
M  CHG  1  20   1
M  END
$$$$
default_name
  -OEChem-01062215323D

 36 35  0     1  0  0  0  0  0999 V2000
   -4.2256   -3.6731    1.8584 H   0  0  0  0  0  0  0  0  0  0  0  0
   -4.2396   -2.6781    1.4144 C   0  0  0  0  0  0  0  0  0  0  0  0
   -4.9506   -2.0521    1.9514 H   0  0  0  0  0  0  0  0  0  0  0  0
   -4.5266   -2.7521    0.3674 H   0  0  0  0  0  0  0  0  0  0  0  0
   -2.8576   -2.0761    1.5184 C   0  0  0  0  0  0  0  0  0  0  0  0
   -1.9456   -2.7051    2.0404 O   0  0  0  0  0  0  0  0  0  0  0  0
   -2.6926   -0.8481    1.0174 N   0  0  0  0  0  0  0  0  0  0  0  0
   -3.4926   -0.3971    0.5954 H   0  0  0  0  0  0  0  0  0  0  0  0
   -1.4216   -0.1071    1.0434 C   0  0  1  0  0  0  0  0  0  0  0  0
   -0.7579   -0.5878    1.7640 H   0  0  0  0  0  0  0  0  0  0  0  0
   -0.7791   -0.1912   -0.3557 C   0  0  0  0  0  0  0  0  0  0  0  0
   -1.5087    0.1456   -1.0949 H   0  0  0  0  0  0  0  0  0  0  0  0
    0.0794    0.4828   -0.3952 H   0  0  0  0  0  0  0  0  0  0  0  0
   -0.3258   -1.6082   -0.7361 C   0  0  0  0  0  0  0  0  0  0  0  0
    0.4140   -1.9642   -0.0177 H   0  0  0  0  0  0  0  0  0  0  0  0
   -1.1870   -2.2769   -0.7278 H   0  0  0  0  0  0  0  0  0  0  0  0
    0.2991   -1.5982   -2.1379 C   0  0  0  0  0  0  0  0  0  0  0  0
   -0.4394   -1.2154   -2.8461 H   0  0  0  0  0  0  0  0  0  0  0  0
    1.1608   -0.9266   -2.1296 H   0  0  0  0  0  0  0  0  0  0  0  0
    0.7293   -2.9483   -2.5561 N   0  3  0  0  0  0  0  0  0  0  0  0
    0.6140   -3.6875   -1.8841 H   0  0  0  0  0  0  0  0  0  0  0  0
    1.2497   -3.2749   -3.7272 C   0  0  0  0  0  0  0  0  0  0  0  0
    1.4427   -2.3952   -4.6696 N   0  0  0  0  0  0  0  0  0  0  0  0
    1.1856   -1.4391   -4.4989 H   0  0  0  0  0  0  0  0  0  0  0  0
    1.8391   -2.6597   -5.5526 H   0  0  0  0  0  0  0  0  0  0  0  0
    1.5916   -4.5070   -3.9767 N   0  0  0  0  0  0  0  0  0  0  0  0
    1.4617   -5.2212   -3.2810 H   0  0  0  0  0  0  0  0  0  0  0  0
    1.9860   -4.7506   -4.8665 H   0  0  0  0  0  0  0  0  0  0  0  0
   -1.6547    1.3413    1.4779 C   0  0  0  0  0  0  0  0  0  0  0  0
   -2.7869    1.8083    1.4444 O   0  0  0  0  0  0  0  0  0  0  0  0
   -0.5812    2.0481    1.8448 N   0  0  0  0  0  0  0  0  0  0  0  0
    0.3063    1.5737    1.8783 H   0  0  0  0  0  0  0  0  0  0  0  0
   -0.6311    3.4424    2.2880 C   0  0  0  0  0  0  0  0  0  0  0  0
   -1.2064    3.5153    3.2134 H   0  0  0  0  0  0  0  0  0  0  0  0
    0.3764    3.8212    2.4649 H   0  0  0  0  0  0  0  0  0  0  0  0
   -1.1189    4.0583    1.5294 H   0  0  0  0  0  0  0  0  0  0  0  0
  5  6  2  0  0  0  0
  5  7  1  0  0  0  0
  2  3  1  0  0  0  0
  2  4  1  0  0  0  0
  2  5  1  0  0  0  0
  1  2  1  0  0  0  0
 29 30  2  0  0  0  0
 29 31  1  0  0  0  0
 26 27  1  0  0  0  0
 26 28  1  0  0  0  0
 23 24  1  0  0  0  0
 23 25  1  0  0  0  0
 22 23  1  0  0  0  0
 22 26  1  0  0  0  0
 20 21  1  0  0  0  0
 20 22  2  0  0  0  0
 17 18  1  0  0  0  0
 17 19  1  0  0  0  0
 17 20  1  0  0  0  0
 14 15  1  0  0  0  0
 14 16  1  0  0  0  0
 14 17  1  0  0  0  0
 11 12  1  0  0  0  0
 11 13  1  0  0  0  0
 11 14  1  0  0  0  0
  9 10  1  0  0  0  0
  9 11  1  0  0  0  0
  9 29  1  0  0  0  0
  7  8  1  0  0  0  0
  7  9  1  0  0  0  0
 33 34  1  0  0  0  0
 33 35  1  0  0  0  0
 33 36  1  0  0  0  0
 31 32  1  0  0  0  0
 31 33  1  0  0  0  0
M  CHG  1  20   1
M  END
$$$$
default_name
  -OEChem-01062215323D

 36 35  0     1  0  0  0  0  0999 V2000
   -4.2256   -3.6731    1.8584 H   0  0  0  0  0  0  0  0  0  0  0  0
   -4.2396   -2.6781    1.4144 C   0  0  0  0  0  0  0  0  0  0  0  0
   -4.9506   -2.0521    1.9514 H   0  0  0  0  0  0  0  0  0  0  0  0
   -4.5266   -2.7521    0.3674 H   0  0  0  0  0  0  0  0  0  0  0  0
   -2.8576   -2.0761    1.5184 C   0  0  0  0  0  0  0  0  0  0  0  0
   -1.9456   -2.7051    2.0404 O   0  0  0  0  0  0  0  0  0  0  0  0
   -2.6926   -0.8481    1.0174 N   0  0  0  0  0  0  0  0  0  0  0  0
   -3.4926   -0.3971    0.5954 H   0  0  0  0  0  0  0  0  0  0  0  0
   -1.4216   -0.1071    1.0434 C   0  0  1  0  0  0  0  0  0  0  0  0
   -0.6742   -0.7236    1.5457 H   0  0  0  0  0  0  0  0  0  0  0  0
   -0.9686    0.1358   -0.4102 C   0  0  0  0  0  0  0  0  0  0  0  0
   -1.7852    0.6149   -0.9541 H   0  0  0  0  0  0  0  0  0  0  0  0
   -0.1157    0.8181   -0.4090 H   0  0  0  0  0  0  0  0  0  0  0  0
   -0.5835   -1.1514   -1.1538 C   0  0  0  0  0  0  0  0  0  0  0  0
    0.2402   -1.6444   -0.6356 H   0  0  0  0  0  0  0  0  0  0  0  0
   -1.4431   -1.8218   -1.1836 H   0  0  0  0  0  0  0  0  0  0  0  0
   -0.1474   -0.8166   -2.5867 C   0  0  0  0  0  0  0  0  0  0  0  0
   -0.9682   -0.2998   -3.0892 H   0  0  0  0  0  0  0  0  0  0  0  0
    0.7148   -0.1472   -2.5402 H   0  0  0  0  0  0  0  0  0  0  0  0
    0.2106   -2.0307   -3.3487 N   0  3  0  0  0  0  0  0  0  0  0  0
    0.1766   -2.9033   -2.8501 H   0  0  0  0  0  0  0  0  0  0  0  0
    0.5699   -2.0775   -4.6206 C   0  0  0  0  0  0  0  0  0  0  0  0
    0.6469   -1.0060   -5.3590 N   0  0  0  0  0  0  0  0  0  0  0  0
    0.4241   -0.1173   -4.9467 H   0  0  0  0  0  0  0  0  0  0  0  0
    0.9216   -1.0590   -6.3227 H   0  0  0  0  0  0  0  0  0  0  0  0
    0.8635   -3.2159   -5.1819 N   0  0  0  0  0  0  0  0  0  0  0  0
    0.8185   -4.0698   -4.6528 H   0  0  0  0  0  0  0  0  0  0  0  0
    1.1356   -3.2469   -6.1471 H   0  0  0  0  0  0  0  0  0  0  0  0
   -1.5810    1.2029    1.8176 C   0  0  0  0  0  0  0  0  0  0  0  0
   -2.6761    1.5052    2.2765 O   0  0  0  0  0  0  0  0  0  0  0  0
   -0.5013    1.9838    1.9236 N   0  0  0  0  0  0  0  0  0  0  0  0
    0.3675    1.6399    1.5485 H   0  0  0  0  0  0  0  0  0  0  0  0
   -0.4838    3.2653    2.6309 C   0  0  0  0  0  0  0  0  0  0  0  0
   -0.6811    3.1037    3.6929 H   0  0  0  0  0  0  0  0  0  0  0  0
    0.4880    3.7478    2.5192 H   0  0  0  0  0  0  0  0  0  0  0  0
   -1.2597    3.9226    2.2324 H   0  0  0  0  0  0  0  0  0  0  0  0
  5  6  2  0  0  0  0
  5  7  1  0  0  0  0
  2  3  1  0  0  0  0
  2  4  1  0  0  0  0
  2  5  1  0  0  0  0
  1  2  1  0  0  0  0
 29 30  2  0  0  0  0
 29 31  1  0  0  0  0
 26 27  1  0  0  0  0
 26 28  1  0  0  0  0
 23 24  1  0  0  0  0
 23 25  1  0  0  0  0
 22 23  1  0  0  0  0
 22 26  1  0  0  0  0
 20 21  1  0  0  0  0
 20 22  2  0  0  0  0
 17 18  1  0  0  0  0
 17 19  1  0  0  0  0
 17 20  1  0  0  0  0
 14 15  1  0  0  0  0
 14 16  1  0  0  0  0
 14 17  1  0  0  0  0
 11 12  1  0  0  0  0
 11 13  1  0  0  0  0
 11 14  1  0  0  0  0
  9 10  1  0  0  0  0
  9 11  1  0  0  0  0
  9 29  1  0  0  0  0
  7  8  1  0  0  0  0
  7  9  1  0  0  0  0
 33 34  1  0  0  0  0
 33 35  1  0  0  0  0
 33 36  1  0  0  0  0
 31 32  1  0  0  0  0
 31 33  1  0  0  0  0
M  CHG  1  20   1
M  END
$$$$
default_name
  -OEChem-01062215323D

 36 35  0     1  0  0  0  0  0999 V2000
   -4.2256   -3.6731    1.8584 H   0  0  0  0  0  0  0  0  0  0  0  0
   -4.2396   -2.6781    1.4144 C   0  0  0  0  0  0  0  0  0  0  0  0
   -4.9506   -2.0521    1.9514 H   0  0  0  0  0  0  0  0  0  0  0  0
   -4.5266   -2.7521    0.3674 H   0  0  0  0  0  0  0  0  0  0  0  0
   -2.8576   -2.0761    1.5184 C   0  0  0  0  0  0  0  0  0  0  0  0
   -1.9456   -2.7051    2.0404 O   0  0  0  0  0  0  0  0  0  0  0  0
   -2.6926   -0.8481    1.0174 N   0  0  0  0  0  0  0  0  0  0  0  0
   -3.4926   -0.3971    0.5954 H   0  0  0  0  0  0  0  0  0  0  0  0
   -1.4216   -0.1071    1.0434 C   0  0  1  0  0  0  0  0  0  0  0  0
   -0.6742   -0.7236    1.5457 H   0  0  0  0  0  0  0  0  0  0  0  0
   -0.9686    0.1358   -0.4102 C   0  0  0  0  0  0  0  0  0  0  0  0
   -1.7852    0.6149   -0.9541 H   0  0  0  0  0  0  0  0  0  0  0  0
   -0.1157    0.8181   -0.4090 H   0  0  0  0  0  0  0  0  0  0  0  0
   -0.5835   -1.1514   -1.1538 C   0  0  0  0  0  0  0  0  0  0  0  0
    0.2402   -1.6444   -0.6356 H   0  0  0  0  0  0  0  0  0  0  0  0
   -1.4431   -1.8218   -1.1836 H   0  0  0  0  0  0  0  0  0  0  0  0
   -0.1474   -0.8166   -2.5867 C   0  0  0  0  0  0  0  0  0  0  0  0
   -0.9682   -0.2998   -3.0892 H   0  0  0  0  0  0  0  0  0  0  0  0
    0.7148   -0.1472   -2.5402 H   0  0  0  0  0  0  0  0  0  0  0  0
    0.2106   -2.0307   -3.3487 N   0  3  0  0  0  0  0  0  0  0  0  0
    0.1766   -2.9033   -2.8501 H   0  0  0  0  0  0  0  0  0  0  0  0
    0.5699   -2.0775   -4.6206 C   0  0  0  0  0  0  0  0  0  0  0  0
    0.6469   -1.0060   -5.3590 N   0  0  0  0  0  0  0  0  0  0  0  0
    0.4241   -0.1173   -4.9467 H   0  0  0  0  0  0  0  0  0  0  0  0
    0.9216   -1.0590   -6.3227 H   0  0  0  0  0  0  0  0  0  0  0  0
    0.8635   -3.2159   -5.1819 N   0  0  0  0  0  0  0  0  0  0  0  0
    0.8185   -4.0698   -4.6528 H   0  0  0  0  0  0  0  0  0  0  0  0
    1.1356   -3.2469   -6.1471 H   0  0  0  0  0  0  0  0  0  0  0  0
   -1.5810    1.2029    1.8176 C   0  0  0  0  0  0  0  0  0  0  0  0
   -2.5788    1.3815    2.5058 O   0  0  0  0  0  0  0  0  0  0  0  0
   -0.6190    2.1192    1.6702 N   0  0  0  0  0  0  0  0  0  0  0  0
    0.1841    1.8739    1.1147 H   0  0  0  0  0  0  0  0  0  0  0  0
   -0.6184    3.4208    2.3400 C   0  0  0  0  0  0  0  0  0  0  0  0
   -0.5539    3.2798    3.4211 H   0  0  0  0  0  0  0  0  0  0  0  0
    0.2315    4.0186    2.0081 H   0  0  0  0  0  0  0  0  0  0  0  0
   -1.5438    3.9563    2.1169 H   0  0  0  0  0  0  0  0  0  0  0  0
  5  6  2  0  0  0  0
  5  7  1  0  0  0  0
  2  3  1  0  0  0  0
  2  4  1  0  0  0  0
  2  5  1  0  0  0  0
  1  2  1  0  0  0  0
 29 30  2  0  0  0  0
 29 31  1  0  0  0  0
 26 27  1  0  0  0  0
 26 28  1  0  0  0  0
 23 24  1  0  0  0  0
 23 25  1  0  0  0  0
 22 23  1  0  0  0  0
 22 26  1  0  0  0  0
 20 21  1  0  0  0  0
 20 22  2  0  0  0  0
 17 18  1  0  0  0  0
 17 19  1  0  0  0  0
 17 20  1  0  0  0  0
 14 15  1  0  0  0  0
 14 16  1  0  0  0  0
 14 17  1  0  0  0  0
 11 12  1  0  0  0  0
 11 13  1  0  0  0  0
 11 14  1  0  0  0  0
  9 10  1  0  0  0  0
  9 11  1  0  0  0  0
  9 29  1  0  0  0  0
  7  8  1  0  0  0  0
  7  9  1  0  0  0  0
 33 34  1  0  0  0  0
 33 35  1  0  0  0  0
 33 36  1  0  0  0  0
 31 32  1  0  0  0  0
 31 33  1  0  0  0  0
M  CHG  1  20   1
M  END
$$$$
default_name
  -OEChem-01062215323D

 36 35  0     1  0  0  0  0  0999 V2000
   -4.2256   -3.6731    1.8584 H   0  0  0  0  0  0  0  0  0  0  0  0
   -4.2396   -2.6781    1.4144 C   0  0  0  0  0  0  0  0  0  0  0  0
   -4.9506   -2.0521    1.9514 H   0  0  0  0  0  0  0  0  0  0  0  0
   -4.5266   -2.7521    0.3674 H   0  0  0  0  0  0  0  0  0  0  0  0
   -2.8576   -2.0761    1.5184 C   0  0  0  0  0  0  0  0  0  0  0  0
   -1.9456   -2.7051    2.0404 O   0  0  0  0  0  0  0  0  0  0  0  0
   -2.6926   -0.8481    1.0174 N   0  0  0  0  0  0  0  0  0  0  0  0
   -3.4926   -0.3971    0.5954 H   0  0  0  0  0  0  0  0  0  0  0  0
   -1.4216   -0.1071    1.0434 C   0  0  1  0  0  0  0  0  0  0  0  0
   -0.6742   -0.7236    1.5457 H   0  0  0  0  0  0  0  0  0  0  0  0
   -0.9686    0.1358   -0.4102 C   0  0  0  0  0  0  0  0  0  0  0  0
   -1.7852    0.6149   -0.9541 H   0  0  0  0  0  0  0  0  0  0  0  0
   -0.1157    0.8181   -0.4090 H   0  0  0  0  0  0  0  0  0  0  0  0
   -0.5835   -1.1514   -1.1538 C   0  0  0  0  0  0  0  0  0  0  0  0
    0.2402   -1.6444   -0.6356 H   0  0  0  0  0  0  0  0  0  0  0  0
   -1.4431   -1.8218   -1.1836 H   0  0  0  0  0  0  0  0  0  0  0  0
   -0.1474   -0.8166   -2.5867 C   0  0  0  0  0  0  0  0  0  0  0  0
   -0.9682   -0.2998   -3.0892 H   0  0  0  0  0  0  0  0  0  0  0  0
    0.7148   -0.1472   -2.5402 H   0  0  0  0  0  0  0  0  0  0  0  0
    0.2106   -2.0307   -3.3487 N   0  3  0  0  0  0  0  0  0  0  0  0
    0.1766   -2.9033   -2.8501 H   0  0  0  0  0  0  0  0  0  0  0  0
    0.5699   -2.0775   -4.6206 C   0  0  0  0  0  0  0  0  0  0  0  0
    0.6469   -1.0060   -5.3590 N   0  0  0  0  0  0  0  0  0  0  0  0
    0.4241   -0.1173   -4.9467 H   0  0  0  0  0  0  0  0  0  0  0  0
    0.9216   -1.0590   -6.3227 H   0  0  0  0  0  0  0  0  0  0  0  0
    0.8635   -3.2159   -5.1819 N   0  0  0  0  0  0  0  0  0  0  0  0
    0.8185   -4.0698   -4.6528 H   0  0  0  0  0  0  0  0  0  0  0  0
    1.1356   -3.2469   -6.1471 H   0  0  0  0  0  0  0  0  0  0  0  0
   -1.5810    1.2029    1.8176 C   0  0  0  0  0  0  0  0  0  0  0  0
   -2.4178    1.2810    2.7091 O   0  0  0  0  0  0  0  0  0  0  0  0
   -0.8067    2.2278    1.4478 N   0  0  0  0  0  0  0  0  0  0  0  0
   -0.1198    2.0643    0.7300 H   0  0  0  0  0  0  0  0  0  0  0  0
   -0.8332    3.5456    2.0846 C   0  0  0  0  0  0  0  0  0  0  0  0
   -0.5144    3.4592    3.1256 H   0  0  0  0  0  0  0  0  0  0  0  0
   -0.1650    4.2328    1.5640 H   0  0  0  0  0  0  0  0  0  0  0  0
   -1.8482    3.9485    2.0673 H   0  0  0  0  0  0  0  0  0  0  0  0
  5  6  2  0  0  0  0
  5  7  1  0  0  0  0
  2  3  1  0  0  0  0
  2  4  1  0  0  0  0
  2  5  1  0  0  0  0
  1  2  1  0  0  0  0
 29 30  2  0  0  0  0
 29 31  1  0  0  0  0
 26 27  1  0  0  0  0
 26 28  1  0  0  0  0
 23 24  1  0  0  0  0
 23 25  1  0  0  0  0
 22 23  1  0  0  0  0
 22 26  1  0  0  0  0
 20 21  1  0  0  0  0
 20 22  2  0  0  0  0
 17 18  1  0  0  0  0
 17 19  1  0  0  0  0
 17 20  1  0  0  0  0
 14 15  1  0  0  0  0
 14 16  1  0  0  0  0
 14 17  1  0  0  0  0
 11 12  1  0  0  0  0
 11 13  1  0  0  0  0
 11 14  1  0  0  0  0
  9 10  1  0  0  0  0
  9 11  1  0  0  0  0
  9 29  1  0  0  0  0
  7  8  1  0  0  0  0
  7  9  1  0  0  0  0
 33 34  1  0  0  0  0
 33 35  1  0  0  0  0
 33 36  1  0  0  0  0
 31 32  1  0  0  0  0
 31 33  1  0  0  0  0
M  CHG  1  20   1
M  END
$$$$
default_name
  -OEChem-01062215323D

 36 35  0     1  0  0  0  0  0999 V2000
   -4.2256   -3.6731    1.8584 H   0  0  0  0  0  0  0  0  0  0  0  0
   -4.2396   -2.6781    1.4144 C   0  0  0  0  0  0  0  0  0  0  0  0
   -4.9506   -2.0521    1.9514 H   0  0  0  0  0  0  0  0  0  0  0  0
   -4.5266   -2.7521    0.3674 H   0  0  0  0  0  0  0  0  0  0  0  0
   -2.8576   -2.0761    1.5184 C   0  0  0  0  0  0  0  0  0  0  0  0
   -1.9456   -2.7051    2.0404 O   0  0  0  0  0  0  0  0  0  0  0  0
   -2.6926   -0.8481    1.0174 N   0  0  0  0  0  0  0  0  0  0  0  0
   -3.4926   -0.3971    0.5954 H   0  0  0  0  0  0  0  0  0  0  0  0
   -1.4216   -0.1071    1.0434 C   0  0  1  0  0  0  0  0  0  0  0  0
   -0.6742   -0.7236    1.5457 H   0  0  0  0  0  0  0  0  0  0  0  0
   -0.9686    0.1358   -0.4102 C   0  0  0  0  0  0  0  0  0  0  0  0
   -1.7852    0.6149   -0.9541 H   0  0  0  0  0  0  0  0  0  0  0  0
   -0.1157    0.8181   -0.4090 H   0  0  0  0  0  0  0  0  0  0  0  0
   -0.5835   -1.1514   -1.1538 C   0  0  0  0  0  0  0  0  0  0  0  0
    0.2402   -1.6444   -0.6356 H   0  0  0  0  0  0  0  0  0  0  0  0
   -1.4431   -1.8218   -1.1836 H   0  0  0  0  0  0  0  0  0  0  0  0
   -0.1474   -0.8166   -2.5867 C   0  0  0  0  0  0  0  0  0  0  0  0
   -0.9682   -0.2998   -3.0892 H   0  0  0  0  0  0  0  0  0  0  0  0
    0.7148   -0.1472   -2.5402 H   0  0  0  0  0  0  0  0  0  0  0  0
    0.2106   -2.0307   -3.3487 N   0  3  0  0  0  0  0  0  0  0  0  0
    0.1766   -2.9033   -2.8501 H   0  0  0  0  0  0  0  0  0  0  0  0
    0.5699   -2.0775   -4.6206 C   0  0  0  0  0  0  0  0  0  0  0  0
    0.6469   -1.0060   -5.3590 N   0  0  0  0  0  0  0  0  0  0  0  0
    0.4241   -0.1173   -4.9467 H   0  0  0  0  0  0  0  0  0  0  0  0
    0.9216   -1.0590   -6.3227 H   0  0  0  0  0  0  0  0  0  0  0  0
    0.8635   -3.2159   -5.1819 N   0  0  0  0  0  0  0  0  0  0  0  0
    0.8185   -4.0698   -4.6528 H   0  0  0  0  0  0  0  0  0  0  0  0
    1.1356   -3.2469   -6.1471 H   0  0  0  0  0  0  0  0  0  0  0  0
   -1.5810    1.2029    1.8176 C   0  0  0  0  0  0  0  0  0  0  0  0
   -2.2041    1.2104    2.8725 O   0  0  0  0  0  0  0  0  0  0  0  0
   -1.0514    2.3021    1.2717 N   0  0  0  0  0  0  0  0  0  0  0  0
   -0.5235    2.1980    0.4206 H   0  0  0  0  0  0  0  0  0  0  0  0
   -1.1136    3.6311    1.8822 C   0  0  0  0  0  0  0  0  0  0  0  0
   -0.5652    3.6297    2.8266 H   0  0  0  0  0  0  0  0  0  0  0  0
   -0.6745    4.3758    1.2171 H   0  0  0  0  0  0  0  0  0  0  0  0
   -2.1522    3.8998    2.0872 H   0  0  0  0  0  0  0  0  0  0  0  0
  5  6  2  0  0  0  0
  5  7  1  0  0  0  0
  2  3  1  0  0  0  0
  2  4  1  0  0  0  0
  2  5  1  0  0  0  0
  1  2  1  0  0  0  0
 29 30  2  0  0  0  0
 29 31  1  0  0  0  0
 26 27  1  0  0  0  0
 26 28  1  0  0  0  0
 23 24  1  0  0  0  0
 23 25  1  0  0  0  0
 22 23  1  0  0  0  0
 22 26  1  0  0  0  0
 20 21  1  0  0  0  0
 20 22  2  0  0  0  0
 17 18  1  0  0  0  0
 17 19  1  0  0  0  0
 17 20  1  0  0  0  0
 14 15  1  0  0  0  0
 14 16  1  0  0  0  0
 14 17  1  0  0  0  0
 11 12  1  0  0  0  0
 11 13  1  0  0  0  0
 11 14  1  0  0  0  0
  9 10  1  0  0  0  0
  9 11  1  0  0  0  0
  9 29  1  0  0  0  0
  7  8  1  0  0  0  0
  7  9  1  0  0  0  0
 33 34  1  0  0  0  0
 33 35  1  0  0  0  0
 33 36  1  0  0  0  0
 31 32  1  0  0  0  0
 31 33  1  0  0  0  0
M  CHG  1  20   1
M  END
$$$$
default_name
  -OEChem-01062215323D

 36 35  0     1  0  0  0  0  0999 V2000
   -4.2256   -3.6731    1.8584 H   0  0  0  0  0  0  0  0  0  0  0  0
   -4.2396   -2.6781    1.4144 C   0  0  0  0  0  0  0  0  0  0  0  0
   -4.9506   -2.0521    1.9514 H   0  0  0  0  0  0  0  0  0  0  0  0
   -4.5266   -2.7521    0.3674 H   0  0  0  0  0  0  0  0  0  0  0  0
   -2.8576   -2.0761    1.5184 C   0  0  0  0  0  0  0  0  0  0  0  0
   -1.9456   -2.7051    2.0404 O   0  0  0  0  0  0  0  0  0  0  0  0
   -2.6926   -0.8481    1.0174 N   0  0  0  0  0  0  0  0  0  0  0  0
   -3.4926   -0.3971    0.5954 H   0  0  0  0  0  0  0  0  0  0  0  0
   -1.4216   -0.1071    1.0434 C   0  0  1  0  0  0  0  0  0  0  0  0
   -0.6742   -0.7236    1.5457 H   0  0  0  0  0  0  0  0  0  0  0  0
   -0.9686    0.1358   -0.4102 C   0  0  0  0  0  0  0  0  0  0  0  0
   -1.7852    0.6149   -0.9541 H   0  0  0  0  0  0  0  0  0  0  0  0
   -0.1157    0.8181   -0.4090 H   0  0  0  0  0  0  0  0  0  0  0  0
   -0.5835   -1.1514   -1.1538 C   0  0  0  0  0  0  0  0  0  0  0  0
    0.2402   -1.6444   -0.6356 H   0  0  0  0  0  0  0  0  0  0  0  0
   -1.4431   -1.8218   -1.1836 H   0  0  0  0  0  0  0  0  0  0  0  0
   -0.1474   -0.8166   -2.5867 C   0  0  0  0  0  0  0  0  0  0  0  0
   -0.9682   -0.2998   -3.0892 H   0  0  0  0  0  0  0  0  0  0  0  0
    0.7148   -0.1472   -2.5402 H   0  0  0  0  0  0  0  0  0  0  0  0
    0.2106   -2.0307   -3.3487 N   0  3  0  0  0  0  0  0  0  0  0  0
    0.1766   -2.9033   -2.8501 H   0  0  0  0  0  0  0  0  0  0  0  0
    0.5699   -2.0775   -4.6206 C   0  0  0  0  0  0  0  0  0  0  0  0
    0.6469   -1.0060   -5.3590 N   0  0  0  0  0  0  0  0  0  0  0  0
    0.4241   -0.1173   -4.9467 H   0  0  0  0  0  0  0  0  0  0  0  0
    0.9216   -1.0590   -6.3227 H   0  0  0  0  0  0  0  0  0  0  0  0
    0.8635   -3.2159   -5.1819 N   0  0  0  0  0  0  0  0  0  0  0  0
    0.8185   -4.0698   -4.6528 H   0  0  0  0  0  0  0  0  0  0  0  0
    1.1356   -3.2469   -6.1471 H   0  0  0  0  0  0  0  0  0  0  0  0
   -1.5810    1.2029    1.8176 C   0  0  0  0  0  0  0  0  0  0  0  0
   -1.9523    1.1747    2.9849 O   0  0  0  0  0  0  0  0  0  0  0  0
   -1.3365    2.3371    1.1538 N   0  0  0  0  0  0  0  0  0  0  0  0
   -0.9996    2.2659    0.2076 H   0  0  0  0  0  0  0  0  0  0  0  0
   -1.4405    3.6715    1.7465 C   0  0  0  0  0  0  0  0  0  0  0  0
   -0.7028    3.7797    2.5444 H   0  0  0  0  0  0  0  0  0  0  0  0
   -1.2622    4.4378    0.9911 H   0  0  0  0  0  0  0  0  0  0  0  0
   -2.4351    3.8134    2.1750 H   0  0  0  0  0  0  0  0  0  0  0  0
  5  6  2  0  0  0  0
  5  7  1  0  0  0  0
  2  3  1  0  0  0  0
  2  4  1  0  0  0  0
  2  5  1  0  0  0  0
  1  2  1  0  0  0  0
 29 30  2  0  0  0  0
 29 31  1  0  0  0  0
 26 27  1  0  0  0  0
 26 28  1  0  0  0  0
 23 24  1  0  0  0  0
 23 25  1  0  0  0  0
 22 23  1  0  0  0  0
 22 26  1  0  0  0  0
 20 21  1  0  0  0  0
 20 22  2  0  0  0  0
 17 18  1  0  0  0  0
 17 19  1  0  0  0  0
 17 20  1  0  0  0  0
 14 15  1  0  0  0  0
 14 16  1  0  0  0  0
 14 17  1  0  0  0  0
 11 12  1  0  0  0  0
 11 13  1  0  0  0  0
 11 14  1  0  0  0  0
  9 10  1  0  0  0  0
  9 11  1  0  0  0  0
  9 29  1  0  0  0  0
  7  8  1  0  0  0  0
  7  9  1  0  0  0  0
 33 34  1  0  0  0  0
 33 35  1  0  0  0  0
 33 36  1  0  0  0  0
 31 32  1  0  0  0  0
 31 33  1  0  0  0  0
M  CHG  1  20   1
M  END
$$$$
default_name
  -OEChem-01062215323D

 36 35  0     1  0  0  0  0  0999 V2000
   -4.2256   -3.6731    1.8584 H   0  0  0  0  0  0  0  0  0  0  0  0
   -4.2396   -2.6781    1.4144 C   0  0  0  0  0  0  0  0  0  0  0  0
   -4.9506   -2.0521    1.9514 H   0  0  0  0  0  0  0  0  0  0  0  0
   -4.5266   -2.7521    0.3674 H   0  0  0  0  0  0  0  0  0  0  0  0
   -2.8576   -2.0761    1.5184 C   0  0  0  0  0  0  0  0  0  0  0  0
   -1.9456   -2.7051    2.0404 O   0  0  0  0  0  0  0  0  0  0  0  0
   -2.6926   -0.8481    1.0174 N   0  0  0  0  0  0  0  0  0  0  0  0
   -3.4926   -0.3971    0.5954 H   0  0  0  0  0  0  0  0  0  0  0  0
   -1.4216   -0.1071    1.0434 C   0  0  1  0  0  0  0  0  0  0  0  0
   -0.6742   -0.7236    1.5457 H   0  0  0  0  0  0  0  0  0  0  0  0
   -0.9686    0.1358   -0.4102 C   0  0  0  0  0  0  0  0  0  0  0  0
   -1.7852    0.6149   -0.9541 H   0  0  0  0  0  0  0  0  0  0  0  0
   -0.1157    0.8181   -0.4090 H   0  0  0  0  0  0  0  0  0  0  0  0
   -0.5835   -1.1514   -1.1538 C   0  0  0  0  0  0  0  0  0  0  0  0
    0.2402   -1.6444   -0.6356 H   0  0  0  0  0  0  0  0  0  0  0  0
   -1.4431   -1.8218   -1.1836 H   0  0  0  0  0  0  0  0  0  0  0  0
   -0.1474   -0.8166   -2.5867 C   0  0  0  0  0  0  0  0  0  0  0  0
   -0.9682   -0.2998   -3.0892 H   0  0  0  0  0  0  0  0  0  0  0  0
    0.7148   -0.1472   -2.5402 H   0  0  0  0  0  0  0  0  0  0  0  0
    0.2106   -2.0307   -3.3487 N   0  3  0  0  0  0  0  0  0  0  0  0
    0.1766   -2.9033   -2.8501 H   0  0  0  0  0  0  0  0  0  0  0  0
    0.5699   -2.0775   -4.6206 C   0  0  0  0  0  0  0  0  0  0  0  0
    0.6469   -1.0060   -5.3590 N   0  0  0  0  0  0  0  0  0  0  0  0
    0.4241   -0.1173   -4.9467 H   0  0  0  0  0  0  0  0  0  0  0  0
    0.9216   -1.0590   -6.3227 H   0  0  0  0  0  0  0  0  0  0  0  0
    0.8635   -3.2159   -5.1819 N   0  0  0  0  0  0  0  0  0  0  0  0
    0.8185   -4.0698   -4.6528 H   0  0  0  0  0  0  0  0  0  0  0  0
    1.1356   -3.2469   -6.1471 H   0  0  0  0  0  0  0  0  0  0  0  0
   -1.5810    1.2029    1.8176 C   0  0  0  0  0  0  0  0  0  0  0  0
   -1.6794    1.1761    3.0386 O   0  0  0  0  0  0  0  0  0  0  0  0
   -1.6427    2.3303    1.1022 N   0  0  0  0  0  0  0  0  0  0  0  0
   -1.5155    2.2634    0.1055 H   0  0  0  0  0  0  0  0  0  0  0  0
   -1.7917    3.6641    1.6868 C   0  0  0  0  0  0  0  0  0  0  0  0
   -0.9179    3.8989    2.2984 H   0  0  0  0  0  0  0  0  0  0  0  0
   -1.8881    4.4147    0.9013 H   0  0  0  0  0  0  0  0  0  0  0  0
   -2.6775    3.6953    2.3249 H   0  0  0  0  0  0  0  0  0  0  0  0
  5  6  2  0  0  0  0
  5  7  1  0  0  0  0
  2  3  1  0  0  0  0
  2  4  1  0  0  0  0
  2  5  1  0  0  0  0
  1  2  1  0  0  0  0
 29 30  2  0  0  0  0
 29 31  1  0  0  0  0
 26 27  1  0  0  0  0
 26 28  1  0  0  0  0
 23 24  1  0  0  0  0
 23 25  1  0  0  0  0
 22 23  1  0  0  0  0
 22 26  1  0  0  0  0
 20 21  1  0  0  0  0
 20 22  2  0  0  0  0
 17 18  1  0  0  0  0
 17 19  1  0  0  0  0
 17 20  1  0  0  0  0
 14 15  1  0  0  0  0
 14 16  1  0  0  0  0
 14 17  1  0  0  0  0
 11 12  1  0  0  0  0
 11 13  1  0  0  0  0
 11 14  1  0  0  0  0
  9 10  1  0  0  0  0
  9 11  1  0  0  0  0
  9 29  1  0  0  0  0
  7  8  1  0  0  0  0
  7  9  1  0  0  0  0
 33 34  1  0  0  0  0
 33 35  1  0  0  0  0
 33 36  1  0  0  0  0
 31 32  1  0  0  0  0
 31 33  1  0  0  0  0
M  CHG  1  20   1
M  END
$$$$
default_name
  -OEChem-01062215323D

 36 35  0     1  0  0  0  0  0999 V2000
   -4.2256   -3.6731    1.8584 H   0  0  0  0  0  0  0  0  0  0  0  0
   -4.2396   -2.6781    1.4144 C   0  0  0  0  0  0  0  0  0  0  0  0
   -4.9506   -2.0521    1.9514 H   0  0  0  0  0  0  0  0  0  0  0  0
   -4.5266   -2.7521    0.3674 H   0  0  0  0  0  0  0  0  0  0  0  0
   -2.8576   -2.0761    1.5184 C   0  0  0  0  0  0  0  0  0  0  0  0
   -1.9456   -2.7051    2.0404 O   0  0  0  0  0  0  0  0  0  0  0  0
   -2.6926   -0.8481    1.0174 N   0  0  0  0  0  0  0  0  0  0  0  0
   -3.4926   -0.3971    0.5954 H   0  0  0  0  0  0  0  0  0  0  0  0
   -1.4216   -0.1071    1.0434 C   0  0  1  0  0  0  0  0  0  0  0  0
   -0.6742   -0.7236    1.5457 H   0  0  0  0  0  0  0  0  0  0  0  0
   -0.9686    0.1358   -0.4102 C   0  0  0  0  0  0  0  0  0  0  0  0
   -1.7852    0.6149   -0.9541 H   0  0  0  0  0  0  0  0  0  0  0  0
   -0.1157    0.8181   -0.4090 H   0  0  0  0  0  0  0  0  0  0  0  0
   -0.5835   -1.1514   -1.1538 C   0  0  0  0  0  0  0  0  0  0  0  0
    0.2402   -1.6444   -0.6356 H   0  0  0  0  0  0  0  0  0  0  0  0
   -1.4431   -1.8218   -1.1836 H   0  0  0  0  0  0  0  0  0  0  0  0
   -0.1474   -0.8166   -2.5867 C   0  0  0  0  0  0  0  0  0  0  0  0
   -0.9682   -0.2998   -3.0892 H   0  0  0  0  0  0  0  0  0  0  0  0
    0.7148   -0.1472   -2.5402 H   0  0  0  0  0  0  0  0  0  0  0  0
    0.2106   -2.0307   -3.3487 N   0  3  0  0  0  0  0  0  0  0  0  0
    0.1766   -2.9033   -2.8501 H   0  0  0  0  0  0  0  0  0  0  0  0
    0.5699   -2.0775   -4.6206 C   0  0  0  0  0  0  0  0  0  0  0  0
    0.6469   -1.0060   -5.3590 N   0  0  0  0  0  0  0  0  0  0  0  0
    0.4241   -0.1173   -4.9467 H   0  0  0  0  0  0  0  0  0  0  0  0
    0.9216   -1.0590   -6.3227 H   0  0  0  0  0  0  0  0  0  0  0  0
    0.8635   -3.2159   -5.1819 N   0  0  0  0  0  0  0  0  0  0  0  0
    0.8185   -4.0698   -4.6528 H   0  0  0  0  0  0  0  0  0  0  0  0
    1.1356   -3.2469   -6.1471 H   0  0  0  0  0  0  0  0  0  0  0  0
   -1.5810    1.2029    1.8176 C   0  0  0  0  0  0  0  0  0  0  0  0
   -1.4041    1.2147    3.0299 O   0  0  0  0  0  0  0  0  0  0  0  0
   -1.9489    2.2823    1.1203 N   0  0  0  0  0  0  0  0  0  0  0  0
   -2.0362    2.1907    0.1214 H   0  0  0  0  0  0  0  0  0  0  0  0
   -2.1432    3.6093    1.7071 C   0  0  0  0  0  0  0  0  0  0  0  0
   -1.1959    3.9793    2.1051 H   0  0  0  0  0  0  0  0  0  0  0  0
   -2.5095    4.3080    0.9539 H   0  0  0  0  0  0  0  0  0  0  0  0
   -2.8631    3.5536    2.5266 H   0  0  0  0  0  0  0  0  0  0  0  0
  5  6  2  0  0  0  0
  5  7  1  0  0  0  0
  2  3  1  0  0  0  0
  2  4  1  0  0  0  0
  2  5  1  0  0  0  0
  1  2  1  0  0  0  0
 29 30  2  0  0  0  0
 29 31  1  0  0  0  0
 26 27  1  0  0  0  0
 26 28  1  0  0  0  0
 23 24  1  0  0  0  0
 23 25  1  0  0  0  0
 22 23  1  0  0  0  0
 22 26  1  0  0  0  0
 20 21  1  0  0  0  0
 20 22  2  0  0  0  0
 17 18  1  0  0  0  0
 17 19  1  0  0  0  0
 17 20  1  0  0  0  0
 14 15  1  0  0  0  0
 14 16  1  0  0  0  0
 14 17  1  0  0  0  0
 11 12  1  0  0  0  0
 11 13  1  0  0  0  0
 11 14  1  0  0  0  0
  9 10  1  0  0  0  0
  9 11  1  0  0  0  0
  9 29  1  0  0  0  0
  7  8  1  0  0  0  0
  7  9  1  0  0  0  0
 33 34  1  0  0  0  0
 33 35  1  0  0  0  0
 33 36  1  0  0  0  0
 31 32  1  0  0  0  0
 31 33  1  0  0  0  0
M  CHG  1  20   1
M  END
$$$$
default_name
  -OEChem-01062215323D

 36 35  0     1  0  0  0  0  0999 V2000
   -4.2256   -3.6731    1.8584 H   0  0  0  0  0  0  0  0  0  0  0  0
   -4.2396   -2.6781    1.4144 C   0  0  0  0  0  0  0  0  0  0  0  0
   -4.9506   -2.0521    1.9514 H   0  0  0  0  0  0  0  0  0  0  0  0
   -4.5266   -2.7521    0.3674 H   0  0  0  0  0  0  0  0  0  0  0  0
   -2.8576   -2.0761    1.5184 C   0  0  0  0  0  0  0  0  0  0  0  0
   -1.9456   -2.7051    2.0404 O   0  0  0  0  0  0  0  0  0  0  0  0
   -2.6926   -0.8481    1.0174 N   0  0  0  0  0  0  0  0  0  0  0  0
   -3.4926   -0.3971    0.5954 H   0  0  0  0  0  0  0  0  0  0  0  0
   -1.4216   -0.1071    1.0434 C   0  0  1  0  0  0  0  0  0  0  0  0
   -0.6742   -0.7236    1.5457 H   0  0  0  0  0  0  0  0  0  0  0  0
   -0.9686    0.1358   -0.4102 C   0  0  0  0  0  0  0  0  0  0  0  0
   -1.7852    0.6149   -0.9541 H   0  0  0  0  0  0  0  0  0  0  0  0
   -0.1157    0.8181   -0.4090 H   0  0  0  0  0  0  0  0  0  0  0  0
   -0.5835   -1.1514   -1.1538 C   0  0  0  0  0  0  0  0  0  0  0  0
    0.2402   -1.6444   -0.6356 H   0  0  0  0  0  0  0  0  0  0  0  0
   -1.4431   -1.8218   -1.1836 H   0  0  0  0  0  0  0  0  0  0  0  0
   -0.1474   -0.8166   -2.5867 C   0  0  0  0  0  0  0  0  0  0  0  0
   -0.9682   -0.2998   -3.0892 H   0  0  0  0  0  0  0  0  0  0  0  0
    0.7148   -0.1472   -2.5402 H   0  0  0  0  0  0  0  0  0  0  0  0
    0.2106   -2.0307   -3.3487 N   0  3  0  0  0  0  0  0  0  0  0  0
    0.1766   -2.9033   -2.8501 H   0  0  0  0  0  0  0  0  0  0  0  0
    0.5699   -2.0775   -4.6206 C   0  0  0  0  0  0  0  0  0  0  0  0
    0.6469   -1.0060   -5.3590 N   0  0  0  0  0  0  0  0  0  0  0  0
    0.4241   -0.1173   -4.9467 H   0  0  0  0  0  0  0  0  0  0  0  0
    0.9216   -1.0590   -6.3227 H   0  0  0  0  0  0  0  0  0  0  0  0
    0.8635   -3.2159   -5.1819 N   0  0  0  0  0  0  0  0  0  0  0  0
    0.8185   -4.0698   -4.6528 H   0  0  0  0  0  0  0  0  0  0  0  0
    1.1356   -3.2469   -6.1471 H   0  0  0  0  0  0  0  0  0  0  0  0
   -1.5810    1.2029    1.8176 C   0  0  0  0  0  0  0  0  0  0  0  0
   -1.1452    1.2879    2.9595 O   0  0  0  0  0  0  0  0  0  0  0  0
   -2.2344    2.1964    1.2070 N   0  0  0  0  0  0  0  0  0  0  0  0
   -2.5260    2.0527    0.2540 H   0  0  0  0  0  0  0  0  0  0  0  0
   -2.4709    3.5109    1.8061 C   0  0  0  0  0  0  0  0  0  0  0  0
   -1.5177    4.0153    1.9779 H   0  0  0  0  0  0  0  0  0  0  0  0
   -3.0842    4.1249    1.1454 H   0  0  0  0  0  0  0  0  0  0  0  0
   -2.9790    3.3978    2.7663 H   0  0  0  0  0  0  0  0  0  0  0  0
  5  6  2  0  0  0  0
  5  7  1  0  0  0  0
  2  3  1  0  0  0  0
  2  4  1  0  0  0  0
  2  5  1  0  0  0  0
  1  2  1  0  0  0  0
 29 30  2  0  0  0  0
 29 31  1  0  0  0  0
 26 27  1  0  0  0  0
 26 28  1  0  0  0  0
 23 24  1  0  0  0  0
 23 25  1  0  0  0  0
 22 23  1  0  0  0  0
 22 26  1  0  0  0  0
 20 21  1  0  0  0  0
 20 22  2  0  0  0  0
 17 18  1  0  0  0  0
 17 19  1  0  0  0  0
 17 20  1  0  0  0  0
 14 15  1  0  0  0  0
 14 16  1  0  0  0  0
 14 17  1  0  0  0  0
 11 12  1  0  0  0  0
 11 13  1  0  0  0  0
 11 14  1  0  0  0  0
  9 10  1  0  0  0  0
  9 11  1  0  0  0  0
  9 29  1  0  0  0  0
  7  8  1  0  0  0  0
  7  9  1  0  0  0  0
 33 34  1  0  0  0  0
 33 35  1  0  0  0  0
 33 36  1  0  0  0  0
 31 32  1  0  0  0  0
 31 33  1  0  0  0  0
M  CHG  1  20   1
M  END
$$$$
default_name
  -OEChem-01062215323D

 36 35  0     1  0  0  0  0  0999 V2000
   -4.2256   -3.6731    1.8584 H   0  0  0  0  0  0  0  0  0  0  0  0
   -4.2396   -2.6781    1.4144 C   0  0  0  0  0  0  0  0  0  0  0  0
   -4.9506   -2.0521    1.9514 H   0  0  0  0  0  0  0  0  0  0  0  0
   -4.5266   -2.7521    0.3674 H   0  0  0  0  0  0  0  0  0  0  0  0
   -2.8576   -2.0761    1.5184 C   0  0  0  0  0  0  0  0  0  0  0  0
   -1.9456   -2.7051    2.0404 O   0  0  0  0  0  0  0  0  0  0  0  0
   -2.6926   -0.8481    1.0174 N   0  0  0  0  0  0  0  0  0  0  0  0
   -3.4926   -0.3971    0.5954 H   0  0  0  0  0  0  0  0  0  0  0  0
   -1.4216   -0.1071    1.0434 C   0  0  1  0  0  0  0  0  0  0  0  0
   -0.6742   -0.7236    1.5457 H   0  0  0  0  0  0  0  0  0  0  0  0
   -0.9686    0.1358   -0.4102 C   0  0  0  0  0  0  0  0  0  0  0  0
   -1.7852    0.6149   -0.9541 H   0  0  0  0  0  0  0  0  0  0  0  0
   -0.1157    0.8181   -0.4090 H   0  0  0  0  0  0  0  0  0  0  0  0
   -0.5835   -1.1514   -1.1538 C   0  0  0  0  0  0  0  0  0  0  0  0
    0.2402   -1.6444   -0.6356 H   0  0  0  0  0  0  0  0  0  0  0  0
   -1.4431   -1.8218   -1.1836 H   0  0  0  0  0  0  0  0  0  0  0  0
   -0.1474   -0.8166   -2.5867 C   0  0  0  0  0  0  0  0  0  0  0  0
   -0.9682   -0.2998   -3.0892 H   0  0  0  0  0  0  0  0  0  0  0  0
    0.7148   -0.1472   -2.5402 H   0  0  0  0  0  0  0  0  0  0  0  0
    0.2106   -2.0307   -3.3487 N   0  3  0  0  0  0  0  0  0  0  0  0
    0.1766   -2.9033   -2.8501 H   0  0  0  0  0  0  0  0  0  0  0  0
    0.5699   -2.0775   -4.6206 C   0  0  0  0  0  0  0  0  0  0  0  0
    0.6469   -1.0060   -5.3590 N   0  0  0  0  0  0  0  0  0  0  0  0
    0.4241   -0.1173   -4.9467 H   0  0  0  0  0  0  0  0  0  0  0  0
    0.9216   -1.0590   -6.3227 H   0  0  0  0  0  0  0  0  0  0  0  0
    0.8635   -3.2159   -5.1819 N   0  0  0  0  0  0  0  0  0  0  0  0
    0.8185   -4.0698   -4.6528 H   0  0  0  0  0  0  0  0  0  0  0  0
    1.1356   -3.2469   -6.1471 H   0  0  0  0  0  0  0  0  0  0  0  0
   -1.5810    1.2029    1.8176 C   0  0  0  0  0  0  0  0  0  0  0  0
   -0.9203    1.3905    2.8322 O   0  0  0  0  0  0  0  0  0  0  0  0
   -2.4798    2.0783    1.3563 N   0  0  0  0  0  0  0  0  0  0  0  0
   -2.9518    1.8588    0.4944 H   0  0  0  0  0  0  0  0  0  0  0  0
   -2.7527    3.3756    1.9771 C   0  0  0  0  0  0  0  0  0  0  0  0
   -1.8615    4.0045    1.9254 H   0  0  0  0  0  0  0  0  0  0  0  0
   -3.5728    3.8780    1.4625 H   0  0  0  0  0  0  0  0  0  0  0  0
   -3.0175    3.2386    3.0278 H   0  0  0  0  0  0  0  0  0  0  0  0
  5  6  2  0  0  0  0
  5  7  1  0  0  0  0
  2  3  1  0  0  0  0
  2  4  1  0  0  0  0
  2  5  1  0  0  0  0
  1  2  1  0  0  0  0
 29 30  2  0  0  0  0
 29 31  1  0  0  0  0
 26 27  1  0  0  0  0
 26 28  1  0  0  0  0
 23 24  1  0  0  0  0
 23 25  1  0  0  0  0
 22 23  1  0  0  0  0
 22 26  1  0  0  0  0
 20 21  1  0  0  0  0
 20 22  2  0  0  0  0
 17 18  1  0  0  0  0
 17 19  1  0  0  0  0
 17 20  1  0  0  0  0
 14 15  1  0  0  0  0
 14 16  1  0  0  0  0
 14 17  1  0  0  0  0
 11 12  1  0  0  0  0
 11 13  1  0  0  0  0
 11 14  1  0  0  0  0
  9 10  1  0  0  0  0
  9 11  1  0  0  0  0
  9 29  1  0  0  0  0
  7  8  1  0  0  0  0
  7  9  1  0  0  0  0
 33 34  1  0  0  0  0
 33 35  1  0  0  0  0
 33 36  1  0  0  0  0
 31 32  1  0  0  0  0
 31 33  1  0  0  0  0
M  CHG  1  20   1
M  END
$$$$
default_name
  -OEChem-01062215323D

 36 35  0     1  0  0  0  0  0999 V2000
   -4.2256   -3.6731    1.8584 H   0  0  0  0  0  0  0  0  0  0  0  0
   -4.2396   -2.6781    1.4144 C   0  0  0  0  0  0  0  0  0  0  0  0
   -4.9506   -2.0521    1.9514 H   0  0  0  0  0  0  0  0  0  0  0  0
   -4.5266   -2.7521    0.3674 H   0  0  0  0  0  0  0  0  0  0  0  0
   -2.8576   -2.0761    1.5184 C   0  0  0  0  0  0  0  0  0  0  0  0
   -1.9456   -2.7051    2.0404 O   0  0  0  0  0  0  0  0  0  0  0  0
   -2.6926   -0.8481    1.0174 N   0  0  0  0  0  0  0  0  0  0  0  0
   -3.4926   -0.3971    0.5954 H   0  0  0  0  0  0  0  0  0  0  0  0
   -1.4216   -0.1071    1.0434 C   0  0  1  0  0  0  0  0  0  0  0  0
   -0.6742   -0.7236    1.5457 H   0  0  0  0  0  0  0  0  0  0  0  0
   -0.9686    0.1358   -0.4102 C   0  0  0  0  0  0  0  0  0  0  0  0
   -1.7852    0.6149   -0.9541 H   0  0  0  0  0  0  0  0  0  0  0  0
   -0.1157    0.8181   -0.4090 H   0  0  0  0  0  0  0  0  0  0  0  0
   -0.5835   -1.1514   -1.1538 C   0  0  0  0  0  0  0  0  0  0  0  0
    0.2402   -1.6444   -0.6356 H   0  0  0  0  0  0  0  0  0  0  0  0
   -1.4431   -1.8218   -1.1836 H   0  0  0  0  0  0  0  0  0  0  0  0
   -0.1474   -0.8166   -2.5867 C   0  0  0  0  0  0  0  0  0  0  0  0
   -0.9682   -0.2998   -3.0892 H   0  0  0  0  0  0  0  0  0  0  0  0
    0.7148   -0.1472   -2.5402 H   0  0  0  0  0  0  0  0  0  0  0  0
    0.2106   -2.0307   -3.3487 N   0  3  0  0  0  0  0  0  0  0  0  0
    0.1766   -2.9033   -2.8501 H   0  0  0  0  0  0  0  0  0  0  0  0
    0.5699   -2.0775   -4.6206 C   0  0  0  0  0  0  0  0  0  0  0  0
    0.6469   -1.0060   -5.3590 N   0  0  0  0  0  0  0  0  0  0  0  0
    0.4241   -0.1173   -4.9467 H   0  0  0  0  0  0  0  0  0  0  0  0
    0.9216   -1.0590   -6.3227 H   0  0  0  0  0  0  0  0  0  0  0  0
    0.8635   -3.2159   -5.1819 N   0  0  0  0  0  0  0  0  0  0  0  0
    0.8185   -4.0698   -4.6528 H   0  0  0  0  0  0  0  0  0  0  0  0
    1.1356   -3.2469   -6.1471 H   0  0  0  0  0  0  0  0  0  0  0  0
   -1.5810    1.2029    1.8176 C   0  0  0  0  0  0  0  0  0  0  0  0
   -0.7446    1.5157    2.6566 O   0  0  0  0  0  0  0  0  0  0  0  0
   -2.6682    1.9361    1.5581 N   0  0  0  0  0  0  0  0  0  0  0  0
   -3.2843    1.6223    0.8262 H   0  0  0  0  0  0  0  0  0  0  0  0
   -2.9693    3.2126    2.2083 C   0  0  0  0  0  0  0  0  0  0  0  0
   -2.2038    3.9477    1.9511 H   0  0  0  0  0  0  0  0  0  0  0  0
   -3.9422    3.5841    1.8839 H   0  0  0  0  0  0  0  0  0  0  0  0
   -2.9758    3.0868    3.2932 H   0  0  0  0  0  0  0  0  0  0  0  0
  5  6  2  0  0  0  0
  5  7  1  0  0  0  0
  2  3  1  0  0  0  0
  2  4  1  0  0  0  0
  2  5  1  0  0  0  0
  1  2  1  0  0  0  0
 29 30  2  0  0  0  0
 29 31  1  0  0  0  0
 26 27  1  0  0  0  0
 26 28  1  0  0  0  0
 23 24  1  0  0  0  0
 23 25  1  0  0  0  0
 22 23  1  0  0  0  0
 22 26  1  0  0  0  0
 20 21  1  0  0  0  0
 20 22  2  0  0  0  0
 17 18  1  0  0  0  0
 17 19  1  0  0  0  0
 17 20  1  0  0  0  0
 14 15  1  0  0  0  0
 14 16  1  0  0  0  0
 14 17  1  0  0  0  0
 11 12  1  0  0  0  0
 11 13  1  0  0  0  0
 11 14  1  0  0  0  0
  9 10  1  0  0  0  0
  9 11  1  0  0  0  0
  9 29  1  0  0  0  0
  7  8  1  0  0  0  0
  7  9  1  0  0  0  0
 33 34  1  0  0  0  0
 33 35  1  0  0  0  0
 33 36  1  0  0  0  0
 31 32  1  0  0  0  0
 31 33  1  0  0  0  0
M  CHG  1  20   1
M  END
$$$$
default_name
  -OEChem-01062215323D

 36 35  0     1  0  0  0  0  0999 V2000
   -4.2256   -3.6731    1.8584 H   0  0  0  0  0  0  0  0  0  0  0  0
   -4.2396   -2.6781    1.4144 C   0  0  0  0  0  0  0  0  0  0  0  0
   -4.9506   -2.0521    1.9514 H   0  0  0  0  0  0  0  0  0  0  0  0
   -4.5266   -2.7521    0.3674 H   0  0  0  0  0  0  0  0  0  0  0  0
   -2.8576   -2.0761    1.5184 C   0  0  0  0  0  0  0  0  0  0  0  0
   -1.9456   -2.7051    2.0404 O   0  0  0  0  0  0  0  0  0  0  0  0
   -2.6926   -0.8481    1.0174 N   0  0  0  0  0  0  0  0  0  0  0  0
   -3.4926   -0.3971    0.5954 H   0  0  0  0  0  0  0  0  0  0  0  0
   -1.4216   -0.1071    1.0434 C   0  0  1  0  0  0  0  0  0  0  0  0
   -0.6742   -0.7236    1.5457 H   0  0  0  0  0  0  0  0  0  0  0  0
   -0.9686    0.1358   -0.4102 C   0  0  0  0  0  0  0  0  0  0  0  0
   -1.7852    0.6149   -0.9541 H   0  0  0  0  0  0  0  0  0  0  0  0
   -0.1157    0.8181   -0.4090 H   0  0  0  0  0  0  0  0  0  0  0  0
   -0.5835   -1.1514   -1.1538 C   0  0  0  0  0  0  0  0  0  0  0  0
    0.2402   -1.6444   -0.6356 H   0  0  0  0  0  0  0  0  0  0  0  0
   -1.4431   -1.8218   -1.1836 H   0  0  0  0  0  0  0  0  0  0  0  0
   -0.1474   -0.8166   -2.5867 C   0  0  0  0  0  0  0  0  0  0  0  0
   -0.9682   -0.2998   -3.0892 H   0  0  0  0  0  0  0  0  0  0  0  0
    0.7148   -0.1472   -2.5402 H   0  0  0  0  0  0  0  0  0  0  0  0
    0.2106   -2.0307   -3.3487 N   0  3  0  0  0  0  0  0  0  0  0  0
    0.1766   -2.9033   -2.8501 H   0  0  0  0  0  0  0  0  0  0  0  0
    0.5699   -2.0775   -4.6206 C   0  0  0  0  0  0  0  0  0  0  0  0
    0.6469   -1.0060   -5.3590 N   0  0  0  0  0  0  0  0  0  0  0  0
    0.4241   -0.1173   -4.9467 H   0  0  0  0  0  0  0  0  0  0  0  0
    0.9216   -1.0590   -6.3227 H   0  0  0  0  0  0  0  0  0  0  0  0
    0.8635   -3.2159   -5.1819 N   0  0  0  0  0  0  0  0  0  0  0  0
    0.8185   -4.0698   -4.6528 H   0  0  0  0  0  0  0  0  0  0  0  0
    1.1356   -3.2469   -6.1471 H   0  0  0  0  0  0  0  0  0  0  0  0
   -1.5810    1.2029    1.8176 C   0  0  0  0  0  0  0  0  0  0  0  0
   -0.6303    1.6548    2.4446 O   0  0  0  0  0  0  0  0  0  0  0  0
   -2.7868    1.7795    1.7986 N   0  0  0  0  0  0  0  0  0  0  0  0
   -3.5010    1.3592    1.2267 H   0  0  0  0  0  0  0  0  0  0  0  0
   -3.1060    3.0330    2.4840 C   0  0  0  0  0  0  0  0  0  0  0  0
   -2.5212    3.8486    2.0533 H   0  0  0  0  0  0  0  0  0  0  0  0
   -4.1671    3.2631    2.3806 H   0  0  0  0  0  0  0  0  0  0  0  0
   -2.8569    2.9529    3.5444 H   0  0  0  0  0  0  0  0  0  0  0  0
  5  6  2  0  0  0  0
  5  7  1  0  0  0  0
  2  3  1  0  0  0  0
  2  4  1  0  0  0  0
  2  5  1  0  0  0  0
  1  2  1  0  0  0  0
 29 30  2  0  0  0  0
 29 31  1  0  0  0  0
 26 27  1  0  0  0  0
 26 28  1  0  0  0  0
 23 24  1  0  0  0  0
 23 25  1  0  0  0  0
 22 23  1  0  0  0  0
 22 26  1  0  0  0  0
 20 21  1  0  0  0  0
 20 22  2  0  0  0  0
 17 18  1  0  0  0  0
 17 19  1  0  0  0  0
 17 20  1  0  0  0  0
 14 15  1  0  0  0  0
 14 16  1  0  0  0  0
 14 17  1  0  0  0  0
 11 12  1  0  0  0  0
 11 13  1  0  0  0  0
 11 14  1  0  0  0  0
  9 10  1  0  0  0  0
  9 11  1  0  0  0  0
  9 29  1  0  0  0  0
  7  8  1  0  0  0  0
  7  9  1  0  0  0  0
 33 34  1  0  0  0  0
 33 35  1  0  0  0  0
 33 36  1  0  0  0  0
 31 32  1  0  0  0  0
 31 33  1  0  0  0  0
M  CHG  1  20   1
M  END
$$$$
default_name
  -OEChem-01062215323D

 36 35  0     1  0  0  0  0  0999 V2000
   -4.2256   -3.6731    1.8584 H   0  0  0  0  0  0  0  0  0  0  0  0
   -4.2396   -2.6781    1.4144 C   0  0  0  0  0  0  0  0  0  0  0  0
   -4.9506   -2.0521    1.9514 H   0  0  0  0  0  0  0  0  0  0  0  0
   -4.5266   -2.7521    0.3674 H   0  0  0  0  0  0  0  0  0  0  0  0
   -2.8576   -2.0761    1.5184 C   0  0  0  0  0  0  0  0  0  0  0  0
   -1.9456   -2.7051    2.0404 O   0  0  0  0  0  0  0  0  0  0  0  0
   -2.6926   -0.8481    1.0174 N   0  0  0  0  0  0  0  0  0  0  0  0
   -3.4926   -0.3971    0.5954 H   0  0  0  0  0  0  0  0  0  0  0  0
   -1.4216   -0.1071    1.0434 C   0  0  1  0  0  0  0  0  0  0  0  0
   -0.6742   -0.7236    1.5457 H   0  0  0  0  0  0  0  0  0  0  0  0
   -0.9686    0.1358   -0.4102 C   0  0  0  0  0  0  0  0  0  0  0  0
   -1.7852    0.6149   -0.9541 H   0  0  0  0  0  0  0  0  0  0  0  0
   -0.1157    0.8181   -0.4090 H   0  0  0  0  0  0  0  0  0  0  0  0
   -0.5835   -1.1514   -1.1538 C   0  0  0  0  0  0  0  0  0  0  0  0
    0.2402   -1.6444   -0.6356 H   0  0  0  0  0  0  0  0  0  0  0  0
   -1.4431   -1.8218   -1.1836 H   0  0  0  0  0  0  0  0  0  0  0  0
   -0.1474   -0.8166   -2.5867 C   0  0  0  0  0  0  0  0  0  0  0  0
   -0.9682   -0.2998   -3.0892 H   0  0  0  0  0  0  0  0  0  0  0  0
    0.7148   -0.1472   -2.5402 H   0  0  0  0  0  0  0  0  0  0  0  0
    0.2106   -2.0307   -3.3487 N   0  3  0  0  0  0  0  0  0  0  0  0
    0.1766   -2.9033   -2.8501 H   0  0  0  0  0  0  0  0  0  0  0  0
    0.5699   -2.0775   -4.6206 C   0  0  0  0  0  0  0  0  0  0  0  0
    0.6469   -1.0060   -5.3590 N   0  0  0  0  0  0  0  0  0  0  0  0
    0.4241   -0.1173   -4.9467 H   0  0  0  0  0  0  0  0  0  0  0  0
    0.9216   -1.0590   -6.3227 H   0  0  0  0  0  0  0  0  0  0  0  0
    0.8635   -3.2159   -5.1819 N   0  0  0  0  0  0  0  0  0  0  0  0
    0.8185   -4.0698   -4.6528 H   0  0  0  0  0  0  0  0  0  0  0  0
    1.1356   -3.2469   -6.1471 H   0  0  0  0  0  0  0  0  0  0  0  0
   -1.5810    1.2029    1.8176 C   0  0  0  0  0  0  0  0  0  0  0  0
   -0.5851    1.7985    2.2108 O   0  0  0  0  0  0  0  0  0  0  0  0
   -2.8276    1.6192    2.0614 N   0  0  0  0  0  0  0  0  0  0  0  0
   -3.5872    1.0875    1.6687 H   0  0  0  0  0  0  0  0  0  0  0  0
   -3.1533    2.8491    2.7854 C   0  0  0  0  0  0  0  0  0  0  0  0
   -2.7923    3.7141    2.2251 H   0  0  0  0  0  0  0  0  0  0  0  0
   -4.2323    2.9371    2.9189 H   0  0  0  0  0  0  0  0  0  0  0  0
   -2.6689    2.8458    3.7643 H   0  0  0  0  0  0  0  0  0  0  0  0
  5  6  2  0  0  0  0
  5  7  1  0  0  0  0
  2  3  1  0  0  0  0
  2  4  1  0  0  0  0
  2  5  1  0  0  0  0
  1  2  1  0  0  0  0
 29 30  2  0  0  0  0
 29 31  1  0  0  0  0
 26 27  1  0  0  0  0
 26 28  1  0  0  0  0
 23 24  1  0  0  0  0
 23 25  1  0  0  0  0
 22 23  1  0  0  0  0
 22 26  1  0  0  0  0
 20 21  1  0  0  0  0
 20 22  2  0  0  0  0
 17 18  1  0  0  0  0
 17 19  1  0  0  0  0
 17 20  1  0  0  0  0
 14 15  1  0  0  0  0
 14 16  1  0  0  0  0
 14 17  1  0  0  0  0
 11 12  1  0  0  0  0
 11 13  1  0  0  0  0
 11 14  1  0  0  0  0
  9 10  1  0  0  0  0
  9 11  1  0  0  0  0
  9 29  1  0  0  0  0
  7  8  1  0  0  0  0
  7  9  1  0  0  0  0
 33 34  1  0  0  0  0
 33 35  1  0  0  0  0
 33 36  1  0  0  0  0
 31 32  1  0  0  0  0
 31 33  1  0  0  0  0
M  CHG  1  20   1
M  END
$$$$
default_name
  -OEChem-01062215323D

 36 35  0     1  0  0  0  0  0999 V2000
   -4.2256   -3.6731    1.8584 H   0  0  0  0  0  0  0  0  0  0  0  0
   -4.2396   -2.6781    1.4144 C   0  0  0  0  0  0  0  0  0  0  0  0
   -4.9506   -2.0521    1.9514 H   0  0  0  0  0  0  0  0  0  0  0  0
   -4.5266   -2.7521    0.3674 H   0  0  0  0  0  0  0  0  0  0  0  0
   -2.8576   -2.0761    1.5184 C   0  0  0  0  0  0  0  0  0  0  0  0
   -1.9456   -2.7051    2.0404 O   0  0  0  0  0  0  0  0  0  0  0  0
   -2.6926   -0.8481    1.0174 N   0  0  0  0  0  0  0  0  0  0  0  0
   -3.4926   -0.3971    0.5954 H   0  0  0  0  0  0  0  0  0  0  0  0
   -1.4216   -0.1071    1.0434 C   0  0  1  0  0  0  0  0  0  0  0  0
   -0.6742   -0.7236    1.5457 H   0  0  0  0  0  0  0  0  0  0  0  0
   -0.9686    0.1358   -0.4102 C   0  0  0  0  0  0  0  0  0  0  0  0
   -1.7852    0.6149   -0.9541 H   0  0  0  0  0  0  0  0  0  0  0  0
   -0.1157    0.8181   -0.4090 H   0  0  0  0  0  0  0  0  0  0  0  0
   -0.5835   -1.1514   -1.1538 C   0  0  0  0  0  0  0  0  0  0  0  0
    0.2402   -1.6444   -0.6356 H   0  0  0  0  0  0  0  0  0  0  0  0
   -1.4431   -1.8218   -1.1836 H   0  0  0  0  0  0  0  0  0  0  0  0
   -0.1474   -0.8166   -2.5867 C   0  0  0  0  0  0  0  0  0  0  0  0
   -0.9682   -0.2998   -3.0892 H   0  0  0  0  0  0  0  0  0  0  0  0
    0.7148   -0.1472   -2.5402 H   0  0  0  0  0  0  0  0  0  0  0  0
    0.2106   -2.0307   -3.3487 N   0  3  0  0  0  0  0  0  0  0  0  0
    0.1766   -2.9033   -2.8501 H   0  0  0  0  0  0  0  0  0  0  0  0
    0.5699   -2.0775   -4.6206 C   0  0  0  0  0  0  0  0  0  0  0  0
    0.6469   -1.0060   -5.3590 N   0  0  0  0  0  0  0  0  0  0  0  0
    0.4241   -0.1173   -4.9467 H   0  0  0  0  0  0  0  0  0  0  0  0
    0.9216   -1.0590   -6.3227 H   0  0  0  0  0  0  0  0  0  0  0  0
    0.8635   -3.2159   -5.1819 N   0  0  0  0  0  0  0  0  0  0  0  0
    0.8185   -4.0698   -4.6528 H   0  0  0  0  0  0  0  0  0  0  0  0
    1.1356   -3.2469   -6.1471 H   0  0  0  0  0  0  0  0  0  0  0  0
   -1.5810    1.2029    1.8176 C   0  0  0  0  0  0  0  0  0  0  0  0
   -0.6120    1.9369    1.9711 O   0  0  0  0  0  0  0  0  0  0  0  0
   -2.7878    1.4662    2.3287 N   0  0  0  0  0  0  0  0  0  0  0  0
   -3.5368    0.8257    2.1221 H   0  0  0  0  0  0  0  0  0  0  0  0
   -3.1082    2.6734    3.0921 C   0  0  0  0  0  0  0  0  0  0  0  0
   -2.9984    3.5534    2.4547 H   0  0  0  0  0  0  0  0  0  0  0  0
   -4.1332    2.6281    3.4621 H   0  0  0  0  0  0  0  0  0  0  0  0
   -2.4244    2.7729    3.9379 H   0  0  0  0  0  0  0  0  0  0  0  0
  5  6  2  0  0  0  0
  5  7  1  0  0  0  0
  2  3  1  0  0  0  0
  2  4  1  0  0  0  0
  2  5  1  0  0  0  0
  1  2  1  0  0  0  0
 29 30  2  0  0  0  0
 29 31  1  0  0  0  0
 26 27  1  0  0  0  0
 26 28  1  0  0  0  0
 23 24  1  0  0  0  0
 23 25  1  0  0  0  0
 22 23  1  0  0  0  0
 22 26  1  0  0  0  0
 20 21  1  0  0  0  0
 20 22  2  0  0  0  0
 17 18  1  0  0  0  0
 17 19  1  0  0  0  0
 17 20  1  0  0  0  0
 14 15  1  0  0  0  0
 14 16  1  0  0  0  0
 14 17  1  0  0  0  0
 11 12  1  0  0  0  0
 11 13  1  0  0  0  0
 11 14  1  0  0  0  0
  9 10  1  0  0  0  0
  9 11  1  0  0  0  0
  9 29  1  0  0  0  0
  7  8  1  0  0  0  0
  7  9  1  0  0  0  0
 33 34  1  0  0  0  0
 33 35  1  0  0  0  0
 33 36  1  0  0  0  0
 31 32  1  0  0  0  0
 31 33  1  0  0  0  0
M  CHG  1  20   1
M  END
$$$$
default_name
  -OEChem-01062215323D

 36 35  0     1  0  0  0  0  0999 V2000
   -4.2256   -3.6731    1.8584 H   0  0  0  0  0  0  0  0  0  0  0  0
   -4.2396   -2.6781    1.4144 C   0  0  0  0  0  0  0  0  0  0  0  0
   -4.9506   -2.0521    1.9514 H   0  0  0  0  0  0  0  0  0  0  0  0
   -4.5266   -2.7521    0.3674 H   0  0  0  0  0  0  0  0  0  0  0  0
   -2.8576   -2.0761    1.5184 C   0  0  0  0  0  0  0  0  0  0  0  0
   -1.9456   -2.7051    2.0404 O   0  0  0  0  0  0  0  0  0  0  0  0
   -2.6926   -0.8481    1.0174 N   0  0  0  0  0  0  0  0  0  0  0  0
   -3.4926   -0.3971    0.5954 H   0  0  0  0  0  0  0  0  0  0  0  0
   -1.4216   -0.1071    1.0434 C   0  0  1  0  0  0  0  0  0  0  0  0
   -0.6742   -0.7236    1.5457 H   0  0  0  0  0  0  0  0  0  0  0  0
   -0.9686    0.1358   -0.4102 C   0  0  0  0  0  0  0  0  0  0  0  0
   -1.7852    0.6149   -0.9541 H   0  0  0  0  0  0  0  0  0  0  0  0
   -0.1157    0.8181   -0.4090 H   0  0  0  0  0  0  0  0  0  0  0  0
   -0.5835   -1.1514   -1.1538 C   0  0  0  0  0  0  0  0  0  0  0  0
    0.2402   -1.6444   -0.6356 H   0  0  0  0  0  0  0  0  0  0  0  0
   -1.4431   -1.8218   -1.1836 H   0  0  0  0  0  0  0  0  0  0  0  0
   -0.1474   -0.8166   -2.5867 C   0  0  0  0  0  0  0  0  0  0  0  0
   -0.9682   -0.2998   -3.0892 H   0  0  0  0  0  0  0  0  0  0  0  0
    0.7148   -0.1472   -2.5402 H   0  0  0  0  0  0  0  0  0  0  0  0
    0.2106   -2.0307   -3.3487 N   0  3  0  0  0  0  0  0  0  0  0  0
    0.1766   -2.9033   -2.8501 H   0  0  0  0  0  0  0  0  0  0  0  0
    0.5699   -2.0775   -4.6206 C   0  0  0  0  0  0  0  0  0  0  0  0
    0.6469   -1.0060   -5.3590 N   0  0  0  0  0  0  0  0  0  0  0  0
    0.4241   -0.1173   -4.9467 H   0  0  0  0  0  0  0  0  0  0  0  0
    0.9216   -1.0590   -6.3227 H   0  0  0  0  0  0  0  0  0  0  0  0
    0.8635   -3.2159   -5.1819 N   0  0  0  0  0  0  0  0  0  0  0  0
    0.8185   -4.0698   -4.6528 H   0  0  0  0  0  0  0  0  0  0  0  0
    1.1356   -3.2469   -6.1471 H   0  0  0  0  0  0  0  0  0  0  0  0
   -1.5810    1.2029    1.8176 C   0  0  0  0  0  0  0  0  0  0  0  0
   -0.7093    2.0605    1.7418 O   0  0  0  0  0  0  0  0  0  0  0  0
   -2.6701    1.3307    2.5821 N   0  0  0  0  0  0  0  0  0  0  0  0
   -3.3534    0.5917    2.5559 H   0  0  0  0  0  0  0  0  0  0  0  0
   -2.9736    2.5178    3.3830 C   0  0  0  0  0  0  0  0  0  0  0  0
   -3.1255    3.3773    2.7265 H   0  0  0  0  0  0  0  0  0  0  0  0
   -3.8767    2.3573    3.9732 H   0  0  0  0  0  0  0  0  0  0  0  0
   -2.1403    2.7392    4.0534 H   0  0  0  0  0  0  0  0  0  0  0  0
  5  6  2  0  0  0  0
  5  7  1  0  0  0  0
  2  3  1  0  0  0  0
  2  4  1  0  0  0  0
  2  5  1  0  0  0  0
  1  2  1  0  0  0  0
 29 30  2  0  0  0  0
 29 31  1  0  0  0  0
 26 27  1  0  0  0  0
 26 28  1  0  0  0  0
 23 24  1  0  0  0  0
 23 25  1  0  0  0  0
 22 23  1  0  0  0  0
 22 26  1  0  0  0  0
 20 21  1  0  0  0  0
 20 22  2  0  0  0  0
 17 18  1  0  0  0  0
 17 19  1  0  0  0  0
 17 20  1  0  0  0  0
 14 15  1  0  0  0  0
 14 16  1  0  0  0  0
 14 17  1  0  0  0  0
 11 12  1  0  0  0  0
 11 13  1  0  0  0  0
 11 14  1  0  0  0  0
  9 10  1  0  0  0  0
  9 11  1  0  0  0  0
  9 29  1  0  0  0  0
  7  8  1  0  0  0  0
  7  9  1  0  0  0  0
 33 34  1  0  0  0  0
 33 35  1  0  0  0  0
 33 36  1  0  0  0  0
 31 32  1  0  0  0  0
 31 33  1  0  0  0  0
M  CHG  1  20   1
M  END
$$$$
default_name
  -OEChem-01062215323D

 36 35  0     1  0  0  0  0  0999 V2000
   -4.2256   -3.6731    1.8584 H   0  0  0  0  0  0  0  0  0  0  0  0
   -4.2396   -2.6781    1.4144 C   0  0  0  0  0  0  0  0  0  0  0  0
   -4.9506   -2.0521    1.9514 H   0  0  0  0  0  0  0  0  0  0  0  0
   -4.5266   -2.7521    0.3674 H   0  0  0  0  0  0  0  0  0  0  0  0
   -2.8576   -2.0761    1.5184 C   0  0  0  0  0  0  0  0  0  0  0  0
   -1.9456   -2.7051    2.0404 O   0  0  0  0  0  0  0  0  0  0  0  0
   -2.6926   -0.8481    1.0174 N   0  0  0  0  0  0  0  0  0  0  0  0
   -3.4926   -0.3971    0.5954 H   0  0  0  0  0  0  0  0  0  0  0  0
   -1.4216   -0.1071    1.0434 C   0  0  1  0  0  0  0  0  0  0  0  0
   -0.6742   -0.7236    1.5457 H   0  0  0  0  0  0  0  0  0  0  0  0
   -0.9686    0.1358   -0.4102 C   0  0  0  0  0  0  0  0  0  0  0  0
   -1.7852    0.6149   -0.9541 H   0  0  0  0  0  0  0  0  0  0  0  0
   -0.1157    0.8181   -0.4090 H   0  0  0  0  0  0  0  0  0  0  0  0
   -0.5835   -1.1514   -1.1538 C   0  0  0  0  0  0  0  0  0  0  0  0
    0.2402   -1.6444   -0.6356 H   0  0  0  0  0  0  0  0  0  0  0  0
   -1.4431   -1.8218   -1.1836 H   0  0  0  0  0  0  0  0  0  0  0  0
   -0.1474   -0.8166   -2.5867 C   0  0  0  0  0  0  0  0  0  0  0  0
   -0.9682   -0.2998   -3.0892 H   0  0  0  0  0  0  0  0  0  0  0  0
    0.7148   -0.1472   -2.5402 H   0  0  0  0  0  0  0  0  0  0  0  0
    0.2106   -2.0307   -3.3487 N   0  3  0  0  0  0  0  0  0  0  0  0
    0.1766   -2.9033   -2.8501 H   0  0  0  0  0  0  0  0  0  0  0  0
    0.5699   -2.0775   -4.6206 C   0  0  0  0  0  0  0  0  0  0  0  0
    0.6469   -1.0060   -5.3590 N   0  0  0  0  0  0  0  0  0  0  0  0
    0.4241   -0.1173   -4.9467 H   0  0  0  0  0  0  0  0  0  0  0  0
    0.9216   -1.0590   -6.3227 H   0  0  0  0  0  0  0  0  0  0  0  0
    0.8635   -3.2159   -5.1819 N   0  0  0  0  0  0  0  0  0  0  0  0
    0.8185   -4.0698   -4.6528 H   0  0  0  0  0  0  0  0  0  0  0  0
    1.1356   -3.2469   -6.1471 H   0  0  0  0  0  0  0  0  0  0  0  0
   -1.5810    1.2029    1.8176 C   0  0  0  0  0  0  0  0  0  0  0  0
   -0.8703    2.1611    1.5385 O   0  0  0  0  0  0  0  0  0  0  0  0
   -2.4824    1.2221    2.8045 N   0  0  0  0  0  0  0  0  0  0  0  0
   -3.0495    0.4013    2.9406 H   0  0  0  0  0  0  0  0  0  0  0  0
   -2.7588    2.3931    3.6384 C   0  0  0  0  0  0  0  0  0  0  0  0
   -3.1651    3.1978    3.0219 H   0  0  0  0  0  0  0  0  0  0  0  0
   -3.4802    2.1431    4.4174 H   0  0  0  0  0  0  0  0  0  0  0  0
   -1.8359    2.7470    4.1029 H   0  0  0  0  0  0  0  0  0  0  0  0
  5  6  2  0  0  0  0
  5  7  1  0  0  0  0
  2  3  1  0  0  0  0
  2  4  1  0  0  0  0
  2  5  1  0  0  0  0
  1  2  1  0  0  0  0
 29 30  2  0  0  0  0
 29 31  1  0  0  0  0
 26 27  1  0  0  0  0
 26 28  1  0  0  0  0
 23 24  1  0  0  0  0
 23 25  1  0  0  0  0
 22 23  1  0  0  0  0
 22 26  1  0  0  0  0
 20 21  1  0  0  0  0
 20 22  2  0  0  0  0
 17 18  1  0  0  0  0
 17 19  1  0  0  0  0
 17 20  1  0  0  0  0
 14 15  1  0  0  0  0
 14 16  1  0  0  0  0
 14 17  1  0  0  0  0
 11 12  1  0  0  0  0
 11 13  1  0  0  0  0
 11 14  1  0  0  0  0
  9 10  1  0  0  0  0
  9 11  1  0  0  0  0
  9 29  1  0  0  0  0
  7  8  1  0  0  0  0
  7  9  1  0  0  0  0
 33 34  1  0  0  0  0
 33 35  1  0  0  0  0
 33 36  1  0  0  0  0
 31 32  1  0  0  0  0
 31 33  1  0  0  0  0
M  CHG  1  20   1
M  END
$$$$
default_name
  -OEChem-01062215323D

 36 35  0     1  0  0  0  0  0999 V2000
   -4.2256   -3.6731    1.8584 H   0  0  0  0  0  0  0  0  0  0  0  0
   -4.2396   -2.6781    1.4144 C   0  0  0  0  0  0  0  0  0  0  0  0
   -4.9506   -2.0521    1.9514 H   0  0  0  0  0  0  0  0  0  0  0  0
   -4.5266   -2.7521    0.3674 H   0  0  0  0  0  0  0  0  0  0  0  0
   -2.8576   -2.0761    1.5184 C   0  0  0  0  0  0  0  0  0  0  0  0
   -1.9456   -2.7051    2.0404 O   0  0  0  0  0  0  0  0  0  0  0  0
   -2.6926   -0.8481    1.0174 N   0  0  0  0  0  0  0  0  0  0  0  0
   -3.4926   -0.3971    0.5954 H   0  0  0  0  0  0  0  0  0  0  0  0
   -1.4216   -0.1071    1.0434 C   0  0  1  0  0  0  0  0  0  0  0  0
   -0.6742   -0.7236    1.5457 H   0  0  0  0  0  0  0  0  0  0  0  0
   -0.9686    0.1358   -0.4102 C   0  0  0  0  0  0  0  0  0  0  0  0
   -1.7852    0.6149   -0.9541 H   0  0  0  0  0  0  0  0  0  0  0  0
   -0.1157    0.8181   -0.4090 H   0  0  0  0  0  0  0  0  0  0  0  0
   -0.5835   -1.1514   -1.1538 C   0  0  0  0  0  0  0  0  0  0  0  0
    0.2402   -1.6444   -0.6356 H   0  0  0  0  0  0  0  0  0  0  0  0
   -1.4431   -1.8218   -1.1836 H   0  0  0  0  0  0  0  0  0  0  0  0
   -0.1474   -0.8166   -2.5867 C   0  0  0  0  0  0  0  0  0  0  0  0
   -0.9682   -0.2998   -3.0892 H   0  0  0  0  0  0  0  0  0  0  0  0
    0.7148   -0.1472   -2.5402 H   0  0  0  0  0  0  0  0  0  0  0  0
    0.2106   -2.0307   -3.3487 N   0  3  0  0  0  0  0  0  0  0  0  0
    0.1766   -2.9033   -2.8501 H   0  0  0  0  0  0  0  0  0  0  0  0
    0.5699   -2.0775   -4.6206 C   0  0  0  0  0  0  0  0  0  0  0  0
    0.6469   -1.0060   -5.3590 N   0  0  0  0  0  0  0  0  0  0  0  0
    0.4241   -0.1173   -4.9467 H   0  0  0  0  0  0  0  0  0  0  0  0
    0.9216   -1.0590   -6.3227 H   0  0  0  0  0  0  0  0  0  0  0  0
    0.8635   -3.2159   -5.1819 N   0  0  0  0  0  0  0  0  0  0  0  0
    0.8185   -4.0698   -4.6528 H   0  0  0  0  0  0  0  0  0  0  0  0
    1.1356   -3.2469   -6.1471 H   0  0  0  0  0  0  0  0  0  0  0  0
   -1.5810    1.2029    1.8176 C   0  0  0  0  0  0  0  0  0  0  0  0
   -1.0840    2.2316    1.3751 O   0  0  0  0  0  0  0  0  0  0  0  0
   -2.2377    1.1478    2.9806 N   0  0  0  0  0  0  0  0  0  0  0  0
   -2.6457    0.2676    3.2500 H   0  0  0  0  0  0  0  0  0  0  0  0
   -2.4784    2.3076    3.8408 C   0  0  0  0  0  0  0  0  0  0  0  0
   -3.1143    3.0273    3.3209 H   0  0  0  0  0  0  0  0  0  0  0  0
   -2.9707    2.0001    4.7643 H   0  0  0  0  0  0  0  0  0  0  0  0
   -1.5319    2.7958    4.0831 H   0  0  0  0  0  0  0  0  0  0  0  0
  5  6  2  0  0  0  0
  5  7  1  0  0  0  0
  2  3  1  0  0  0  0
  2  4  1  0  0  0  0
  2  5  1  0  0  0  0
  1  2  1  0  0  0  0
 29 30  2  0  0  0  0
 29 31  1  0  0  0  0
 26 27  1  0  0  0  0
 26 28  1  0  0  0  0
 23 24  1  0  0  0  0
 23 25  1  0  0  0  0
 22 23  1  0  0  0  0
 22 26  1  0  0  0  0
 20 21  1  0  0  0  0
 20 22  2  0  0  0  0
 17 18  1  0  0  0  0
 17 19  1  0  0  0  0
 17 20  1  0  0  0  0
 14 15  1  0  0  0  0
 14 16  1  0  0  0  0
 14 17  1  0  0  0  0
 11 12  1  0  0  0  0
 11 13  1  0  0  0  0
 11 14  1  0  0  0  0
  9 10  1  0  0  0  0
  9 11  1  0  0  0  0
  9 29  1  0  0  0  0
  7  8  1  0  0  0  0
  7  9  1  0  0  0  0
 33 34  1  0  0  0  0
 33 35  1  0  0  0  0
 33 36  1  0  0  0  0
 31 32  1  0  0  0  0
 31 33  1  0  0  0  0
M  CHG  1  20   1
M  END
$$$$
default_name
  -OEChem-01062215323D

 36 35  0     1  0  0  0  0  0999 V2000
   -4.2256   -3.6731    1.8584 H   0  0  0  0  0  0  0  0  0  0  0  0
   -4.2396   -2.6781    1.4144 C   0  0  0  0  0  0  0  0  0  0  0  0
   -4.9506   -2.0521    1.9514 H   0  0  0  0  0  0  0  0  0  0  0  0
   -4.5266   -2.7521    0.3674 H   0  0  0  0  0  0  0  0  0  0  0  0
   -2.8576   -2.0761    1.5184 C   0  0  0  0  0  0  0  0  0  0  0  0
   -1.9456   -2.7051    2.0404 O   0  0  0  0  0  0  0  0  0  0  0  0
   -2.6926   -0.8481    1.0174 N   0  0  0  0  0  0  0  0  0  0  0  0
   -3.4926   -0.3971    0.5954 H   0  0  0  0  0  0  0  0  0  0  0  0
   -1.4216   -0.1071    1.0434 C   0  0  1  0  0  0  0  0  0  0  0  0
   -0.6742   -0.7236    1.5457 H   0  0  0  0  0  0  0  0  0  0  0  0
   -0.9686    0.1358   -0.4102 C   0  0  0  0  0  0  0  0  0  0  0  0
   -1.7852    0.6149   -0.9541 H   0  0  0  0  0  0  0  0  0  0  0  0
   -0.1157    0.8181   -0.4090 H   0  0  0  0  0  0  0  0  0  0  0  0
   -0.5835   -1.1514   -1.1538 C   0  0  0  0  0  0  0  0  0  0  0  0
    0.2402   -1.6444   -0.6356 H   0  0  0  0  0  0  0  0  0  0  0  0
   -1.4431   -1.8218   -1.1836 H   0  0  0  0  0  0  0  0  0  0  0  0
   -0.1474   -0.8166   -2.5867 C   0  0  0  0  0  0  0  0  0  0  0  0
   -0.9682   -0.2998   -3.0892 H   0  0  0  0  0  0  0  0  0  0  0  0
    0.7148   -0.1472   -2.5402 H   0  0  0  0  0  0  0  0  0  0  0  0
    0.2106   -2.0307   -3.3487 N   0  3  0  0  0  0  0  0  0  0  0  0
    0.1766   -2.9033   -2.8501 H   0  0  0  0  0  0  0  0  0  0  0  0
    0.5699   -2.0775   -4.6206 C   0  0  0  0  0  0  0  0  0  0  0  0
    0.6469   -1.0060   -5.3590 N   0  0  0  0  0  0  0  0  0  0  0  0
    0.4241   -0.1173   -4.9467 H   0  0  0  0  0  0  0  0  0  0  0  0
    0.9216   -1.0590   -6.3227 H   0  0  0  0  0  0  0  0  0  0  0  0
    0.8635   -3.2159   -5.1819 N   0  0  0  0  0  0  0  0  0  0  0  0
    0.8185   -4.0698   -4.6528 H   0  0  0  0  0  0  0  0  0  0  0  0
    1.1356   -3.2469   -6.1471 H   0  0  0  0  0  0  0  0  0  0  0  0
   -1.5810    1.2029    1.8176 C   0  0  0  0  0  0  0  0  0  0  0  0
   -1.3359    2.2674    1.2627 O   0  0  0  0  0  0  0  0  0  0  0  0
   -1.9526    1.1129    3.0985 N   0  0  0  0  0  0  0  0  0  0  0  0
   -2.1697    0.1997    3.4630 H   0  0  0  0  0  0  0  0  0  0  0  0
   -2.1515    2.2672    3.9765 C   0  0  0  0  0  0  0  0  0  0  0  0
   -2.9766    2.8773    3.6031 H   0  0  0  0  0  0  0  0  0  0  0  0
   -2.3830    1.9381    4.9903 H   0  0  0  0  0  0  0  0  0  0  0  0
   -1.2490    2.8821    3.9952 H   0  0  0  0  0  0  0  0  0  0  0  0
  5  6  2  0  0  0  0
  5  7  1  0  0  0  0
  2  3  1  0  0  0  0
  2  4  1  0  0  0  0
  2  5  1  0  0  0  0
  1  2  1  0  0  0  0
 29 30  2  0  0  0  0
 29 31  1  0  0  0  0
 26 27  1  0  0  0  0
 26 28  1  0  0  0  0
 23 24  1  0  0  0  0
 23 25  1  0  0  0  0
 22 23  1  0  0  0  0
 22 26  1  0  0  0  0
 20 21  1  0  0  0  0
 20 22  2  0  0  0  0
 17 18  1  0  0  0  0
 17 19  1  0  0  0  0
 17 20  1  0  0  0  0
 14 15  1  0  0  0  0
 14 16  1  0  0  0  0
 14 17  1  0  0  0  0
 11 12  1  0  0  0  0
 11 13  1  0  0  0  0
 11 14  1  0  0  0  0
  9 10  1  0  0  0  0
  9 11  1  0  0  0  0
  9 29  1  0  0  0  0
  7  8  1  0  0  0  0
  7  9  1  0  0  0  0
 33 34  1  0  0  0  0
 33 35  1  0  0  0  0
 33 36  1  0  0  0  0
 31 32  1  0  0  0  0
 31 33  1  0  0  0  0
M  CHG  1  20   1
M  END
$$$$
default_name
  -OEChem-01062215323D

 36 35  0     1  0  0  0  0  0999 V2000
   -4.2256   -3.6731    1.8584 H   0  0  0  0  0  0  0  0  0  0  0  0
   -4.2396   -2.6781    1.4144 C   0  0  0  0  0  0  0  0  0  0  0  0
   -4.9506   -2.0521    1.9514 H   0  0  0  0  0  0  0  0  0  0  0  0
   -4.5266   -2.7521    0.3674 H   0  0  0  0  0  0  0  0  0  0  0  0
   -2.8576   -2.0761    1.5184 C   0  0  0  0  0  0  0  0  0  0  0  0
   -1.9456   -2.7051    2.0404 O   0  0  0  0  0  0  0  0  0  0  0  0
   -2.6926   -0.8481    1.0174 N   0  0  0  0  0  0  0  0  0  0  0  0
   -3.4926   -0.3971    0.5954 H   0  0  0  0  0  0  0  0  0  0  0  0
   -1.4216   -0.1071    1.0434 C   0  0  1  0  0  0  0  0  0  0  0  0
   -0.6742   -0.7236    1.5457 H   0  0  0  0  0  0  0  0  0  0  0  0
   -0.9686    0.1358   -0.4102 C   0  0  0  0  0  0  0  0  0  0  0  0
   -1.7852    0.6149   -0.9541 H   0  0  0  0  0  0  0  0  0  0  0  0
   -0.1157    0.8181   -0.4090 H   0  0  0  0  0  0  0  0  0  0  0  0
   -0.5835   -1.1514   -1.1538 C   0  0  0  0  0  0  0  0  0  0  0  0
    0.2402   -1.6444   -0.6356 H   0  0  0  0  0  0  0  0  0  0  0  0
   -1.4431   -1.8218   -1.1836 H   0  0  0  0  0  0  0  0  0  0  0  0
   -0.1474   -0.8166   -2.5867 C   0  0  0  0  0  0  0  0  0  0  0  0
   -0.9682   -0.2998   -3.0892 H   0  0  0  0  0  0  0  0  0  0  0  0
    0.7148   -0.1472   -2.5402 H   0  0  0  0  0  0  0  0  0  0  0  0
    0.2106   -2.0307   -3.3487 N   0  3  0  0  0  0  0  0  0  0  0  0
    0.1766   -2.9033   -2.8501 H   0  0  0  0  0  0  0  0  0  0  0  0
    0.5699   -2.0775   -4.6206 C   0  0  0  0  0  0  0  0  0  0  0  0
    0.6469   -1.0060   -5.3590 N   0  0  0  0  0  0  0  0  0  0  0  0
    0.4241   -0.1173   -4.9467 H   0  0  0  0  0  0  0  0  0  0  0  0
    0.9216   -1.0590   -6.3227 H   0  0  0  0  0  0  0  0  0  0  0  0
    0.8635   -3.2159   -5.1819 N   0  0  0  0  0  0  0  0  0  0  0  0
    0.8185   -4.0698   -4.6528 H   0  0  0  0  0  0  0  0  0  0  0  0
    1.1356   -3.2469   -6.1471 H   0  0  0  0  0  0  0  0  0  0  0  0
   -1.5810    1.2029    1.8176 C   0  0  0  0  0  0  0  0  0  0  0  0
   -1.6087    2.2659    1.2090 O   0  0  0  0  0  0  0  0  0  0  0  0
   -1.6464    1.1196    3.1501 N   0  0  0  0  0  0  0  0  0  0  0  0
   -1.6537    0.2022    3.5650 H   0  0  0  0  0  0  0  0  0  0  0  0
   -1.8003    2.2746    4.0362 C   0  0  0  0  0  0  0  0  0  0  0  0
   -2.7615    2.7581    3.8492 H   0  0  0  0  0  0  0  0  0  0  0  0
   -1.7571    1.9612    5.0801 H   0  0  0  0  0  0  0  0  0  0  0  0
   -1.0066    3.0002    3.8454 H   0  0  0  0  0  0  0  0  0  0  0  0
  5  6  2  0  0  0  0
  5  7  1  0  0  0  0
  2  3  1  0  0  0  0
  2  4  1  0  0  0  0
  2  5  1  0  0  0  0
  1  2  1  0  0  0  0
 29 30  2  0  0  0  0
 29 31  1  0  0  0  0
 26 27  1  0  0  0  0
 26 28  1  0  0  0  0
 23 24  1  0  0  0  0
 23 25  1  0  0  0  0
 22 23  1  0  0  0  0
 22 26  1  0  0  0  0
 20 21  1  0  0  0  0
 20 22  2  0  0  0  0
 17 18  1  0  0  0  0
 17 19  1  0  0  0  0
 17 20  1  0  0  0  0
 14 15  1  0  0  0  0
 14 16  1  0  0  0  0
 14 17  1  0  0  0  0
 11 12  1  0  0  0  0
 11 13  1  0  0  0  0
 11 14  1  0  0  0  0
  9 10  1  0  0  0  0
  9 11  1  0  0  0  0
  9 29  1  0  0  0  0
  7  8  1  0  0  0  0
  7  9  1  0  0  0  0
 33 34  1  0  0  0  0
 33 35  1  0  0  0  0
 33 36  1  0  0  0  0
 31 32  1  0  0  0  0
 31 33  1  0  0  0  0
M  CHG  1  20   1
M  END
$$$$
default_name
  -OEChem-01062215323D

 36 35  0     1  0  0  0  0  0999 V2000
   -4.2256   -3.6731    1.8584 H   0  0  0  0  0  0  0  0  0  0  0  0
   -4.2396   -2.6781    1.4144 C   0  0  0  0  0  0  0  0  0  0  0  0
   -4.9506   -2.0521    1.9514 H   0  0  0  0  0  0  0  0  0  0  0  0
   -4.5266   -2.7521    0.3674 H   0  0  0  0  0  0  0  0  0  0  0  0
   -2.8576   -2.0761    1.5184 C   0  0  0  0  0  0  0  0  0  0  0  0
   -1.9456   -2.7051    2.0404 O   0  0  0  0  0  0  0  0  0  0  0  0
   -2.6926   -0.8481    1.0174 N   0  0  0  0  0  0  0  0  0  0  0  0
   -3.4926   -0.3971    0.5954 H   0  0  0  0  0  0  0  0  0  0  0  0
   -1.4216   -0.1071    1.0434 C   0  0  1  0  0  0  0  0  0  0  0  0
   -0.6742   -0.7236    1.5457 H   0  0  0  0  0  0  0  0  0  0  0  0
   -0.9686    0.1358   -0.4102 C   0  0  0  0  0  0  0  0  0  0  0  0
   -1.7852    0.6149   -0.9541 H   0  0  0  0  0  0  0  0  0  0  0  0
   -0.1157    0.8181   -0.4090 H   0  0  0  0  0  0  0  0  0  0  0  0
   -0.5835   -1.1514   -1.1538 C   0  0  0  0  0  0  0  0  0  0  0  0
    0.2402   -1.6444   -0.6356 H   0  0  0  0  0  0  0  0  0  0  0  0
   -1.4431   -1.8218   -1.1836 H   0  0  0  0  0  0  0  0  0  0  0  0
   -0.1474   -0.8166   -2.5867 C   0  0  0  0  0  0  0  0  0  0  0  0
   -0.9682   -0.2998   -3.0892 H   0  0  0  0  0  0  0  0  0  0  0  0
    0.7148   -0.1472   -2.5402 H   0  0  0  0  0  0  0  0  0  0  0  0
    0.2106   -2.0307   -3.3487 N   0  3  0  0  0  0  0  0  0  0  0  0
    0.1766   -2.9033   -2.8501 H   0  0  0  0  0  0  0  0  0  0  0  0
    0.5699   -2.0775   -4.6206 C   0  0  0  0  0  0  0  0  0  0  0  0
    0.6469   -1.0060   -5.3590 N   0  0  0  0  0  0  0  0  0  0  0  0
    0.4241   -0.1173   -4.9467 H   0  0  0  0  0  0  0  0  0  0  0  0
    0.9216   -1.0590   -6.3227 H   0  0  0  0  0  0  0  0  0  0  0  0
    0.8635   -3.2159   -5.1819 N   0  0  0  0  0  0  0  0  0  0  0  0
    0.8185   -4.0698   -4.6528 H   0  0  0  0  0  0  0  0  0  0  0  0
    1.1356   -3.2469   -6.1471 H   0  0  0  0  0  0  0  0  0  0  0  0
   -1.5810    1.2029    1.8176 C   0  0  0  0  0  0  0  0  0  0  0  0
   -1.8840    2.2273    1.2177 O   0  0  0  0  0  0  0  0  0  0  0  0
   -1.3402    1.1676    3.1320 N   0  0  0  0  0  0  0  0  0  0  0  0
   -1.1331    0.2749    3.5492 H   0  0  0  0  0  0  0  0  0  0  0  0
   -1.4488    2.3294    4.0159 C   0  0  0  0  0  0  0  0  0  0  0  0
   -2.4835    2.6777    4.0424 H   0  0  0  0  0  0  0  0  0  0  0  0
   -1.1357    2.0679    5.0275 H   0  0  0  0  0  0  0  0  0  0  0  0
   -0.8210    3.1419    3.6437 H   0  0  0  0  0  0  0  0  0  0  0  0
  5  6  2  0  0  0  0
  5  7  1  0  0  0  0
  2  3  1  0  0  0  0
  2  4  1  0  0  0  0
  2  5  1  0  0  0  0
  1  2  1  0  0  0  0
 29 30  2  0  0  0  0
 29 31  1  0  0  0  0
 26 27  1  0  0  0  0
 26 28  1  0  0  0  0
 23 24  1  0  0  0  0
 23 25  1  0  0  0  0
 22 23  1  0  0  0  0
 22 26  1  0  0  0  0
 20 21  1  0  0  0  0
 20 22  2  0  0  0  0
 17 18  1  0  0  0  0
 17 19  1  0  0  0  0
 17 20  1  0  0  0  0
 14 15  1  0  0  0  0
 14 16  1  0  0  0  0
 14 17  1  0  0  0  0
 11 12  1  0  0  0  0
 11 13  1  0  0  0  0
 11 14  1  0  0  0  0
  9 10  1  0  0  0  0
  9 11  1  0  0  0  0
  9 29  1  0  0  0  0
  7  8  1  0  0  0  0
  7  9  1  0  0  0  0
 33 34  1  0  0  0  0
 33 35  1  0  0  0  0
 33 36  1  0  0  0  0
 31 32  1  0  0  0  0
 31 33  1  0  0  0  0
M  CHG  1  20   1
M  END
$$$$
default_name
  -OEChem-01062215323D

 36 35  0     1  0  0  0  0  0999 V2000
   -4.2256   -3.6731    1.8584 H   0  0  0  0  0  0  0  0  0  0  0  0
   -4.2396   -2.6781    1.4144 C   0  0  0  0  0  0  0  0  0  0  0  0
   -4.9506   -2.0521    1.9514 H   0  0  0  0  0  0  0  0  0  0  0  0
   -4.5266   -2.7521    0.3674 H   0  0  0  0  0  0  0  0  0  0  0  0
   -2.8576   -2.0761    1.5184 C   0  0  0  0  0  0  0  0  0  0  0  0
   -1.9456   -2.7051    2.0404 O   0  0  0  0  0  0  0  0  0  0  0  0
   -2.6926   -0.8481    1.0174 N   0  0  0  0  0  0  0  0  0  0  0  0
   -3.4926   -0.3971    0.5954 H   0  0  0  0  0  0  0  0  0  0  0  0
   -1.4216   -0.1071    1.0434 C   0  0  1  0  0  0  0  0  0  0  0  0
   -0.6742   -0.7236    1.5457 H   0  0  0  0  0  0  0  0  0  0  0  0
   -0.9686    0.1358   -0.4102 C   0  0  0  0  0  0  0  0  0  0  0  0
   -1.7852    0.6149   -0.9541 H   0  0  0  0  0  0  0  0  0  0  0  0
   -0.1157    0.8181   -0.4090 H   0  0  0  0  0  0  0  0  0  0  0  0
   -0.5835   -1.1514   -1.1538 C   0  0  0  0  0  0  0  0  0  0  0  0
    0.2402   -1.6444   -0.6356 H   0  0  0  0  0  0  0  0  0  0  0  0
   -1.4431   -1.8218   -1.1836 H   0  0  0  0  0  0  0  0  0  0  0  0
   -0.1474   -0.8166   -2.5867 C   0  0  0  0  0  0  0  0  0  0  0  0
   -0.9682   -0.2998   -3.0892 H   0  0  0  0  0  0  0  0  0  0  0  0
    0.7148   -0.1472   -2.5402 H   0  0  0  0  0  0  0  0  0  0  0  0
    0.2106   -2.0307   -3.3487 N   0  3  0  0  0  0  0  0  0  0  0  0
    0.1766   -2.9033   -2.8501 H   0  0  0  0  0  0  0  0  0  0  0  0
    0.5699   -2.0775   -4.6206 C   0  0  0  0  0  0  0  0  0  0  0  0
    0.6469   -1.0060   -5.3590 N   0  0  0  0  0  0  0  0  0  0  0  0
    0.4241   -0.1173   -4.9467 H   0  0  0  0  0  0  0  0  0  0  0  0
    0.9216   -1.0590   -6.3227 H   0  0  0  0  0  0  0  0  0  0  0  0
    0.8635   -3.2159   -5.1819 N   0  0  0  0  0  0  0  0  0  0  0  0
    0.8185   -4.0698   -4.6528 H   0  0  0  0  0  0  0  0  0  0  0  0
    1.1356   -3.2469   -6.1471 H   0  0  0  0  0  0  0  0  0  0  0  0
   -1.5810    1.2029    1.8176 C   0  0  0  0  0  0  0  0  0  0  0  0
   -2.1429    2.1542    1.2881 O   0  0  0  0  0  0  0  0  0  0  0  0
   -1.0547    1.2536    3.0453 N   0  0  0  0  0  0  0  0  0  0  0  0
   -0.6432    0.4129    3.4166 H   0  0  0  0  0  0  0  0  0  0  0  0
   -1.1210    2.4278    3.9169 C   0  0  0  0  0  0  0  0  0  0  0  0
   -2.1617    2.6417    4.1696 H   0  0  0  0  0  0  0  0  0  0  0  0
   -0.5610    2.2510    4.8360 H   0  0  0  0  0  0  0  0  0  0  0  0
   -0.7051    3.2977    3.4040 H   0  0  0  0  0  0  0  0  0  0  0  0
  5  6  2  0  0  0  0
  5  7  1  0  0  0  0
  2  3  1  0  0  0  0
  2  4  1  0  0  0  0
  2  5  1  0  0  0  0
  1  2  1  0  0  0  0
 29 30  2  0  0  0  0
 29 31  1  0  0  0  0
 26 27  1  0  0  0  0
 26 28  1  0  0  0  0
 23 24  1  0  0  0  0
 23 25  1  0  0  0  0
 22 23  1  0  0  0  0
 22 26  1  0  0  0  0
 20 21  1  0  0  0  0
 20 22  2  0  0  0  0
 17 18  1  0  0  0  0
 17 19  1  0  0  0  0
 17 20  1  0  0  0  0
 14 15  1  0  0  0  0
 14 16  1  0  0  0  0
 14 17  1  0  0  0  0
 11 12  1  0  0  0  0
 11 13  1  0  0  0  0
 11 14  1  0  0  0  0
  9 10  1  0  0  0  0
  9 11  1  0  0  0  0
  9 29  1  0  0  0  0
  7  8  1  0  0  0  0
  7  9  1  0  0  0  0
 33 34  1  0  0  0  0
 33 35  1  0  0  0  0
 33 36  1  0  0  0  0
 31 32  1  0  0  0  0
 31 33  1  0  0  0  0
M  CHG  1  20   1
M  END
$$$$
default_name
  -OEChem-01062215323D

 36 35  0     1  0  0  0  0  0999 V2000
   -4.2256   -3.6731    1.8584 H   0  0  0  0  0  0  0  0  0  0  0  0
   -4.2396   -2.6781    1.4144 C   0  0  0  0  0  0  0  0  0  0  0  0
   -4.9506   -2.0521    1.9514 H   0  0  0  0  0  0  0  0  0  0  0  0
   -4.5266   -2.7521    0.3674 H   0  0  0  0  0  0  0  0  0  0  0  0
   -2.8576   -2.0761    1.5184 C   0  0  0  0  0  0  0  0  0  0  0  0
   -1.9456   -2.7051    2.0404 O   0  0  0  0  0  0  0  0  0  0  0  0
   -2.6926   -0.8481    1.0174 N   0  0  0  0  0  0  0  0  0  0  0  0
   -3.4926   -0.3971    0.5954 H   0  0  0  0  0  0  0  0  0  0  0  0
   -1.4216   -0.1071    1.0434 C   0  0  1  0  0  0  0  0  0  0  0  0
   -0.6742   -0.7236    1.5457 H   0  0  0  0  0  0  0  0  0  0  0  0
   -0.9686    0.1358   -0.4102 C   0  0  0  0  0  0  0  0  0  0  0  0
   -1.7852    0.6149   -0.9541 H   0  0  0  0  0  0  0  0  0  0  0  0
   -0.1157    0.8181   -0.4090 H   0  0  0  0  0  0  0  0  0  0  0  0
   -0.5835   -1.1514   -1.1538 C   0  0  0  0  0  0  0  0  0  0  0  0
    0.2402   -1.6444   -0.6356 H   0  0  0  0  0  0  0  0  0  0  0  0
   -1.4431   -1.8218   -1.1836 H   0  0  0  0  0  0  0  0  0  0  0  0
   -0.1474   -0.8166   -2.5867 C   0  0  0  0  0  0  0  0  0  0  0  0
   -0.9682   -0.2998   -3.0892 H   0  0  0  0  0  0  0  0  0  0  0  0
    0.7148   -0.1472   -2.5402 H   0  0  0  0  0  0  0  0  0  0  0  0
    0.2106   -2.0307   -3.3487 N   0  3  0  0  0  0  0  0  0  0  0  0
    0.1766   -2.9033   -2.8501 H   0  0  0  0  0  0  0  0  0  0  0  0
    0.5699   -2.0775   -4.6206 C   0  0  0  0  0  0  0  0  0  0  0  0
    0.6469   -1.0060   -5.3590 N   0  0  0  0  0  0  0  0  0  0  0  0
    0.4241   -0.1173   -4.9467 H   0  0  0  0  0  0  0  0  0  0  0  0
    0.9216   -1.0590   -6.3227 H   0  0  0  0  0  0  0  0  0  0  0  0
    0.8635   -3.2159   -5.1819 N   0  0  0  0  0  0  0  0  0  0  0  0
    0.8185   -4.0698   -4.6528 H   0  0  0  0  0  0  0  0  0  0  0  0
    1.1356   -3.2469   -6.1471 H   0  0  0  0  0  0  0  0  0  0  0  0
   -1.5810    1.2029    1.8176 C   0  0  0  0  0  0  0  0  0  0  0  0
   -2.3679    2.0516    1.4154 O   0  0  0  0  0  0  0  0  0  0  0  0
   -0.8093    1.3717    2.8960 N   0  0  0  0  0  0  0  0  0  0  0  0
   -0.2175    0.6068    3.1762 H   0  0  0  0  0  0  0  0  0  0  0  0
   -0.8393    2.5631    3.7459 C   0  0  0  0  0  0  0  0  0  0  0  0
   -1.8180    2.6525    4.2222 H   0  0  0  0  0  0  0  0  0  0  0  0
   -0.0724    2.4979    4.5189 H   0  0  0  0  0  0  0  0  0  0  0  0
   -0.6666    3.4569    3.1425 H   0  0  0  0  0  0  0  0  0  0  0  0
  5  6  2  0  0  0  0
  5  7  1  0  0  0  0
  2  3  1  0  0  0  0
  2  4  1  0  0  0  0
  2  5  1  0  0  0  0
  1  2  1  0  0  0  0
 29 30  2  0  0  0  0
 29 31  1  0  0  0  0
 26 27  1  0  0  0  0
 26 28  1  0  0  0  0
 23 24  1  0  0  0  0
 23 25  1  0  0  0  0
 22 23  1  0  0  0  0
 22 26  1  0  0  0  0
 20 21  1  0  0  0  0
 20 22  2  0  0  0  0
 17 18  1  0  0  0  0
 17 19  1  0  0  0  0
 17 20  1  0  0  0  0
 14 15  1  0  0  0  0
 14 16  1  0  0  0  0
 14 17  1  0  0  0  0
 11 12  1  0  0  0  0
 11 13  1  0  0  0  0
 11 14  1  0  0  0  0
  9 10  1  0  0  0  0
  9 11  1  0  0  0  0
  9 29  1  0  0  0  0
  7  8  1  0  0  0  0
  7  9  1  0  0  0  0
 33 34  1  0  0  0  0
 33 35  1  0  0  0  0
 33 36  1  0  0  0  0
 31 32  1  0  0  0  0
 31 33  1  0  0  0  0
M  CHG  1  20   1
M  END
$$$$
default_name
  -OEChem-01062215323D

 36 35  0     1  0  0  0  0  0999 V2000
   -4.2256   -3.6731    1.8584 H   0  0  0  0  0  0  0  0  0  0  0  0
   -4.2396   -2.6781    1.4144 C   0  0  0  0  0  0  0  0  0  0  0  0
   -4.9506   -2.0521    1.9514 H   0  0  0  0  0  0  0  0  0  0  0  0
   -4.5266   -2.7521    0.3674 H   0  0  0  0  0  0  0  0  0  0  0  0
   -2.8576   -2.0761    1.5184 C   0  0  0  0  0  0  0  0  0  0  0  0
   -1.9456   -2.7051    2.0404 O   0  0  0  0  0  0  0  0  0  0  0  0
   -2.6926   -0.8481    1.0174 N   0  0  0  0  0  0  0  0  0  0  0  0
   -3.4926   -0.3971    0.5954 H   0  0  0  0  0  0  0  0  0  0  0  0
   -1.4216   -0.1071    1.0434 C   0  0  1  0  0  0  0  0  0  0  0  0
   -0.6742   -0.7236    1.5457 H   0  0  0  0  0  0  0  0  0  0  0  0
   -0.9686    0.1358   -0.4102 C   0  0  0  0  0  0  0  0  0  0  0  0
   -1.7852    0.6149   -0.9541 H   0  0  0  0  0  0  0  0  0  0  0  0
   -0.1157    0.8181   -0.4090 H   0  0  0  0  0  0  0  0  0  0  0  0
   -0.5835   -1.1514   -1.1538 C   0  0  0  0  0  0  0  0  0  0  0  0
    0.2402   -1.6444   -0.6356 H   0  0  0  0  0  0  0  0  0  0  0  0
   -1.4431   -1.8218   -1.1836 H   0  0  0  0  0  0  0  0  0  0  0  0
   -0.1474   -0.8166   -2.5867 C   0  0  0  0  0  0  0  0  0  0  0  0
   -0.9682   -0.2998   -3.0892 H   0  0  0  0  0  0  0  0  0  0  0  0
    0.7148   -0.1472   -2.5402 H   0  0  0  0  0  0  0  0  0  0  0  0
    0.2106   -2.0307   -3.3487 N   0  3  0  0  0  0  0  0  0  0  0  0
    0.1766   -2.9033   -2.8501 H   0  0  0  0  0  0  0  0  0  0  0  0
    0.5699   -2.0775   -4.6206 C   0  0  0  0  0  0  0  0  0  0  0  0
    0.6469   -1.0060   -5.3590 N   0  0  0  0  0  0  0  0  0  0  0  0
    0.4241   -0.1173   -4.9467 H   0  0  0  0  0  0  0  0  0  0  0  0
    0.9216   -1.0590   -6.3227 H   0  0  0  0  0  0  0  0  0  0  0  0
    0.8635   -3.2159   -5.1819 N   0  0  0  0  0  0  0  0  0  0  0  0
    0.8185   -4.0698   -4.6528 H   0  0  0  0  0  0  0  0  0  0  0  0
    1.1356   -3.2469   -6.1471 H   0  0  0  0  0  0  0  0  0  0  0  0
   -1.5810    1.2029    1.8176 C   0  0  0  0  0  0  0  0  0  0  0  0
   -2.5435    1.9264    1.5910 O   0  0  0  0  0  0  0  0  0  0  0  0
   -0.6209    1.5139    2.6942 N   0  0  0  0  0  0  0  0  0  0  0  0
    0.1150    0.8433    2.8444 H   0  0  0  0  0  0  0  0  0  0  0  0
   -0.6227    2.7261    3.5147 C   0  0  0  0  0  0  0  0  0  0  0  0
   -1.4757    2.7094    4.1965 H   0  0  0  0  0  0  0  0  0  0  0  0
    0.2970    2.7918    4.0975 H   0  0  0  0  0  0  0  0  0  0  0  0
   -0.7083    3.6087    2.8771 H   0  0  0  0  0  0  0  0  0  0  0  0
  5  6  2  0  0  0  0
  5  7  1  0  0  0  0
  2  3  1  0  0  0  0
  2  4  1  0  0  0  0
  2  5  1  0  0  0  0
  1  2  1  0  0  0  0
 29 30  2  0  0  0  0
 29 31  1  0  0  0  0
 26 27  1  0  0  0  0
 26 28  1  0  0  0  0
 23 24  1  0  0  0  0
 23 25  1  0  0  0  0
 22 23  1  0  0  0  0
 22 26  1  0  0  0  0
 20 21  1  0  0  0  0
 20 22  2  0  0  0  0
 17 18  1  0  0  0  0
 17 19  1  0  0  0  0
 17 20  1  0  0  0  0
 14 15  1  0  0  0  0
 14 16  1  0  0  0  0
 14 17  1  0  0  0  0
 11 12  1  0  0  0  0
 11 13  1  0  0  0  0
 11 14  1  0  0  0  0
  9 10  1  0  0  0  0
  9 11  1  0  0  0  0
  9 29  1  0  0  0  0
  7  8  1  0  0  0  0
  7  9  1  0  0  0  0
 33 34  1  0  0  0  0
 33 35  1  0  0  0  0
 33 36  1  0  0  0  0
 31 32  1  0  0  0  0
 31 33  1  0  0  0  0
M  CHG  1  20   1
M  END
$$$$
default_name
  -OEChem-01062215323D

 36 35  0     1  0  0  0  0  0999 V2000
   -4.2256   -3.6731    1.8584 H   0  0  0  0  0  0  0  0  0  0  0  0
   -4.2396   -2.6781    1.4144 C   0  0  0  0  0  0  0  0  0  0  0  0
   -4.9506   -2.0521    1.9514 H   0  0  0  0  0  0  0  0  0  0  0  0
   -4.5266   -2.7521    0.3674 H   0  0  0  0  0  0  0  0  0  0  0  0
   -2.8576   -2.0761    1.5184 C   0  0  0  0  0  0  0  0  0  0  0  0
   -1.9456   -2.7051    2.0404 O   0  0  0  0  0  0  0  0  0  0  0  0
   -2.6926   -0.8481    1.0174 N   0  0  0  0  0  0  0  0  0  0  0  0
   -3.4926   -0.3971    0.5954 H   0  0  0  0  0  0  0  0  0  0  0  0
   -1.4216   -0.1071    1.0434 C   0  0  1  0  0  0  0  0  0  0  0  0
   -0.6742   -0.7236    1.5457 H   0  0  0  0  0  0  0  0  0  0  0  0
   -0.9686    0.1358   -0.4102 C   0  0  0  0  0  0  0  0  0  0  0  0
   -1.7852    0.6149   -0.9541 H   0  0  0  0  0  0  0  0  0  0  0  0
   -0.1157    0.8181   -0.4090 H   0  0  0  0  0  0  0  0  0  0  0  0
   -0.5835   -1.1514   -1.1538 C   0  0  0  0  0  0  0  0  0  0  0  0
    0.2402   -1.6444   -0.6356 H   0  0  0  0  0  0  0  0  0  0  0  0
   -1.4431   -1.8218   -1.1836 H   0  0  0  0  0  0  0  0  0  0  0  0
   -0.1474   -0.8166   -2.5867 C   0  0  0  0  0  0  0  0  0  0  0  0
   -0.9682   -0.2998   -3.0892 H   0  0  0  0  0  0  0  0  0  0  0  0
    0.7148   -0.1472   -2.5402 H   0  0  0  0  0  0  0  0  0  0  0  0
    0.2106   -2.0307   -3.3487 N   0  3  0  0  0  0  0  0  0  0  0  0
    0.1766   -2.9033   -2.8501 H   0  0  0  0  0  0  0  0  0  0  0  0
    0.5699   -2.0775   -4.6206 C   0  0  0  0  0  0  0  0  0  0  0  0
    0.6469   -1.0060   -5.3590 N   0  0  0  0  0  0  0  0  0  0  0  0
    0.4241   -0.1173   -4.9467 H   0  0  0  0  0  0  0  0  0  0  0  0
    0.9216   -1.0590   -6.3227 H   0  0  0  0  0  0  0  0  0  0  0  0
    0.8635   -3.2159   -5.1819 N   0  0  0  0  0  0  0  0  0  0  0  0
    0.8185   -4.0698   -4.6528 H   0  0  0  0  0  0  0  0  0  0  0  0
    1.1356   -3.2469   -6.1471 H   0  0  0  0  0  0  0  0  0  0  0  0
   -1.5810    1.2029    1.8176 C   0  0  0  0  0  0  0  0  0  0  0  0
   -2.6578    1.7872    1.8030 O   0  0  0  0  0  0  0  0  0  0  0  0
   -0.5023    1.6705    2.4537 N   0  0  0  0  0  0  0  0  0  0  0  0
    0.3318    1.1064    2.4439 H   0  0  0  0  0  0  0  0  0  0  0  0
   -0.4860    2.9057    3.2390 C   0  0  0  0  0  0  0  0  0  0  0  0
   -1.1582    2.8084    4.0942 H   0  0  0  0  0  0  0  0  0  0  0  0
    0.5219    3.1128    3.6008 H   0  0  0  0  0  0  0  0  0  0  0  0
   -0.8272    3.7427    2.6259 H   0  0  0  0  0  0  0  0  0  0  0  0
  5  6  2  0  0  0  0
  5  7  1  0  0  0  0
  2  3  1  0  0  0  0
  2  4  1  0  0  0  0
  2  5  1  0  0  0  0
  1  2  1  0  0  0  0
 29 30  2  0  0  0  0
 29 31  1  0  0  0  0
 26 27  1  0  0  0  0
 26 28  1  0  0  0  0
 23 24  1  0  0  0  0
 23 25  1  0  0  0  0
 22 23  1  0  0  0  0
 22 26  1  0  0  0  0
 20 21  1  0  0  0  0
 20 22  2  0  0  0  0
 17 18  1  0  0  0  0
 17 19  1  0  0  0  0
 17 20  1  0  0  0  0
 14 15  1  0  0  0  0
 14 16  1  0  0  0  0
 14 17  1  0  0  0  0
 11 12  1  0  0  0  0
 11 13  1  0  0  0  0
 11 14  1  0  0  0  0
  9 10  1  0  0  0  0
  9 11  1  0  0  0  0
  9 29  1  0  0  0  0
  7  8  1  0  0  0  0
  7  9  1  0  0  0  0
 33 34  1  0  0  0  0
 33 35  1  0  0  0  0
 33 36  1  0  0  0  0
 31 32  1  0  0  0  0
 31 33  1  0  0  0  0
M  CHG  1  20   1
M  END
$$$$
default_name
  -OEChem-01062215323D

 36 35  0     1  0  0  0  0  0999 V2000
   -4.2256   -3.6731    1.8584 H   0  0  0  0  0  0  0  0  0  0  0  0
   -4.2396   -2.6781    1.4144 C   0  0  0  0  0  0  0  0  0  0  0  0
   -4.9506   -2.0521    1.9514 H   0  0  0  0  0  0  0  0  0  0  0  0
   -4.5266   -2.7521    0.3674 H   0  0  0  0  0  0  0  0  0  0  0  0
   -2.8576   -2.0761    1.5184 C   0  0  0  0  0  0  0  0  0  0  0  0
   -1.9456   -2.7051    2.0404 O   0  0  0  0  0  0  0  0  0  0  0  0
   -2.6926   -0.8481    1.0174 N   0  0  0  0  0  0  0  0  0  0  0  0
   -3.4926   -0.3971    0.5954 H   0  0  0  0  0  0  0  0  0  0  0  0
   -1.4216   -0.1071    1.0434 C   0  0  1  0  0  0  0  0  0  0  0  0
   -0.6742   -0.7236    1.5457 H   0  0  0  0  0  0  0  0  0  0  0  0
   -0.9686    0.1358   -0.4102 C   0  0  0  0  0  0  0  0  0  0  0  0
   -1.7852    0.6149   -0.9541 H   0  0  0  0  0  0  0  0  0  0  0  0
   -0.1157    0.8181   -0.4090 H   0  0  0  0  0  0  0  0  0  0  0  0
   -0.5835   -1.1514   -1.1538 C   0  0  0  0  0  0  0  0  0  0  0  0
    0.2402   -1.6444   -0.6356 H   0  0  0  0  0  0  0  0  0  0  0  0
   -1.4431   -1.8218   -1.1836 H   0  0  0  0  0  0  0  0  0  0  0  0
   -0.1474   -0.8166   -2.5867 C   0  0  0  0  0  0  0  0  0  0  0  0
   -0.9682   -0.2998   -3.0892 H   0  0  0  0  0  0  0  0  0  0  0  0
    0.7148   -0.1472   -2.5402 H   0  0  0  0  0  0  0  0  0  0  0  0
    0.2106   -2.0307   -3.3487 N   0  3  0  0  0  0  0  0  0  0  0  0
    0.1766   -2.9033   -2.8501 H   0  0  0  0  0  0  0  0  0  0  0  0
    0.5699   -2.0775   -4.6206 C   0  0  0  0  0  0  0  0  0  0  0  0
    0.6469   -1.0060   -5.3590 N   0  0  0  0  0  0  0  0  0  0  0  0
    0.4241   -0.1173   -4.9467 H   0  0  0  0  0  0  0  0  0  0  0  0
    0.9216   -1.0590   -6.3227 H   0  0  0  0  0  0  0  0  0  0  0  0
    0.8635   -3.2159   -5.1819 N   0  0  0  0  0  0  0  0  0  0  0  0
    0.8185   -4.0698   -4.6528 H   0  0  0  0  0  0  0  0  0  0  0  0
    1.1356   -3.2469   -6.1471 H   0  0  0  0  0  0  0  0  0  0  0  0
   -1.5810    1.2029    1.8176 C   0  0  0  0  0  0  0  0  0  0  0  0
   -2.7030    1.6436    2.0368 O   0  0  0  0  0  0  0  0  0  0  0  0
   -0.4615    1.8307    2.1908 N   0  0  0  0  0  0  0  0  0  0  0  0
    0.4179    1.3781    2.0019 H   0  0  0  0  0  0  0  0  0  0  0  0
   -0.4387    3.0896    2.9376 C   0  0  0  0  0  0  0  0  0  0  0  0
   -0.8872    2.9429    3.9225 H   0  0  0  0  0  0  0  0  0  0  0  0
    0.5871    3.4388    3.0625 H   0  0  0  0  0  0  0  0  0  0  0  0
   -1.0152    3.8497    2.4060 H   0  0  0  0  0  0  0  0  0  0  0  0
  5  6  2  0  0  0  0
  5  7  1  0  0  0  0
  2  3  1  0  0  0  0
  2  4  1  0  0  0  0
  2  5  1  0  0  0  0
  1  2  1  0  0  0  0
 29 30  2  0  0  0  0
 29 31  1  0  0  0  0
 26 27  1  0  0  0  0
 26 28  1  0  0  0  0
 23 24  1  0  0  0  0
 23 25  1  0  0  0  0
 22 23  1  0  0  0  0
 22 26  1  0  0  0  0
 20 21  1  0  0  0  0
 20 22  2  0  0  0  0
 17 18  1  0  0  0  0
 17 19  1  0  0  0  0
 17 20  1  0  0  0  0
 14 15  1  0  0  0  0
 14 16  1  0  0  0  0
 14 17  1  0  0  0  0
 11 12  1  0  0  0  0
 11 13  1  0  0  0  0
 11 14  1  0  0  0  0
  9 10  1  0  0  0  0
  9 11  1  0  0  0  0
  9 29  1  0  0  0  0
  7  8  1  0  0  0  0
  7  9  1  0  0  0  0
 33 34  1  0  0  0  0
 33 35  1  0  0  0  0
 33 36  1  0  0  0  0
 31 32  1  0  0  0  0
 31 33  1  0  0  0  0
M  CHG  1  20   1
M  END
$$$$
default_name
  -OEChem-01062215323D

 36 35  0     1  0  0  0  0  0999 V2000
   -4.2256   -3.6731    1.8584 H   0  0  0  0  0  0  0  0  0  0  0  0
   -4.2396   -2.6781    1.4144 C   0  0  0  0  0  0  0  0  0  0  0  0
   -4.9506   -2.0521    1.9514 H   0  0  0  0  0  0  0  0  0  0  0  0
   -4.5266   -2.7521    0.3674 H   0  0  0  0  0  0  0  0  0  0  0  0
   -2.8576   -2.0761    1.5184 C   0  0  0  0  0  0  0  0  0  0  0  0
   -1.9456   -2.7051    2.0404 O   0  0  0  0  0  0  0  0  0  0  0  0
   -2.6926   -0.8481    1.0174 N   0  0  0  0  0  0  0  0  0  0  0  0
   -3.4926   -0.3971    0.5954 H   0  0  0  0  0  0  0  0  0  0  0  0
   -1.4216   -0.1071    1.0434 C   0  0  1  0  0  0  0  0  0  0  0  0
   -0.6213   -0.8056    1.2936 H   0  0  0  0  0  0  0  0  0  0  0  0
   -1.1603    0.4629   -0.3651 C   0  0  0  0  0  0  0  0  0  0  0  0
   -2.0361    1.0354   -0.6772 H   0  0  0  0  0  0  0  0  0  0  0  0
   -0.3076    1.1442   -0.3219 H   0  0  0  0  0  0  0  0  0  0  0  0
   -0.8890   -0.6181   -1.4215 C   0  0  0  0  0  0  0  0  0  0  0  0
   -0.0096   -1.1983   -1.1383 H   0  0  0  0  0  0  0  0  0  0  0  0
   -1.7519   -1.2814   -1.4888 H   0  0  0  0  0  0  0  0  0  0  0  0
   -0.6407    0.0366   -2.7872 C   0  0  0  0  0  0  0  0  0  0  0  0
   -1.5149    0.6365   -3.0504 H   0  0  0  0  0  0  0  0  0  0  0  0
    0.2270    0.6953   -2.7044 H   0  0  0  0  0  0  0  0  0  0  0  0
   -0.3980   -0.9695   -3.8416 N   0  3  0  0  0  0  0  0  0  0  0  0
   -0.3754   -1.9320   -3.5509 H   0  0  0  0  0  0  0  0  0  0  0  0
   -0.2087   -0.7242   -5.1273 C   0  0  0  0  0  0  0  0  0  0  0  0
   -0.2181    0.4864   -5.6107 N   0  0  0  0  0  0  0  0  0  0  0  0
   -0.3758    1.2561   -4.9846 H   0  0  0  0  0  0  0  0  0  0  0  0
   -0.0723    0.6552   -6.5890 H   0  0  0  0  0  0  0  0  0  0  0  0
   -0.0027   -1.7027   -5.9624 N   0  0  0  0  0  0  0  0  0  0  0  0
    0.0131   -2.6538   -5.6367 H   0  0  0  0  0  0  0  0  0  0  0  0
    0.1404   -1.5122   -6.9370 H   0  0  0  0  0  0  0  0  0  0  0  0
   -1.4649    0.9937    2.1053 C   0  0  0  0  0  0  0  0  0  0  0  0
   -2.4874    1.1646    2.7583 O   0  0  0  0  0  0  0  0  0  0  0  0
   -0.3727    1.7520    2.2423 N   0  0  0  0  0  0  0  0  0  0  0  0
    0.4360    1.5174    1.6901 H   0  0  0  0  0  0  0  0  0  0  0  0
   -0.2496    2.8433    3.2101 C   0  0  0  0  0  0  0  0  0  0  0  0
   -0.3079    2.4449    4.2253 H   0  0  0  0  0  0  0  0  0  0  0  0
    0.7041    3.3573    3.0840 H   0  0  0  0  0  0  0  0  0  0  0  0
   -1.0642    3.5578    3.0730 H   0  0  0  0  0  0  0  0  0  0  0  0
  5  6  2  0  0  0  0
  5  7  1  0  0  0  0
  2  3  1  0  0  0  0
  2  4  1  0  0  0  0
  2  5  1  0  0  0  0
  1  2  1  0  0  0  0
 29 30  2  0  0  0  0
 29 31  1  0  0  0  0
 26 27  1  0  0  0  0
 26 28  1  0  0  0  0
 23 24  1  0  0  0  0
 23 25  1  0  0  0  0
 22 23  1  0  0  0  0
 22 26  1  0  0  0  0
 20 21  1  0  0  0  0
 20 22  2  0  0  0  0
 17 18  1  0  0  0  0
 17 19  1  0  0  0  0
 17 20  1  0  0  0  0
 14 15  1  0  0  0  0
 14 16  1  0  0  0  0
 14 17  1  0  0  0  0
 11 12  1  0  0  0  0
 11 13  1  0  0  0  0
 11 14  1  0  0  0  0
  9 10  1  0  0  0  0
  9 11  1  0  0  0  0
  9 29  1  0  0  0  0
  7  8  1  0  0  0  0
  7  9  1  0  0  0  0
 33 34  1  0  0  0  0
 33 35  1  0  0  0  0
 33 36  1  0  0  0  0
 31 32  1  0  0  0  0
 31 33  1  0  0  0  0
M  CHG  1  20   1
M  END
$$$$
default_name
  -OEChem-01062215323D

 36 35  0     1  0  0  0  0  0999 V2000
   -4.2256   -3.6731    1.8584 H   0  0  0  0  0  0  0  0  0  0  0  0
   -4.2396   -2.6781    1.4144 C   0  0  0  0  0  0  0  0  0  0  0  0
   -4.9506   -2.0521    1.9514 H   0  0  0  0  0  0  0  0  0  0  0  0
   -4.5266   -2.7521    0.3674 H   0  0  0  0  0  0  0  0  0  0  0  0
   -2.8576   -2.0761    1.5184 C   0  0  0  0  0  0  0  0  0  0  0  0
   -1.9456   -2.7051    2.0404 O   0  0  0  0  0  0  0  0  0  0  0  0
   -2.6926   -0.8481    1.0174 N   0  0  0  0  0  0  0  0  0  0  0  0
   -3.4926   -0.3971    0.5954 H   0  0  0  0  0  0  0  0  0  0  0  0
   -1.4216   -0.1071    1.0434 C   0  0  1  0  0  0  0  0  0  0  0  0
   -0.6213   -0.8056    1.2936 H   0  0  0  0  0  0  0  0  0  0  0  0
   -1.1603    0.4629   -0.3651 C   0  0  0  0  0  0  0  0  0  0  0  0
   -2.0361    1.0354   -0.6772 H   0  0  0  0  0  0  0  0  0  0  0  0
   -0.3076    1.1442   -0.3219 H   0  0  0  0  0  0  0  0  0  0  0  0
   -0.8890   -0.6181   -1.4215 C   0  0  0  0  0  0  0  0  0  0  0  0
   -0.0096   -1.1983   -1.1383 H   0  0  0  0  0  0  0  0  0  0  0  0
   -1.7519   -1.2814   -1.4888 H   0  0  0  0  0  0  0  0  0  0  0  0
   -0.6407    0.0366   -2.7872 C   0  0  0  0  0  0  0  0  0  0  0  0
   -1.5149    0.6365   -3.0504 H   0  0  0  0  0  0  0  0  0  0  0  0
    0.2270    0.6953   -2.7044 H   0  0  0  0  0  0  0  0  0  0  0  0
   -0.3980   -0.9695   -3.8416 N   0  3  0  0  0  0  0  0  0  0  0  0
   -0.3754   -1.9320   -3.5509 H   0  0  0  0  0  0  0  0  0  0  0  0
   -0.2087   -0.7242   -5.1273 C   0  0  0  0  0  0  0  0  0  0  0  0
   -0.2181    0.4864   -5.6107 N   0  0  0  0  0  0  0  0  0  0  0  0
   -0.3758    1.2561   -4.9846 H   0  0  0  0  0  0  0  0  0  0  0  0
   -0.0723    0.6552   -6.5890 H   0  0  0  0  0  0  0  0  0  0  0  0
   -0.0027   -1.7027   -5.9624 N   0  0  0  0  0  0  0  0  0  0  0  0
    0.0131   -2.6538   -5.6367 H   0  0  0  0  0  0  0  0  0  0  0  0
    0.1404   -1.5122   -6.9370 H   0  0  0  0  0  0  0  0  0  0  0  0
   -1.4649    0.9937    2.1053 C   0  0  0  0  0  0  0  0  0  0  0  0
   -2.3622    0.9947    2.9395 O   0  0  0  0  0  0  0  0  0  0  0  0
   -0.5212    1.9383    2.0431 N   0  0  0  0  0  0  0  0  0  0  0  0
    0.1999    1.8388    1.3473 H   0  0  0  0  0  0  0  0  0  0  0  0
   -0.4195    3.0572    2.9814 C   0  0  0  0  0  0  0  0  0  0  0  0
   -0.2156    2.6797    3.9856 H   0  0  0  0  0  0  0  0  0  0  0  0
    0.3857    3.7304    2.6843 H   0  0  0  0  0  0  0  0  0  0  0  0
   -1.3606    3.6109    3.0058 H   0  0  0  0  0  0  0  0  0  0  0  0
  5  6  2  0  0  0  0
  5  7  1  0  0  0  0
  2  3  1  0  0  0  0
  2  4  1  0  0  0  0
  2  5  1  0  0  0  0
  1  2  1  0  0  0  0
 29 30  2  0  0  0  0
 29 31  1  0  0  0  0
 26 27  1  0  0  0  0
 26 28  1  0  0  0  0
 23 24  1  0  0  0  0
 23 25  1  0  0  0  0
 22 23  1  0  0  0  0
 22 26  1  0  0  0  0
 20 21  1  0  0  0  0
 20 22  2  0  0  0  0
 17 18  1  0  0  0  0
 17 19  1  0  0  0  0
 17 20  1  0  0  0  0
 14 15  1  0  0  0  0
 14 16  1  0  0  0  0
 14 17  1  0  0  0  0
 11 12  1  0  0  0  0
 11 13  1  0  0  0  0
 11 14  1  0  0  0  0
  9 10  1  0  0  0  0
  9 11  1  0  0  0  0
  9 29  1  0  0  0  0
  7  8  1  0  0  0  0
  7  9  1  0  0  0  0
 33 34  1  0  0  0  0
 33 35  1  0  0  0  0
 33 36  1  0  0  0  0
 31 32  1  0  0  0  0
 31 33  1  0  0  0  0
M  CHG  1  20   1
M  END
$$$$
default_name
  -OEChem-01062215323D

 36 35  0     1  0  0  0  0  0999 V2000
   -4.2256   -3.6731    1.8584 H   0  0  0  0  0  0  0  0  0  0  0  0
   -4.2396   -2.6781    1.4144 C   0  0  0  0  0  0  0  0  0  0  0  0
   -4.9506   -2.0521    1.9514 H   0  0  0  0  0  0  0  0  0  0  0  0
   -4.5266   -2.7521    0.3674 H   0  0  0  0  0  0  0  0  0  0  0  0
   -2.8576   -2.0761    1.5184 C   0  0  0  0  0  0  0  0  0  0  0  0
   -1.9456   -2.7051    2.0404 O   0  0  0  0  0  0  0  0  0  0  0  0
   -2.6926   -0.8481    1.0174 N   0  0  0  0  0  0  0  0  0  0  0  0
   -3.4926   -0.3971    0.5954 H   0  0  0  0  0  0  0  0  0  0  0  0
   -1.4216   -0.1071    1.0434 C   0  0  1  0  0  0  0  0  0  0  0  0
   -0.6213   -0.8056    1.2936 H   0  0  0  0  0  0  0  0  0  0  0  0
   -1.1603    0.4629   -0.3651 C   0  0  0  0  0  0  0  0  0  0  0  0
   -2.0361    1.0354   -0.6772 H   0  0  0  0  0  0  0  0  0  0  0  0
   -0.3076    1.1442   -0.3219 H   0  0  0  0  0  0  0  0  0  0  0  0
   -0.8890   -0.6181   -1.4215 C   0  0  0  0  0  0  0  0  0  0  0  0
   -0.0096   -1.1983   -1.1383 H   0  0  0  0  0  0  0  0  0  0  0  0
   -1.7519   -1.2814   -1.4888 H   0  0  0  0  0  0  0  0  0  0  0  0
   -0.6407    0.0366   -2.7872 C   0  0  0  0  0  0  0  0  0  0  0  0
   -1.5149    0.6365   -3.0504 H   0  0  0  0  0  0  0  0  0  0  0  0
    0.2270    0.6953   -2.7044 H   0  0  0  0  0  0  0  0  0  0  0  0
   -0.3980   -0.9695   -3.8416 N   0  3  0  0  0  0  0  0  0  0  0  0
   -0.3754   -1.9320   -3.5509 H   0  0  0  0  0  0  0  0  0  0  0  0
   -0.2087   -0.7242   -5.1273 C   0  0  0  0  0  0  0  0  0  0  0  0
   -0.2181    0.4864   -5.6107 N   0  0  0  0  0  0  0  0  0  0  0  0
   -0.3758    1.2561   -4.9846 H   0  0  0  0  0  0  0  0  0  0  0  0
   -0.0723    0.6552   -6.5890 H   0  0  0  0  0  0  0  0  0  0  0  0
   -0.0027   -1.7027   -5.9624 N   0  0  0  0  0  0  0  0  0  0  0  0
    0.0131   -2.6538   -5.6367 H   0  0  0  0  0  0  0  0  0  0  0  0
    0.1404   -1.5122   -6.9370 H   0  0  0  0  0  0  0  0  0  0  0  0
   -1.4649    0.9937    2.1053 C   0  0  0  0  0  0  0  0  0  0  0  0
   -2.1770    0.8545    3.0924 O   0  0  0  0  0  0  0  0  0  0  0  0
   -0.7351    2.0901    1.8769 N   0  0  0  0  0  0  0  0  0  0  0  0
   -0.1498    2.1043    1.0577 H   0  0  0  0  0  0  0  0  0  0  0  0
   -0.6646    3.2317    2.7905 C   0  0  0  0  0  0  0  0  0  0  0  0
   -0.2132    2.9213    3.7353 H   0  0  0  0  0  0  0  0  0  0  0  0
   -0.0633    4.0306    2.3547 H   0  0  0  0  0  0  0  0  0  0  0  0
   -1.6690    3.6085    2.9957 H   0  0  0  0  0  0  0  0  0  0  0  0
  5  6  2  0  0  0  0
  5  7  1  0  0  0  0
  2  3  1  0  0  0  0
  2  4  1  0  0  0  0
  2  5  1  0  0  0  0
  1  2  1  0  0  0  0
 29 30  2  0  0  0  0
 29 31  1  0  0  0  0
 26 27  1  0  0  0  0
 26 28  1  0  0  0  0
 23 24  1  0  0  0  0
 23 25  1  0  0  0  0
 22 23  1  0  0  0  0
 22 26  1  0  0  0  0
 20 21  1  0  0  0  0
 20 22  2  0  0  0  0
 17 18  1  0  0  0  0
 17 19  1  0  0  0  0
 17 20  1  0  0  0  0
 14 15  1  0  0  0  0
 14 16  1  0  0  0  0
 14 17  1  0  0  0  0
 11 12  1  0  0  0  0
 11 13  1  0  0  0  0
 11 14  1  0  0  0  0
  9 10  1  0  0  0  0
  9 11  1  0  0  0  0
  9 29  1  0  0  0  0
  7  8  1  0  0  0  0
  7  9  1  0  0  0  0
 33 34  1  0  0  0  0
 33 35  1  0  0  0  0
 33 36  1  0  0  0  0
 31 32  1  0  0  0  0
 31 33  1  0  0  0  0
M  CHG  1  20   1
M  END
$$$$
default_name
  -OEChem-01062215323D

 36 35  0     1  0  0  0  0  0999 V2000
   -4.2256   -3.6731    1.8584 H   0  0  0  0  0  0  0  0  0  0  0  0
   -4.2396   -2.6781    1.4144 C   0  0  0  0  0  0  0  0  0  0  0  0
   -4.9506   -2.0521    1.9514 H   0  0  0  0  0  0  0  0  0  0  0  0
   -4.5266   -2.7521    0.3674 H   0  0  0  0  0  0  0  0  0  0  0  0
   -2.8576   -2.0761    1.5184 C   0  0  0  0  0  0  0  0  0  0  0  0
   -1.9456   -2.7051    2.0404 O   0  0  0  0  0  0  0  0  0  0  0  0
   -2.6926   -0.8481    1.0174 N   0  0  0  0  0  0  0  0  0  0  0  0
   -3.4926   -0.3971    0.5954 H   0  0  0  0  0  0  0  0  0  0  0  0
   -1.4216   -0.1071    1.0434 C   0  0  1  0  0  0  0  0  0  0  0  0
   -0.6213   -0.8056    1.2936 H   0  0  0  0  0  0  0  0  0  0  0  0
   -1.1603    0.4629   -0.3651 C   0  0  0  0  0  0  0  0  0  0  0  0
   -2.0361    1.0354   -0.6772 H   0  0  0  0  0  0  0  0  0  0  0  0
   -0.3076    1.1442   -0.3219 H   0  0  0  0  0  0  0  0  0  0  0  0
   -0.8890   -0.6181   -1.4215 C   0  0  0  0  0  0  0  0  0  0  0  0
   -0.0096   -1.1983   -1.1383 H   0  0  0  0  0  0  0  0  0  0  0  0
   -1.7519   -1.2814   -1.4888 H   0  0  0  0  0  0  0  0  0  0  0  0
   -0.6407    0.0366   -2.7872 C   0  0  0  0  0  0  0  0  0  0  0  0
   -1.5149    0.6365   -3.0504 H   0  0  0  0  0  0  0  0  0  0  0  0
    0.2270    0.6953   -2.7044 H   0  0  0  0  0  0  0  0  0  0  0  0
   -0.3980   -0.9695   -3.8416 N   0  3  0  0  0  0  0  0  0  0  0  0
   -0.3754   -1.9320   -3.5509 H   0  0  0  0  0  0  0  0  0  0  0  0
   -0.2087   -0.7242   -5.1273 C   0  0  0  0  0  0  0  0  0  0  0  0
   -0.2181    0.4864   -5.6107 N   0  0  0  0  0  0  0  0  0  0  0  0
   -0.3758    1.2561   -4.9846 H   0  0  0  0  0  0  0  0  0  0  0  0
   -0.0723    0.6552   -6.5890 H   0  0  0  0  0  0  0  0  0  0  0  0
   -0.0027   -1.7027   -5.9624 N   0  0  0  0  0  0  0  0  0  0  0  0
    0.0131   -2.6538   -5.6367 H   0  0  0  0  0  0  0  0  0  0  0  0
    0.1404   -1.5122   -6.9370 H   0  0  0  0  0  0  0  0  0  0  0  0
   -1.4649    0.9937    2.1053 C   0  0  0  0  0  0  0  0  0  0  0  0
   -1.9445    0.7534    3.2067 O   0  0  0  0  0  0  0  0  0  0  0  0
   -1.0000    2.1971    1.7552 N   0  0  0  0  0  0  0  0  0  0  0  0
   -0.5892    2.2958    0.8412 H   0  0  0  0  0  0  0  0  0  0  0  0
   -0.9682    3.3547    2.6505 C   0  0  0  0  0  0  0  0  0  0  0  0
   -0.3009    3.1532    3.4912 H   0  0  0  0  0  0  0  0  0  0  0  0
   -0.6123    4.2375    2.1178 H   0  0  0  0  0  0  0  0  0  0  0  0
   -1.9682    3.5507    3.0435 H   0  0  0  0  0  0  0  0  0  0  0  0
  5  6  2  0  0  0  0
  5  7  1  0  0  0  0
  2  3  1  0  0  0  0
  2  4  1  0  0  0  0
  2  5  1  0  0  0  0
  1  2  1  0  0  0  0
 29 30  2  0  0  0  0
 29 31  1  0  0  0  0
 26 27  1  0  0  0  0
 26 28  1  0  0  0  0
 23 24  1  0  0  0  0
 23 25  1  0  0  0  0
 22 23  1  0  0  0  0
 22 26  1  0  0  0  0
 20 21  1  0  0  0  0
 20 22  2  0  0  0  0
 17 18  1  0  0  0  0
 17 19  1  0  0  0  0
 17 20  1  0  0  0  0
 14 15  1  0  0  0  0
 14 16  1  0  0  0  0
 14 17  1  0  0  0  0
 11 12  1  0  0  0  0
 11 13  1  0  0  0  0
 11 14  1  0  0  0  0
  9 10  1  0  0  0  0
  9 11  1  0  0  0  0
  9 29  1  0  0  0  0
  7  8  1  0  0  0  0
  7  9  1  0  0  0  0
 33 34  1  0  0  0  0
 33 35  1  0  0  0  0
 33 36  1  0  0  0  0
 31 32  1  0  0  0  0
 31 33  1  0  0  0  0
M  CHG  1  20   1
M  END
$$$$
default_name
  -OEChem-01062215323D

 36 35  0     1  0  0  0  0  0999 V2000
   -4.2256   -3.6731    1.8584 H   0  0  0  0  0  0  0  0  0  0  0  0
   -4.2396   -2.6781    1.4144 C   0  0  0  0  0  0  0  0  0  0  0  0
   -4.9506   -2.0521    1.9514 H   0  0  0  0  0  0  0  0  0  0  0  0
   -4.5266   -2.7521    0.3674 H   0  0  0  0  0  0  0  0  0  0  0  0
   -2.8576   -2.0761    1.5184 C   0  0  0  0  0  0  0  0  0  0  0  0
   -1.9456   -2.7051    2.0404 O   0  0  0  0  0  0  0  0  0  0  0  0
   -2.6926   -0.8481    1.0174 N   0  0  0  0  0  0  0  0  0  0  0  0
   -3.4926   -0.3971    0.5954 H   0  0  0  0  0  0  0  0  0  0  0  0
   -1.4216   -0.1071    1.0434 C   0  0  1  0  0  0  0  0  0  0  0  0
   -0.6213   -0.8056    1.2936 H   0  0  0  0  0  0  0  0  0  0  0  0
   -1.1603    0.4629   -0.3651 C   0  0  0  0  0  0  0  0  0  0  0  0
   -2.0361    1.0354   -0.6772 H   0  0  0  0  0  0  0  0  0  0  0  0
   -0.3076    1.1442   -0.3219 H   0  0  0  0  0  0  0  0  0  0  0  0
   -0.8890   -0.6181   -1.4215 C   0  0  0  0  0  0  0  0  0  0  0  0
   -0.0096   -1.1983   -1.1383 H   0  0  0  0  0  0  0  0  0  0  0  0
   -1.7519   -1.2814   -1.4888 H   0  0  0  0  0  0  0  0  0  0  0  0
   -0.6407    0.0366   -2.7872 C   0  0  0  0  0  0  0  0  0  0  0  0
   -1.5149    0.6365   -3.0504 H   0  0  0  0  0  0  0  0  0  0  0  0
    0.2270    0.6953   -2.7044 H   0  0  0  0  0  0  0  0  0  0  0  0
   -0.3980   -0.9695   -3.8416 N   0  3  0  0  0  0  0  0  0  0  0  0
   -0.3754   -1.9320   -3.5509 H   0  0  0  0  0  0  0  0  0  0  0  0
   -0.2087   -0.7242   -5.1273 C   0  0  0  0  0  0  0  0  0  0  0  0
   -0.2181    0.4864   -5.6107 N   0  0  0  0  0  0  0  0  0  0  0  0
   -0.3758    1.2561   -4.9846 H   0  0  0  0  0  0  0  0  0  0  0  0
   -0.0723    0.6552   -6.5890 H   0  0  0  0  0  0  0  0  0  0  0  0
   -0.0027   -1.7027   -5.9624 N   0  0  0  0  0  0  0  0  0  0  0  0
    0.0131   -2.6538   -5.6367 H   0  0  0  0  0  0  0  0  0  0  0  0
    0.1404   -1.5122   -6.9370 H   0  0  0  0  0  0  0  0  0  0  0  0
   -1.4649    0.9937    2.1053 C   0  0  0  0  0  0  0  0  0  0  0  0
   -1.6805    0.6983    3.2746 O   0  0  0  0  0  0  0  0  0  0  0  0
   -1.2978    2.2519    1.6862 N   0  0  0  0  0  0  0  0  0  0  0  0
   -1.0883    2.4003    0.7125 H   0  0  0  0  0  0  0  0  0  0  0  0
   -1.3097    3.4181    2.5709 C   0  0  0  0  0  0  0  0  0  0  0  0
   -0.4728    3.3597    3.2701 H   0  0  0  0  0  0  0  0  0  0  0  0
   -1.2238    4.3370    1.9896 H   0  0  0  0  0  0  0  0  0  0  0  0
   -2.2381    3.4414    3.1457 H   0  0  0  0  0  0  0  0  0  0  0  0
  5  6  2  0  0  0  0
  5  7  1  0  0  0  0
  2  3  1  0  0  0  0
  2  4  1  0  0  0  0
  2  5  1  0  0  0  0
  1  2  1  0  0  0  0
 29 30  2  0  0  0  0
 29 31  1  0  0  0  0
 26 27  1  0  0  0  0
 26 28  1  0  0  0  0
 23 24  1  0  0  0  0
 23 25  1  0  0  0  0
 22 23  1  0  0  0  0
 22 26  1  0  0  0  0
 20 21  1  0  0  0  0
 20 22  2  0  0  0  0
 17 18  1  0  0  0  0
 17 19  1  0  0  0  0
 17 20  1  0  0  0  0
 14 15  1  0  0  0  0
 14 16  1  0  0  0  0
 14 17  1  0  0  0  0
 11 12  1  0  0  0  0
 11 13  1  0  0  0  0
 11 14  1  0  0  0  0
  9 10  1  0  0  0  0
  9 11  1  0  0  0  0
  9 29  1  0  0  0  0
  7  8  1  0  0  0  0
  7  9  1  0  0  0  0
 33 34  1  0  0  0  0
 33 35  1  0  0  0  0
 33 36  1  0  0  0  0
 31 32  1  0  0  0  0
 31 33  1  0  0  0  0
M  CHG  1  20   1
M  END
$$$$
default_name
  -OEChem-01062215323D

 36 35  0     1  0  0  0  0  0999 V2000
   -4.2256   -3.6731    1.8584 H   0  0  0  0  0  0  0  0  0  0  0  0
   -4.2396   -2.6781    1.4144 C   0  0  0  0  0  0  0  0  0  0  0  0
   -4.9506   -2.0521    1.9514 H   0  0  0  0  0  0  0  0  0  0  0  0
   -4.5266   -2.7521    0.3674 H   0  0  0  0  0  0  0  0  0  0  0  0
   -2.8576   -2.0761    1.5184 C   0  0  0  0  0  0  0  0  0  0  0  0
   -1.9456   -2.7051    2.0404 O   0  0  0  0  0  0  0  0  0  0  0  0
   -2.6926   -0.8481    1.0174 N   0  0  0  0  0  0  0  0  0  0  0  0
   -3.4926   -0.3971    0.5954 H   0  0  0  0  0  0  0  0  0  0  0  0
   -1.4216   -0.1071    1.0434 C   0  0  1  0  0  0  0  0  0  0  0  0
   -0.6213   -0.8056    1.2936 H   0  0  0  0  0  0  0  0  0  0  0  0
   -1.1603    0.4629   -0.3651 C   0  0  0  0  0  0  0  0  0  0  0  0
   -2.0361    1.0354   -0.6772 H   0  0  0  0  0  0  0  0  0  0  0  0
   -0.3076    1.1442   -0.3219 H   0  0  0  0  0  0  0  0  0  0  0  0
   -0.8890   -0.6181   -1.4215 C   0  0  0  0  0  0  0  0  0  0  0  0
   -0.0096   -1.1983   -1.1383 H   0  0  0  0  0  0  0  0  0  0  0  0
   -1.7519   -1.2814   -1.4888 H   0  0  0  0  0  0  0  0  0  0  0  0
   -0.6407    0.0366   -2.7872 C   0  0  0  0  0  0  0  0  0  0  0  0
   -1.5149    0.6365   -3.0504 H   0  0  0  0  0  0  0  0  0  0  0  0
    0.2270    0.6953   -2.7044 H   0  0  0  0  0  0  0  0  0  0  0  0
   -0.3980   -0.9695   -3.8416 N   0  3  0  0  0  0  0  0  0  0  0  0
   -0.3754   -1.9320   -3.5509 H   0  0  0  0  0  0  0  0  0  0  0  0
   -0.2087   -0.7242   -5.1273 C   0  0  0  0  0  0  0  0  0  0  0  0
   -0.2181    0.4864   -5.6107 N   0  0  0  0  0  0  0  0  0  0  0  0
   -0.3758    1.2561   -4.9846 H   0  0  0  0  0  0  0  0  0  0  0  0
   -0.0723    0.6552   -6.5890 H   0  0  0  0  0  0  0  0  0  0  0  0
   -0.0027   -1.7027   -5.9624 N   0  0  0  0  0  0  0  0  0  0  0  0
    0.0131   -2.6538   -5.6367 H   0  0  0  0  0  0  0  0  0  0  0  0
    0.1404   -1.5122   -6.9370 H   0  0  0  0  0  0  0  0  0  0  0  0
   -1.4649    0.9937    2.1053 C   0  0  0  0  0  0  0  0  0  0  0  0
   -1.4029    0.6931    3.2914 O   0  0  0  0  0  0  0  0  0  0  0  0
   -1.6081    2.2509    1.6745 N   0  0  0  0  0  0  0  0  0  0  0  0
   -1.6132    2.4107    0.6804 H   0  0  0  0  0  0  0  0  0  0  0  0
   -1.6657    3.4173    2.5572 C   0  0  0  0  0  0  0  0  0  0  0  0
   -0.7170    3.5267    3.0871 H   0  0  0  0  0  0  0  0  0  0  0  0
   -1.8563    4.3224    1.9790 H   0  0  0  0  0  0  0  0  0  0  0  0
   -2.4600    3.2882    3.2955 H   0  0  0  0  0  0  0  0  0  0  0  0
  5  6  2  0  0  0  0
  5  7  1  0  0  0  0
  2  3  1  0  0  0  0
  2  4  1  0  0  0  0
  2  5  1  0  0  0  0
  1  2  1  0  0  0  0
 29 30  2  0  0  0  0
 29 31  1  0  0  0  0
 26 27  1  0  0  0  0
 26 28  1  0  0  0  0
 23 24  1  0  0  0  0
 23 25  1  0  0  0  0
 22 23  1  0  0  0  0
 22 26  1  0  0  0  0
 20 21  1  0  0  0  0
 20 22  2  0  0  0  0
 17 18  1  0  0  0  0
 17 19  1  0  0  0  0
 17 20  1  0  0  0  0
 14 15  1  0  0  0  0
 14 16  1  0  0  0  0
 14 17  1  0  0  0  0
 11 12  1  0  0  0  0
 11 13  1  0  0  0  0
 11 14  1  0  0  0  0
  9 10  1  0  0  0  0
  9 11  1  0  0  0  0
  9 29  1  0  0  0  0
  7  8  1  0  0  0  0
  7  9  1  0  0  0  0
 33 34  1  0  0  0  0
 33 35  1  0  0  0  0
 33 36  1  0  0  0  0
 31 32  1  0  0  0  0
 31 33  1  0  0  0  0
M  CHG  1  20   1
M  END
$$$$
default_name
  -OEChem-01062215323D

 36 35  0     1  0  0  0  0  0999 V2000
   -4.2256   -3.6731    1.8584 H   0  0  0  0  0  0  0  0  0  0  0  0
   -4.2396   -2.6781    1.4144 C   0  0  0  0  0  0  0  0  0  0  0  0
   -4.9506   -2.0521    1.9514 H   0  0  0  0  0  0  0  0  0  0  0  0
   -4.5266   -2.7521    0.3674 H   0  0  0  0  0  0  0  0  0  0  0  0
   -2.8576   -2.0761    1.5184 C   0  0  0  0  0  0  0  0  0  0  0  0
   -1.9456   -2.7051    2.0404 O   0  0  0  0  0  0  0  0  0  0  0  0
   -2.6926   -0.8481    1.0174 N   0  0  0  0  0  0  0  0  0  0  0  0
   -3.4926   -0.3971    0.5954 H   0  0  0  0  0  0  0  0  0  0  0  0
   -1.4216   -0.1071    1.0434 C   0  0  1  0  0  0  0  0  0  0  0  0
   -0.6213   -0.8056    1.2936 H   0  0  0  0  0  0  0  0  0  0  0  0
   -1.1603    0.4629   -0.3651 C   0  0  0  0  0  0  0  0  0  0  0  0
   -2.0361    1.0354   -0.6772 H   0  0  0  0  0  0  0  0  0  0  0  0
   -0.3076    1.1442   -0.3219 H   0  0  0  0  0  0  0  0  0  0  0  0
   -0.8890   -0.6181   -1.4215 C   0  0  0  0  0  0  0  0  0  0  0  0
   -0.0096   -1.1983   -1.1383 H   0  0  0  0  0  0  0  0  0  0  0  0
   -1.7519   -1.2814   -1.4888 H   0  0  0  0  0  0  0  0  0  0  0  0
   -0.6407    0.0366   -2.7872 C   0  0  0  0  0  0  0  0  0  0  0  0
   -1.5149    0.6365   -3.0504 H   0  0  0  0  0  0  0  0  0  0  0  0
    0.2270    0.6953   -2.7044 H   0  0  0  0  0  0  0  0  0  0  0  0
   -0.3980   -0.9695   -3.8416 N   0  3  0  0  0  0  0  0  0  0  0  0
   -0.3754   -1.9320   -3.5509 H   0  0  0  0  0  0  0  0  0  0  0  0
   -0.2087   -0.7242   -5.1273 C   0  0  0  0  0  0  0  0  0  0  0  0
   -0.2181    0.4864   -5.6107 N   0  0  0  0  0  0  0  0  0  0  0  0
   -0.3758    1.2561   -4.9846 H   0  0  0  0  0  0  0  0  0  0  0  0
   -0.0723    0.6552   -6.5890 H   0  0  0  0  0  0  0  0  0  0  0  0
   -0.0027   -1.7027   -5.9624 N   0  0  0  0  0  0  0  0  0  0  0  0
    0.0131   -2.6538   -5.6367 H   0  0  0  0  0  0  0  0  0  0  0  0
    0.1404   -1.5122   -6.9370 H   0  0  0  0  0  0  0  0  0  0  0  0
   -1.4649    0.9937    2.1053 C   0  0  0  0  0  0  0  0  0  0  0  0
   -1.1308    0.7380    3.2559 O   0  0  0  0  0  0  0  0  0  0  0  0
   -1.9098    2.1942    1.7211 N   0  0  0  0  0  0  0  0  0  0  0  0
   -2.1280    2.3262    0.7470 H   0  0  0  0  0  0  0  0  0  0  0  0
   -2.0120    3.3526    2.6102 C   0  0  0  0  0  0  0  0  0  0  0  0
   -1.0170    3.6427    2.9545 H   0  0  0  0  0  0  0  0  0  0  0  0
   -2.4666    4.1946    2.0866 H   0  0  0  0  0  0  0  0  0  0  0  0
   -2.6190    3.1014    3.4827 H   0  0  0  0  0  0  0  0  0  0  0  0
  5  6  2  0  0  0  0
  5  7  1  0  0  0  0
  2  3  1  0  0  0  0
  2  4  1  0  0  0  0
  2  5  1  0  0  0  0
  1  2  1  0  0  0  0
 29 30  2  0  0  0  0
 29 31  1  0  0  0  0
 26 27  1  0  0  0  0
 26 28  1  0  0  0  0
 23 24  1  0  0  0  0
 23 25  1  0  0  0  0
 22 23  1  0  0  0  0
 22 26  1  0  0  0  0
 20 21  1  0  0  0  0
 20 22  2  0  0  0  0
 17 18  1  0  0  0  0
 17 19  1  0  0  0  0
 17 20  1  0  0  0  0
 14 15  1  0  0  0  0
 14 16  1  0  0  0  0
 14 17  1  0  0  0  0
 11 12  1  0  0  0  0
 11 13  1  0  0  0  0
 11 14  1  0  0  0  0
  9 10  1  0  0  0  0
  9 11  1  0  0  0  0
  9 29  1  0  0  0  0
  7  8  1  0  0  0  0
  7  9  1  0  0  0  0
 33 34  1  0  0  0  0
 33 35  1  0  0  0  0
 33 36  1  0  0  0  0
 31 32  1  0  0  0  0
 31 33  1  0  0  0  0
M  CHG  1  20   1
M  END
$$$$
default_name
  -OEChem-01062215323D

 36 35  0     1  0  0  0  0  0999 V2000
   -4.2256   -3.6731    1.8584 H   0  0  0  0  0  0  0  0  0  0  0  0
   -4.2396   -2.6781    1.4144 C   0  0  0  0  0  0  0  0  0  0  0  0
   -4.9506   -2.0521    1.9514 H   0  0  0  0  0  0  0  0  0  0  0  0
   -4.5266   -2.7521    0.3674 H   0  0  0  0  0  0  0  0  0  0  0  0
   -2.8576   -2.0761    1.5184 C   0  0  0  0  0  0  0  0  0  0  0  0
   -1.9456   -2.7051    2.0404 O   0  0  0  0  0  0  0  0  0  0  0  0
   -2.6926   -0.8481    1.0174 N   0  0  0  0  0  0  0  0  0  0  0  0
   -3.4926   -0.3971    0.5954 H   0  0  0  0  0  0  0  0  0  0  0  0
   -1.4216   -0.1071    1.0434 C   0  0  1  0  0  0  0  0  0  0  0  0
   -0.6213   -0.8056    1.2936 H   0  0  0  0  0  0  0  0  0  0  0  0
   -1.1603    0.4629   -0.3651 C   0  0  0  0  0  0  0  0  0  0  0  0
   -2.0361    1.0354   -0.6772 H   0  0  0  0  0  0  0  0  0  0  0  0
   -0.3076    1.1442   -0.3219 H   0  0  0  0  0  0  0  0  0  0  0  0
   -0.8890   -0.6181   -1.4215 C   0  0  0  0  0  0  0  0  0  0  0  0
   -0.0096   -1.1983   -1.1383 H   0  0  0  0  0  0  0  0  0  0  0  0
   -1.7519   -1.2814   -1.4888 H   0  0  0  0  0  0  0  0  0  0  0  0
   -0.6407    0.0366   -2.7872 C   0  0  0  0  0  0  0  0  0  0  0  0
   -1.5149    0.6365   -3.0504 H   0  0  0  0  0  0  0  0  0  0  0  0
    0.2270    0.6953   -2.7044 H   0  0  0  0  0  0  0  0  0  0  0  0
   -0.3980   -0.9695   -3.8416 N   0  3  0  0  0  0  0  0  0  0  0  0
   -0.3754   -1.9320   -3.5509 H   0  0  0  0  0  0  0  0  0  0  0  0
   -0.2087   -0.7242   -5.1273 C   0  0  0  0  0  0  0  0  0  0  0  0
   -0.2181    0.4864   -5.6107 N   0  0  0  0  0  0  0  0  0  0  0  0
   -0.3758    1.2561   -4.9846 H   0  0  0  0  0  0  0  0  0  0  0  0
   -0.0723    0.6552   -6.5890 H   0  0  0  0  0  0  0  0  0  0  0  0
   -0.0027   -1.7027   -5.9624 N   0  0  0  0  0  0  0  0  0  0  0  0
    0.0131   -2.6538   -5.6367 H   0  0  0  0  0  0  0  0  0  0  0  0
    0.1404   -1.5122   -6.9370 H   0  0  0  0  0  0  0  0  0  0  0  0
   -1.4649    0.9937    2.1053 C   0  0  0  0  0  0  0  0  0  0  0  0
   -0.8825    0.8300    3.1707 O   0  0  0  0  0  0  0  0  0  0  0  0
   -2.1824    2.0855    1.8226 N   0  0  0  0  0  0  0  0  0  0  0  0
   -2.5977    2.1526    0.9078 H   0  0  0  0  0  0  0  0  0  0  0  0
   -2.3250    3.2282    2.7263 C   0  0  0  0  0  0  0  0  0  0  0  0
   -1.3523    3.7000    2.8814 H   0  0  0  0  0  0  0  0  0  0  0  0
   -3.0131    3.9623    2.3051 H   0  0  0  0  0  0  0  0  0  0  0  0
   -2.7042    2.8938    3.6944 H   0  0  0  0  0  0  0  0  0  0  0  0
  5  6  2  0  0  0  0
  5  7  1  0  0  0  0
  2  3  1  0  0  0  0
  2  4  1  0  0  0  0
  2  5  1  0  0  0  0
  1  2  1  0  0  0  0
 29 30  2  0  0  0  0
 29 31  1  0  0  0  0
 26 27  1  0  0  0  0
 26 28  1  0  0  0  0
 23 24  1  0  0  0  0
 23 25  1  0  0  0  0
 22 23  1  0  0  0  0
 22 26  1  0  0  0  0
 20 21  1  0  0  0  0
 20 22  2  0  0  0  0
 17 18  1  0  0  0  0
 17 19  1  0  0  0  0
 17 20  1  0  0  0  0
 14 15  1  0  0  0  0
 14 16  1  0  0  0  0
 14 17  1  0  0  0  0
 11 12  1  0  0  0  0
 11 13  1  0  0  0  0
 11 14  1  0  0  0  0
  9 10  1  0  0  0  0
  9 11  1  0  0  0  0
  9 29  1  0  0  0  0
  7  8  1  0  0  0  0
  7  9  1  0  0  0  0
 33 34  1  0  0  0  0
 33 35  1  0  0  0  0
 33 36  1  0  0  0  0
 31 32  1  0  0  0  0
 31 33  1  0  0  0  0
M  CHG  1  20   1
M  END
$$$$
default_name
  -OEChem-01062215323D

 36 35  0     1  0  0  0  0  0999 V2000
   -4.2256   -3.6731    1.8584 H   0  0  0  0  0  0  0  0  0  0  0  0
   -4.2396   -2.6781    1.4144 C   0  0  0  0  0  0  0  0  0  0  0  0
   -4.9506   -2.0521    1.9514 H   0  0  0  0  0  0  0  0  0  0  0  0
   -4.5266   -2.7521    0.3674 H   0  0  0  0  0  0  0  0  0  0  0  0
   -2.8576   -2.0761    1.5184 C   0  0  0  0  0  0  0  0  0  0  0  0
   -1.9456   -2.7051    2.0404 O   0  0  0  0  0  0  0  0  0  0  0  0
   -2.6926   -0.8481    1.0174 N   0  0  0  0  0  0  0  0  0  0  0  0
   -3.4926   -0.3971    0.5954 H   0  0  0  0  0  0  0  0  0  0  0  0
   -1.4216   -0.1071    1.0434 C   0  0  1  0  0  0  0  0  0  0  0  0
   -0.6213   -0.8056    1.2936 H   0  0  0  0  0  0  0  0  0  0  0  0
   -1.1603    0.4629   -0.3651 C   0  0  0  0  0  0  0  0  0  0  0  0
   -2.0361    1.0354   -0.6772 H   0  0  0  0  0  0  0  0  0  0  0  0
   -0.3076    1.1442   -0.3219 H   0  0  0  0  0  0  0  0  0  0  0  0
   -0.8890   -0.6181   -1.4215 C   0  0  0  0  0  0  0  0  0  0  0  0
   -0.0096   -1.1983   -1.1383 H   0  0  0  0  0  0  0  0  0  0  0  0
   -1.7519   -1.2814   -1.4888 H   0  0  0  0  0  0  0  0  0  0  0  0
   -0.6407    0.0366   -2.7872 C   0  0  0  0  0  0  0  0  0  0  0  0
   -1.5149    0.6365   -3.0504 H   0  0  0  0  0  0  0  0  0  0  0  0
    0.2270    0.6953   -2.7044 H   0  0  0  0  0  0  0  0  0  0  0  0
   -0.3980   -0.9695   -3.8416 N   0  3  0  0  0  0  0  0  0  0  0  0
   -0.3754   -1.9320   -3.5509 H   0  0  0  0  0  0  0  0  0  0  0  0
   -0.2087   -0.7242   -5.1273 C   0  0  0  0  0  0  0  0  0  0  0  0
   -0.2181    0.4864   -5.6107 N   0  0  0  0  0  0  0  0  0  0  0  0
   -0.3758    1.2561   -4.9846 H   0  0  0  0  0  0  0  0  0  0  0  0
   -0.0723    0.6552   -6.5890 H   0  0  0  0  0  0  0  0  0  0  0  0
   -0.0027   -1.7027   -5.9624 N   0  0  0  0  0  0  0  0  0  0  0  0
    0.0131   -2.6538   -5.6367 H   0  0  0  0  0  0  0  0  0  0  0  0
    0.1404   -1.5122   -6.9370 H   0  0  0  0  0  0  0  0  0  0  0  0
   -1.4649    0.9937    2.1053 C   0  0  0  0  0  0  0  0  0  0  0  0
   -0.6752    0.9628    3.0415 O   0  0  0  0  0  0  0  0  0  0  0  0
   -2.4073    1.9323    1.9723 N   0  0  0  0  0  0  0  0  0  0  0  0
   -2.9902    1.9017    1.1518 H   0  0  0  0  0  0  0  0  0  0  0  0
   -2.5834    3.0527    2.8977 C   0  0  0  0  0  0  0  0  0  0  0  0
   -1.7001    3.6945    2.8729 H   0  0  0  0  0  0  0  0  0  0  0  0
   -3.4585    3.6414    2.6197 H   0  0  0  0  0  0  0  0  0  0  0  0
   -2.7097    2.6795    3.9164 H   0  0  0  0  0  0  0  0  0  0  0  0
  5  6  2  0  0  0  0
  5  7  1  0  0  0  0
  2  3  1  0  0  0  0
  2  4  1  0  0  0  0
  2  5  1  0  0  0  0
  1  2  1  0  0  0  0
 29 30  2  0  0  0  0
 29 31  1  0  0  0  0
 26 27  1  0  0  0  0
 26 28  1  0  0  0  0
 23 24  1  0  0  0  0
 23 25  1  0  0  0  0
 22 23  1  0  0  0  0
 22 26  1  0  0  0  0
 20 21  1  0  0  0  0
 20 22  2  0  0  0  0
 17 18  1  0  0  0  0
 17 19  1  0  0  0  0
 17 20  1  0  0  0  0
 14 15  1  0  0  0  0
 14 16  1  0  0  0  0
 14 17  1  0  0  0  0
 11 12  1  0  0  0  0
 11 13  1  0  0  0  0
 11 14  1  0  0  0  0
  9 10  1  0  0  0  0
  9 11  1  0  0  0  0
  9 29  1  0  0  0  0
  7  8  1  0  0  0  0
  7  9  1  0  0  0  0
 33 34  1  0  0  0  0
 33 35  1  0  0  0  0
 33 36  1  0  0  0  0
 31 32  1  0  0  0  0
 31 33  1  0  0  0  0
M  CHG  1  20   1
M  END
$$$$
default_name
  -OEChem-01062215323D

 36 35  0     1  0  0  0  0  0999 V2000
   -4.2256   -3.6731    1.8584 H   0  0  0  0  0  0  0  0  0  0  0  0
   -4.2396   -2.6781    1.4144 C   0  0  0  0  0  0  0  0  0  0  0  0
   -4.9506   -2.0521    1.9514 H   0  0  0  0  0  0  0  0  0  0  0  0
   -4.5266   -2.7521    0.3674 H   0  0  0  0  0  0  0  0  0  0  0  0
   -2.8576   -2.0761    1.5184 C   0  0  0  0  0  0  0  0  0  0  0  0
   -1.9456   -2.7051    2.0404 O   0  0  0  0  0  0  0  0  0  0  0  0
   -2.6926   -0.8481    1.0174 N   0  0  0  0  0  0  0  0  0  0  0  0
   -3.4926   -0.3971    0.5954 H   0  0  0  0  0  0  0  0  0  0  0  0
   -1.4216   -0.1071    1.0434 C   0  0  1  0  0  0  0  0  0  0  0  0
   -0.6213   -0.8056    1.2936 H   0  0  0  0  0  0  0  0  0  0  0  0
   -1.1603    0.4629   -0.3651 C   0  0  0  0  0  0  0  0  0  0  0  0
   -2.0361    1.0354   -0.6772 H   0  0  0  0  0  0  0  0  0  0  0  0
   -0.3076    1.1442   -0.3219 H   0  0  0  0  0  0  0  0  0  0  0  0
   -0.8890   -0.6181   -1.4215 C   0  0  0  0  0  0  0  0  0  0  0  0
   -0.0096   -1.1983   -1.1383 H   0  0  0  0  0  0  0  0  0  0  0  0
   -1.7519   -1.2814   -1.4888 H   0  0  0  0  0  0  0  0  0  0  0  0
   -0.6407    0.0366   -2.7872 C   0  0  0  0  0  0  0  0  0  0  0  0
   -1.5149    0.6365   -3.0504 H   0  0  0  0  0  0  0  0  0  0  0  0
    0.2270    0.6953   -2.7044 H   0  0  0  0  0  0  0  0  0  0  0  0
   -0.3980   -0.9695   -3.8416 N   0  3  0  0  0  0  0  0  0  0  0  0
   -0.3754   -1.9320   -3.5509 H   0  0  0  0  0  0  0  0  0  0  0  0
   -0.2087   -0.7242   -5.1273 C   0  0  0  0  0  0  0  0  0  0  0  0
   -0.2181    0.4864   -5.6107 N   0  0  0  0  0  0  0  0  0  0  0  0
   -0.3758    1.2561   -4.9846 H   0  0  0  0  0  0  0  0  0  0  0  0
   -0.0723    0.6552   -6.5890 H   0  0  0  0  0  0  0  0  0  0  0  0
   -0.0027   -1.7027   -5.9624 N   0  0  0  0  0  0  0  0  0  0  0  0
    0.0131   -2.6538   -5.6367 H   0  0  0  0  0  0  0  0  0  0  0  0
    0.1404   -1.5122   -6.9370 H   0  0  0  0  0  0  0  0  0  0  0  0
   -1.4649    0.9937    2.1053 C   0  0  0  0  0  0  0  0  0  0  0  0
   -0.5228    1.1274    2.8770 O   0  0  0  0  0  0  0  0  0  0  0  0
   -2.5691    1.7450    2.1598 N   0  0  0  0  0  0  0  0  0  0  0  0
   -3.2789    1.5907    1.4625 H   0  0  0  0  0  0  0  0  0  0  0  0
   -2.7695    2.8381    3.1127 C   0  0  0  0  0  0  0  0  0  0  0  0
   -2.0367    3.6267    2.9294 H   0  0  0  0  0  0  0  0  0  0  0  0
   -3.7726    3.2537    3.0088 H   0  0  0  0  0  0  0  0  0  0  0  0
   -2.6353    2.4732    4.1333 H   0  0  0  0  0  0  0  0  0  0  0  0
  5  6  2  0  0  0  0
  5  7  1  0  0  0  0
  2  3  1  0  0  0  0
  2  4  1  0  0  0  0
  2  5  1  0  0  0  0
  1  2  1  0  0  0  0
 29 30  2  0  0  0  0
 29 31  1  0  0  0  0
 26 27  1  0  0  0  0
 26 28  1  0  0  0  0
 23 24  1  0  0  0  0
 23 25  1  0  0  0  0
 22 23  1  0  0  0  0
 22 26  1  0  0  0  0
 20 21  1  0  0  0  0
 20 22  2  0  0  0  0
 17 18  1  0  0  0  0
 17 19  1  0  0  0  0
 17 20  1  0  0  0  0
 14 15  1  0  0  0  0
 14 16  1  0  0  0  0
 14 17  1  0  0  0  0
 11 12  1  0  0  0  0
 11 13  1  0  0  0  0
 11 14  1  0  0  0  0
  9 10  1  0  0  0  0
  9 11  1  0  0  0  0
  9 29  1  0  0  0  0
  7  8  1  0  0  0  0
  7  9  1  0  0  0  0
 33 34  1  0  0  0  0
 33 35  1  0  0  0  0
 33 36  1  0  0  0  0
 31 32  1  0  0  0  0
 31 33  1  0  0  0  0
M  CHG  1  20   1
M  END
$$$$
default_name
  -OEChem-01062215323D

 36 35  0     1  0  0  0  0  0999 V2000
   -4.2256   -3.6731    1.8584 H   0  0  0  0  0  0  0  0  0  0  0  0
   -4.2396   -2.6781    1.4144 C   0  0  0  0  0  0  0  0  0  0  0  0
   -4.9506   -2.0521    1.9514 H   0  0  0  0  0  0  0  0  0  0  0  0
   -4.5266   -2.7521    0.3674 H   0  0  0  0  0  0  0  0  0  0  0  0
   -2.8576   -2.0761    1.5184 C   0  0  0  0  0  0  0  0  0  0  0  0
   -1.9456   -2.7051    2.0404 O   0  0  0  0  0  0  0  0  0  0  0  0
   -2.6926   -0.8481    1.0174 N   0  0  0  0  0  0  0  0  0  0  0  0
   -3.4926   -0.3971    0.5954 H   0  0  0  0  0  0  0  0  0  0  0  0
   -1.4216   -0.1071    1.0434 C   0  0  1  0  0  0  0  0  0  0  0  0
   -0.6213   -0.8056    1.2936 H   0  0  0  0  0  0  0  0  0  0  0  0
   -1.1603    0.4629   -0.3651 C   0  0  0  0  0  0  0  0  0  0  0  0
   -2.0361    1.0354   -0.6772 H   0  0  0  0  0  0  0  0  0  0  0  0
   -0.3076    1.1442   -0.3219 H   0  0  0  0  0  0  0  0  0  0  0  0
   -0.8890   -0.6181   -1.4215 C   0  0  0  0  0  0  0  0  0  0  0  0
   -0.0096   -1.1983   -1.1383 H   0  0  0  0  0  0  0  0  0  0  0  0
   -1.7519   -1.2814   -1.4888 H   0  0  0  0  0  0  0  0  0  0  0  0
   -0.6407    0.0366   -2.7872 C   0  0  0  0  0  0  0  0  0  0  0  0
   -1.5149    0.6365   -3.0504 H   0  0  0  0  0  0  0  0  0  0  0  0
    0.2270    0.6953   -2.7044 H   0  0  0  0  0  0  0  0  0  0  0  0
   -0.3980   -0.9695   -3.8416 N   0  3  0  0  0  0  0  0  0  0  0  0
   -0.3754   -1.9320   -3.5509 H   0  0  0  0  0  0  0  0  0  0  0  0
   -0.2087   -0.7242   -5.1273 C   0  0  0  0  0  0  0  0  0  0  0  0
   -0.2181    0.4864   -5.6107 N   0  0  0  0  0  0  0  0  0  0  0  0
   -0.3758    1.2561   -4.9846 H   0  0  0  0  0  0  0  0  0  0  0  0
   -0.0723    0.6552   -6.5890 H   0  0  0  0  0  0  0  0  0  0  0  0
   -0.0027   -1.7027   -5.9624 N   0  0  0  0  0  0  0  0  0  0  0  0
    0.0131   -2.6538   -5.6367 H   0  0  0  0  0  0  0  0  0  0  0  0
    0.1404   -1.5122   -6.9370 H   0  0  0  0  0  0  0  0  0  0  0  0
   -1.4649    0.9937    2.1053 C   0  0  0  0  0  0  0  0  0  0  0  0
   -0.4358    1.3125    2.6886 O   0  0  0  0  0  0  0  0  0  0  0  0
   -2.6568    1.5364    2.3725 N   0  0  0  0  0  0  0  0  0  0  0  0
   -3.4440    1.2407    1.8187 H   0  0  0  0  0  0  0  0  0  0  0  0
   -2.8707    2.5989    3.3565 C   0  0  0  0  0  0  0  0  0  0  0  0
   -2.3390    3.5012    3.0472 H   0  0  0  0  0  0  0  0  0  0  0  0
   -3.9339    2.8256    3.4460 H   0  0  0  0  0  0  0  0  0  0  0  0
   -2.4859    2.2888    4.3305 H   0  0  0  0  0  0  0  0  0  0  0  0
  5  6  2  0  0  0  0
  5  7  1  0  0  0  0
  2  3  1  0  0  0  0
  2  4  1  0  0  0  0
  2  5  1  0  0  0  0
  1  2  1  0  0  0  0
 29 30  2  0  0  0  0
 29 31  1  0  0  0  0
 26 27  1  0  0  0  0
 26 28  1  0  0  0  0
 23 24  1  0  0  0  0
 23 25  1  0  0  0  0
 22 23  1  0  0  0  0
 22 26  1  0  0  0  0
 20 21  1  0  0  0  0
 20 22  2  0  0  0  0
 17 18  1  0  0  0  0
 17 19  1  0  0  0  0
 17 20  1  0  0  0  0
 14 15  1  0  0  0  0
 14 16  1  0  0  0  0
 14 17  1  0  0  0  0
 11 12  1  0  0  0  0
 11 13  1  0  0  0  0
 11 14  1  0  0  0  0
  9 10  1  0  0  0  0
  9 11  1  0  0  0  0
  9 29  1  0  0  0  0
  7  8  1  0  0  0  0
  7  9  1  0  0  0  0
 33 34  1  0  0  0  0
 33 35  1  0  0  0  0
 33 36  1  0  0  0  0
 31 32  1  0  0  0  0
 31 33  1  0  0  0  0
M  CHG  1  20   1
M  END
$$$$
default_name
  -OEChem-01062215323D

 36 35  0     1  0  0  0  0  0999 V2000
   -4.2256   -3.6731    1.8584 H   0  0  0  0  0  0  0  0  0  0  0  0
   -4.2396   -2.6781    1.4144 C   0  0  0  0  0  0  0  0  0  0  0  0
   -4.9506   -2.0521    1.9514 H   0  0  0  0  0  0  0  0  0  0  0  0
   -4.5266   -2.7521    0.3674 H   0  0  0  0  0  0  0  0  0  0  0  0
   -2.8576   -2.0761    1.5184 C   0  0  0  0  0  0  0  0  0  0  0  0
   -1.9456   -2.7051    2.0404 O   0  0  0  0  0  0  0  0  0  0  0  0
   -2.6926   -0.8481    1.0174 N   0  0  0  0  0  0  0  0  0  0  0  0
   -3.4926   -0.3971    0.5954 H   0  0  0  0  0  0  0  0  0  0  0  0
   -1.4216   -0.1071    1.0434 C   0  0  1  0  0  0  0  0  0  0  0  0
   -0.6213   -0.8056    1.2936 H   0  0  0  0  0  0  0  0  0  0  0  0
   -1.1603    0.4629   -0.3651 C   0  0  0  0  0  0  0  0  0  0  0  0
   -2.0361    1.0354   -0.6772 H   0  0  0  0  0  0  0  0  0  0  0  0
   -0.3076    1.1442   -0.3219 H   0  0  0  0  0  0  0  0  0  0  0  0
   -0.8890   -0.6181   -1.4215 C   0  0  0  0  0  0  0  0  0  0  0  0
   -0.0096   -1.1983   -1.1383 H   0  0  0  0  0  0  0  0  0  0  0  0
   -1.7519   -1.2814   -1.4888 H   0  0  0  0  0  0  0  0  0  0  0  0
   -0.6407    0.0366   -2.7872 C   0  0  0  0  0  0  0  0  0  0  0  0
   -1.5149    0.6365   -3.0504 H   0  0  0  0  0  0  0  0  0  0  0  0
    0.2270    0.6953   -2.7044 H   0  0  0  0  0  0  0  0  0  0  0  0
   -0.3980   -0.9695   -3.8416 N   0  3  0  0  0  0  0  0  0  0  0  0
   -0.3754   -1.9320   -3.5509 H   0  0  0  0  0  0  0  0  0  0  0  0
   -0.2087   -0.7242   -5.1273 C   0  0  0  0  0  0  0  0  0  0  0  0
   -0.2181    0.4864   -5.6107 N   0  0  0  0  0  0  0  0  0  0  0  0
   -0.3758    1.2561   -4.9846 H   0  0  0  0  0  0  0  0  0  0  0  0
   -0.0723    0.6552   -6.5890 H   0  0  0  0  0  0  0  0  0  0  0  0
   -0.0027   -1.7027   -5.9624 N   0  0  0  0  0  0  0  0  0  0  0  0
    0.0131   -2.6538   -5.6367 H   0  0  0  0  0  0  0  0  0  0  0  0
    0.1404   -1.5122   -6.9370 H   0  0  0  0  0  0  0  0  0  0  0  0
   -1.4649    0.9937    2.1053 C   0  0  0  0  0  0  0  0  0  0  0  0
   -0.4200    1.5056    2.4891 O   0  0  0  0  0  0  0  0  0  0  0  0
   -2.6645    1.3208    2.5958 N   0  0  0  0  0  0  0  0  0  0  0  0
   -3.4744    0.8755    2.1960 H   0  0  0  0  0  0  0  0  0  0  0  0
   -2.8801    2.3514    3.6127 C   0  0  0  0  0  0  0  0  0  0  0  0
   -2.5866    3.3266    3.2182 H   0  0  0  0  0  0  0  0  0  0  0  0
   -3.9314    2.3864    3.9014 H   0  0  0  0  0  0  0  0  0  0  0  0
   -2.2718    2.1391    4.4946 H   0  0  0  0  0  0  0  0  0  0  0  0
  5  6  2  0  0  0  0
  5  7  1  0  0  0  0
  2  3  1  0  0  0  0
  2  4  1  0  0  0  0
  2  5  1  0  0  0  0
  1  2  1  0  0  0  0
 29 30  2  0  0  0  0
 29 31  1  0  0  0  0
 26 27  1  0  0  0  0
 26 28  1  0  0  0  0
 23 24  1  0  0  0  0
 23 25  1  0  0  0  0
 22 23  1  0  0  0  0
 22 26  1  0  0  0  0
 20 21  1  0  0  0  0
 20 22  2  0  0  0  0
 17 18  1  0  0  0  0
 17 19  1  0  0  0  0
 17 20  1  0  0  0  0
 14 15  1  0  0  0  0
 14 16  1  0  0  0  0
 14 17  1  0  0  0  0
 11 12  1  0  0  0  0
 11 13  1  0  0  0  0
 11 14  1  0  0  0  0
  9 10  1  0  0  0  0
  9 11  1  0  0  0  0
  9 29  1  0  0  0  0
  7  8  1  0  0  0  0
  7  9  1  0  0  0  0
 33 34  1  0  0  0  0
 33 35  1  0  0  0  0
 33 36  1  0  0  0  0
 31 32  1  0  0  0  0
 31 33  1  0  0  0  0
M  CHG  1  20   1
M  END
$$$$
default_name
  -OEChem-01062215323D

 36 35  0     1  0  0  0  0  0999 V2000
   -4.2256   -3.6731    1.8584 H   0  0  0  0  0  0  0  0  0  0  0  0
   -4.2396   -2.6781    1.4144 C   0  0  0  0  0  0  0  0  0  0  0  0
   -4.9506   -2.0521    1.9514 H   0  0  0  0  0  0  0  0  0  0  0  0
   -4.5266   -2.7521    0.3674 H   0  0  0  0  0  0  0  0  0  0  0  0
   -2.8576   -2.0761    1.5184 C   0  0  0  0  0  0  0  0  0  0  0  0
   -1.9456   -2.7051    2.0404 O   0  0  0  0  0  0  0  0  0  0  0  0
   -2.6926   -0.8481    1.0174 N   0  0  0  0  0  0  0  0  0  0  0  0
   -3.4926   -0.3971    0.5954 H   0  0  0  0  0  0  0  0  0  0  0  0
   -1.4216   -0.1071    1.0434 C   0  0  1  0  0  0  0  0  0  0  0  0
   -0.6213   -0.8056    1.2936 H   0  0  0  0  0  0  0  0  0  0  0  0
   -1.1603    0.4629   -0.3651 C   0  0  0  0  0  0  0  0  0  0  0  0
   -2.0361    1.0354   -0.6772 H   0  0  0  0  0  0  0  0  0  0  0  0
   -0.3076    1.1442   -0.3219 H   0  0  0  0  0  0  0  0  0  0  0  0
   -0.8890   -0.6181   -1.4215 C   0  0  0  0  0  0  0  0  0  0  0  0
   -0.0096   -1.1983   -1.1383 H   0  0  0  0  0  0  0  0  0  0  0  0
   -1.7519   -1.2814   -1.4888 H   0  0  0  0  0  0  0  0  0  0  0  0
   -0.6407    0.0366   -2.7872 C   0  0  0  0  0  0  0  0  0  0  0  0
   -1.5149    0.6365   -3.0504 H   0  0  0  0  0  0  0  0  0  0  0  0
    0.2270    0.6953   -2.7044 H   0  0  0  0  0  0  0  0  0  0  0  0
   -0.3980   -0.9695   -3.8416 N   0  3  0  0  0  0  0  0  0  0  0  0
   -0.3754   -1.9320   -3.5509 H   0  0  0  0  0  0  0  0  0  0  0  0
   -0.2087   -0.7242   -5.1273 C   0  0  0  0  0  0  0  0  0  0  0  0
   -0.2181    0.4864   -5.6107 N   0  0  0  0  0  0  0  0  0  0  0  0
   -0.3758    1.2561   -4.9846 H   0  0  0  0  0  0  0  0  0  0  0  0
   -0.0723    0.6552   -6.5890 H   0  0  0  0  0  0  0  0  0  0  0  0
   -0.0027   -1.7027   -5.9624 N   0  0  0  0  0  0  0  0  0  0  0  0
    0.0131   -2.6538   -5.6367 H   0  0  0  0  0  0  0  0  0  0  0  0
    0.1404   -1.5122   -6.9370 H   0  0  0  0  0  0  0  0  0  0  0  0
   -1.4649    0.9937    2.1053 C   0  0  0  0  0  0  0  0  0  0  0  0
   -0.4767    1.6935    2.2920 O   0  0  0  0  0  0  0  0  0  0  0  0
   -2.5917    1.1127    2.8144 N   0  0  0  0  0  0  0  0  0  0  0  0
   -3.3678    0.5202    2.5688 H   0  0  0  0  0  0  0  0  0  0  0  0
   -2.7970    2.1126    3.8637 C   0  0  0  0  0  0  0  0  0  0  0  0
   -2.7625    3.1146    3.4308 H   0  0  0  0  0  0  0  0  0  0  0  0
   -3.7652    1.9660    4.3441 H   0  0  0  0  0  0  0  0  0  0  0  0
   -2.0075    2.0340    4.6142 H   0  0  0  0  0  0  0  0  0  0  0  0
  5  6  2  0  0  0  0
  5  7  1  0  0  0  0
  2  3  1  0  0  0  0
  2  4  1  0  0  0  0
  2  5  1  0  0  0  0
  1  2  1  0  0  0  0
 29 30  2  0  0  0  0
 29 31  1  0  0  0  0
 26 27  1  0  0  0  0
 26 28  1  0  0  0  0
 23 24  1  0  0  0  0
 23 25  1  0  0  0  0
 22 23  1  0  0  0  0
 22 26  1  0  0  0  0
 20 21  1  0  0  0  0
 20 22  2  0  0  0  0
 17 18  1  0  0  0  0
 17 19  1  0  0  0  0
 17 20  1  0  0  0  0
 14 15  1  0  0  0  0
 14 16  1  0  0  0  0
 14 17  1  0  0  0  0
 11 12  1  0  0  0  0
 11 13  1  0  0  0  0
 11 14  1  0  0  0  0
  9 10  1  0  0  0  0
  9 11  1  0  0  0  0
  9 29  1  0  0  0  0
  7  8  1  0  0  0  0
  7  9  1  0  0  0  0
 33 34  1  0  0  0  0
 33 35  1  0  0  0  0
 33 36  1  0  0  0  0
 31 32  1  0  0  0  0
 31 33  1  0  0  0  0
M  CHG  1  20   1
M  END
$$$$
default_name
  -OEChem-01062215323D

 36 35  0     1  0  0  0  0  0999 V2000
   -4.2256   -3.6731    1.8584 H   0  0  0  0  0  0  0  0  0  0  0  0
   -4.2396   -2.6781    1.4144 C   0  0  0  0  0  0  0  0  0  0  0  0
   -4.9506   -2.0521    1.9514 H   0  0  0  0  0  0  0  0  0  0  0  0
   -4.5266   -2.7521    0.3674 H   0  0  0  0  0  0  0  0  0  0  0  0
   -2.8576   -2.0761    1.5184 C   0  0  0  0  0  0  0  0  0  0  0  0
   -1.9456   -2.7051    2.0404 O   0  0  0  0  0  0  0  0  0  0  0  0
   -2.6926   -0.8481    1.0174 N   0  0  0  0  0  0  0  0  0  0  0  0
   -3.4926   -0.3971    0.5954 H   0  0  0  0  0  0  0  0  0  0  0  0
   -1.4216   -0.1071    1.0434 C   0  0  1  0  0  0  0  0  0  0  0  0
   -0.6213   -0.8056    1.2936 H   0  0  0  0  0  0  0  0  0  0  0  0
   -1.1603    0.4629   -0.3651 C   0  0  0  0  0  0  0  0  0  0  0  0
   -2.0361    1.0354   -0.6772 H   0  0  0  0  0  0  0  0  0  0  0  0
   -0.3076    1.1442   -0.3219 H   0  0  0  0  0  0  0  0  0  0  0  0
   -0.8890   -0.6181   -1.4215 C   0  0  0  0  0  0  0  0  0  0  0  0
   -0.0096   -1.1983   -1.1383 H   0  0  0  0  0  0  0  0  0  0  0  0
   -1.7519   -1.2814   -1.4888 H   0  0  0  0  0  0  0  0  0  0  0  0
   -0.6407    0.0366   -2.7872 C   0  0  0  0  0  0  0  0  0  0  0  0
   -1.5149    0.6365   -3.0504 H   0  0  0  0  0  0  0  0  0  0  0  0
    0.2270    0.6953   -2.7044 H   0  0  0  0  0  0  0  0  0  0  0  0
   -0.3980   -0.9695   -3.8416 N   0  3  0  0  0  0  0  0  0  0  0  0
   -0.3754   -1.9320   -3.5509 H   0  0  0  0  0  0  0  0  0  0  0  0
   -0.2087   -0.7242   -5.1273 C   0  0  0  0  0  0  0  0  0  0  0  0
   -0.2181    0.4864   -5.6107 N   0  0  0  0  0  0  0  0  0  0  0  0
   -0.3758    1.2561   -4.9846 H   0  0  0  0  0  0  0  0  0  0  0  0
   -0.0723    0.6552   -6.5890 H   0  0  0  0  0  0  0  0  0  0  0  0
   -0.0027   -1.7027   -5.9624 N   0  0  0  0  0  0  0  0  0  0  0  0
    0.0131   -2.6538   -5.6367 H   0  0  0  0  0  0  0  0  0  0  0  0
    0.1404   -1.5122   -6.9370 H   0  0  0  0  0  0  0  0  0  0  0  0
   -1.4649    0.9937    2.1053 C   0  0  0  0  0  0  0  0  0  0  0  0
   -0.6019    1.8633    2.1108 O   0  0  0  0  0  0  0  0  0  0  0  0
   -2.4432    0.9264    3.0136 N   0  0  0  0  0  0  0  0  0  0  0  0
   -3.1316    0.1988    2.9116 H   0  0  0  0  0  0  0  0  0  0  0  0
   -2.6272    1.8987    4.0924 C   0  0  0  0  0  0  0  0  0  0  0  0
   -2.8548    2.8798    3.6704 H   0  0  0  0  0  0  0  0  0  0  0  0
   -3.4468    1.5929    4.7439 H   0  0  0  0  0  0  0  0  0  0  0  0
   -1.7111    1.9809    4.6814 H   0  0  0  0  0  0  0  0  0  0  0  0
  5  6  2  0  0  0  0
  5  7  1  0  0  0  0
  2  3  1  0  0  0  0
  2  4  1  0  0  0  0
  2  5  1  0  0  0  0
  1  2  1  0  0  0  0
 29 30  2  0  0  0  0
 29 31  1  0  0  0  0
 26 27  1  0  0  0  0
 26 28  1  0  0  0  0
 23 24  1  0  0  0  0
 23 25  1  0  0  0  0
 22 23  1  0  0  0  0
 22 26  1  0  0  0  0
 20 21  1  0  0  0  0
 20 22  2  0  0  0  0
 17 18  1  0  0  0  0
 17 19  1  0  0  0  0
 17 20  1  0  0  0  0
 14 15  1  0  0  0  0
 14 16  1  0  0  0  0
 14 17  1  0  0  0  0
 11 12  1  0  0  0  0
 11 13  1  0  0  0  0
 11 14  1  0  0  0  0
  9 10  1  0  0  0  0
  9 11  1  0  0  0  0
  9 29  1  0  0  0  0
  7  8  1  0  0  0  0
  7  9  1  0  0  0  0
 33 34  1  0  0  0  0
 33 35  1  0  0  0  0
 33 36  1  0  0  0  0
 31 32  1  0  0  0  0
 31 33  1  0  0  0  0
M  CHG  1  20   1
M  END
$$$$
default_name
  -OEChem-01062215323D

 36 35  0     1  0  0  0  0  0999 V2000
   -4.2256   -3.6731    1.8584 H   0  0  0  0  0  0  0  0  0  0  0  0
   -4.2396   -2.6781    1.4144 C   0  0  0  0  0  0  0  0  0  0  0  0
   -4.9506   -2.0521    1.9514 H   0  0  0  0  0  0  0  0  0  0  0  0
   -4.5266   -2.7521    0.3674 H   0  0  0  0  0  0  0  0  0  0  0  0
   -2.8576   -2.0761    1.5184 C   0  0  0  0  0  0  0  0  0  0  0  0
   -1.9456   -2.7051    2.0404 O   0  0  0  0  0  0  0  0  0  0  0  0
   -2.6926   -0.8481    1.0174 N   0  0  0  0  0  0  0  0  0  0  0  0
   -3.4926   -0.3971    0.5954 H   0  0  0  0  0  0  0  0  0  0  0  0
   -1.4216   -0.1071    1.0434 C   0  0  1  0  0  0  0  0  0  0  0  0
   -0.6213   -0.8056    1.2936 H   0  0  0  0  0  0  0  0  0  0  0  0
   -1.1603    0.4629   -0.3651 C   0  0  0  0  0  0  0  0  0  0  0  0
   -2.0361    1.0354   -0.6772 H   0  0  0  0  0  0  0  0  0  0  0  0
   -0.3076    1.1442   -0.3219 H   0  0  0  0  0  0  0  0  0  0  0  0
   -0.8890   -0.6181   -1.4215 C   0  0  0  0  0  0  0  0  0  0  0  0
   -0.0096   -1.1983   -1.1383 H   0  0  0  0  0  0  0  0  0  0  0  0
   -1.7519   -1.2814   -1.4888 H   0  0  0  0  0  0  0  0  0  0  0  0
   -0.6407    0.0366   -2.7872 C   0  0  0  0  0  0  0  0  0  0  0  0
   -1.5149    0.6365   -3.0504 H   0  0  0  0  0  0  0  0  0  0  0  0
    0.2270    0.6953   -2.7044 H   0  0  0  0  0  0  0  0  0  0  0  0
   -0.3980   -0.9695   -3.8416 N   0  3  0  0  0  0  0  0  0  0  0  0
   -0.3754   -1.9320   -3.5509 H   0  0  0  0  0  0  0  0  0  0  0  0
   -0.2087   -0.7242   -5.1273 C   0  0  0  0  0  0  0  0  0  0  0  0
   -0.2181    0.4864   -5.6107 N   0  0  0  0  0  0  0  0  0  0  0  0
   -0.3758    1.2561   -4.9846 H   0  0  0  0  0  0  0  0  0  0  0  0
   -0.0723    0.6552   -6.5890 H   0  0  0  0  0  0  0  0  0  0  0  0
   -0.0027   -1.7027   -5.9624 N   0  0  0  0  0  0  0  0  0  0  0  0
    0.0131   -2.6538   -5.6367 H   0  0  0  0  0  0  0  0  0  0  0  0
    0.1404   -1.5122   -6.9370 H   0  0  0  0  0  0  0  0  0  0  0  0
   -1.4649    0.9937    2.1053 C   0  0  0  0  0  0  0  0  0  0  0  0
   -0.7870    2.0036    1.9579 O   0  0  0  0  0  0  0  0  0  0  0  0
   -2.2292    0.7746    3.1798 N   0  0  0  0  0  0  0  0  0  0  0  0
   -2.7819   -0.0667    3.2011 H   0  0  0  0  0  0  0  0  0  0  0  0
   -2.3821    1.7242    4.2833 C   0  0  0  0  0  0  0  0  0  0  0  0
   -2.8572    2.6383    3.9208 H   0  0  0  0  0  0  0  0  0  0  0  0
   -2.9978    1.2927    5.0734 H   0  0  0  0  0  0  0  0  0  0  0  0
   -1.4027    1.9834    4.6915 H   0  0  0  0  0  0  0  0  0  0  0  0
  5  6  2  0  0  0  0
  5  7  1  0  0  0  0
  2  3  1  0  0  0  0
  2  4  1  0  0  0  0
  2  5  1  0  0  0  0
  1  2  1  0  0  0  0
 29 30  2  0  0  0  0
 29 31  1  0  0  0  0
 26 27  1  0  0  0  0
 26 28  1  0  0  0  0
 23 24  1  0  0  0  0
 23 25  1  0  0  0  0
 22 23  1  0  0  0  0
 22 26  1  0  0  0  0
 20 21  1  0  0  0  0
 20 22  2  0  0  0  0
 17 18  1  0  0  0  0
 17 19  1  0  0  0  0
 17 20  1  0  0  0  0
 14 15  1  0  0  0  0
 14 16  1  0  0  0  0
 14 17  1  0  0  0  0
 11 12  1  0  0  0  0
 11 13  1  0  0  0  0
 11 14  1  0  0  0  0
  9 10  1  0  0  0  0
  9 11  1  0  0  0  0
  9 29  1  0  0  0  0
  7  8  1  0  0  0  0
  7  9  1  0  0  0  0
 33 34  1  0  0  0  0
 33 35  1  0  0  0  0
 33 36  1  0  0  0  0
 31 32  1  0  0  0  0
 31 33  1  0  0  0  0
M  CHG  1  20   1
M  END
$$$$
default_name
  -OEChem-01062215323D

 36 35  0     1  0  0  0  0  0999 V2000
   -4.2256   -3.6731    1.8584 H   0  0  0  0  0  0  0  0  0  0  0  0
   -4.2396   -2.6781    1.4144 C   0  0  0  0  0  0  0  0  0  0  0  0
   -4.9506   -2.0521    1.9514 H   0  0  0  0  0  0  0  0  0  0  0  0
   -4.5266   -2.7521    0.3674 H   0  0  0  0  0  0  0  0  0  0  0  0
   -2.8576   -2.0761    1.5184 C   0  0  0  0  0  0  0  0  0  0  0  0
   -1.9456   -2.7051    2.0404 O   0  0  0  0  0  0  0  0  0  0  0  0
   -2.6926   -0.8481    1.0174 N   0  0  0  0  0  0  0  0  0  0  0  0
   -3.4926   -0.3971    0.5954 H   0  0  0  0  0  0  0  0  0  0  0  0
   -1.4216   -0.1071    1.0434 C   0  0  1  0  0  0  0  0  0  0  0  0
   -0.6213   -0.8056    1.2936 H   0  0  0  0  0  0  0  0  0  0  0  0
   -1.1603    0.4629   -0.3651 C   0  0  0  0  0  0  0  0  0  0  0  0
   -2.0361    1.0354   -0.6772 H   0  0  0  0  0  0  0  0  0  0  0  0
   -0.3076    1.1442   -0.3219 H   0  0  0  0  0  0  0  0  0  0  0  0
   -0.8890   -0.6181   -1.4215 C   0  0  0  0  0  0  0  0  0  0  0  0
   -0.0096   -1.1983   -1.1383 H   0  0  0  0  0  0  0  0  0  0  0  0
   -1.7519   -1.2814   -1.4888 H   0  0  0  0  0  0  0  0  0  0  0  0
   -0.6407    0.0366   -2.7872 C   0  0  0  0  0  0  0  0  0  0  0  0
   -1.5149    0.6365   -3.0504 H   0  0  0  0  0  0  0  0  0  0  0  0
    0.2270    0.6953   -2.7044 H   0  0  0  0  0  0  0  0  0  0  0  0
   -0.3980   -0.9695   -3.8416 N   0  3  0  0  0  0  0  0  0  0  0  0
   -0.3754   -1.9320   -3.5509 H   0  0  0  0  0  0  0  0  0  0  0  0
   -0.2087   -0.7242   -5.1273 C   0  0  0  0  0  0  0  0  0  0  0  0
   -0.2181    0.4864   -5.6107 N   0  0  0  0  0  0  0  0  0  0  0  0
   -0.3758    1.2561   -4.9846 H   0  0  0  0  0  0  0  0  0  0  0  0
   -0.0723    0.6552   -6.5890 H   0  0  0  0  0  0  0  0  0  0  0  0
   -0.0027   -1.7027   -5.9624 N   0  0  0  0  0  0  0  0  0  0  0  0
    0.0131   -2.6538   -5.6367 H   0  0  0  0  0  0  0  0  0  0  0  0
    0.1404   -1.5122   -6.9370 H   0  0  0  0  0  0  0  0  0  0  0  0
   -1.4649    0.9937    2.1053 C   0  0  0  0  0  0  0  0  0  0  0  0
   -1.0195    2.1047    1.8436 O   0  0  0  0  0  0  0  0  0  0  0  0
   -1.9643    0.6676    3.3015 N   0  0  0  0  0  0  0  0  0  0  0  0
   -2.3426   -0.2583    3.4176 H   0  0  0  0  0  0  0  0  0  0  0  0
   -2.0784    1.6011    4.4233 C   0  0  0  0  0  0  0  0  0  0  0  0
   -2.7695    2.4063    4.1648 H   0  0  0  0  0  0  0  0  0  0  0  0
   -2.4488    1.0858    5.3104 H   0  0  0  0  0  0  0  0  0  0  0  0
   -1.1034    2.0412    4.6437 H   0  0  0  0  0  0  0  0  0  0  0  0
  5  6  2  0  0  0  0
  5  7  1  0  0  0  0
  2  3  1  0  0  0  0
  2  4  1  0  0  0  0
  2  5  1  0  0  0  0
  1  2  1  0  0  0  0
 29 30  2  0  0  0  0
 29 31  1  0  0  0  0
 26 27  1  0  0  0  0
 26 28  1  0  0  0  0
 23 24  1  0  0  0  0
 23 25  1  0  0  0  0
 22 23  1  0  0  0  0
 22 26  1  0  0  0  0
 20 21  1  0  0  0  0
 20 22  2  0  0  0  0
 17 18  1  0  0  0  0
 17 19  1  0  0  0  0
 17 20  1  0  0  0  0
 14 15  1  0  0  0  0
 14 16  1  0  0  0  0
 14 17  1  0  0  0  0
 11 12  1  0  0  0  0
 11 13  1  0  0  0  0
 11 14  1  0  0  0  0
  9 10  1  0  0  0  0
  9 11  1  0  0  0  0
  9 29  1  0  0  0  0
  7  8  1  0  0  0  0
  7  9  1  0  0  0  0
 33 34  1  0  0  0  0
 33 35  1  0  0  0  0
 33 36  1  0  0  0  0
 31 32  1  0  0  0  0
 31 33  1  0  0  0  0
M  CHG  1  20   1
M  END
$$$$
default_name
  -OEChem-01062215323D

 36 35  0     1  0  0  0  0  0999 V2000
   -4.2256   -3.6731    1.8584 H   0  0  0  0  0  0  0  0  0  0  0  0
   -4.2396   -2.6781    1.4144 C   0  0  0  0  0  0  0  0  0  0  0  0
   -4.9506   -2.0521    1.9514 H   0  0  0  0  0  0  0  0  0  0  0  0
   -4.5266   -2.7521    0.3674 H   0  0  0  0  0  0  0  0  0  0  0  0
   -2.8576   -2.0761    1.5184 C   0  0  0  0  0  0  0  0  0  0  0  0
   -1.9456   -2.7051    2.0404 O   0  0  0  0  0  0  0  0  0  0  0  0
   -2.6926   -0.8481    1.0174 N   0  0  0  0  0  0  0  0  0  0  0  0
   -3.4926   -0.3971    0.5954 H   0  0  0  0  0  0  0  0  0  0  0  0
   -1.4216   -0.1071    1.0434 C   0  0  1  0  0  0  0  0  0  0  0  0
   -0.6213   -0.8056    1.2936 H   0  0  0  0  0  0  0  0  0  0  0  0
   -1.1603    0.4629   -0.3651 C   0  0  0  0  0  0  0  0  0  0  0  0
   -2.0361    1.0354   -0.6772 H   0  0  0  0  0  0  0  0  0  0  0  0
   -0.3076    1.1442   -0.3219 H   0  0  0  0  0  0  0  0  0  0  0  0
   -0.8890   -0.6181   -1.4215 C   0  0  0  0  0  0  0  0  0  0  0  0
   -0.0096   -1.1983   -1.1383 H   0  0  0  0  0  0  0  0  0  0  0  0
   -1.7519   -1.2814   -1.4888 H   0  0  0  0  0  0  0  0  0  0  0  0
   -0.6407    0.0366   -2.7872 C   0  0  0  0  0  0  0  0  0  0  0  0
   -1.5149    0.6365   -3.0504 H   0  0  0  0  0  0  0  0  0  0  0  0
    0.2270    0.6953   -2.7044 H   0  0  0  0  0  0  0  0  0  0  0  0
   -0.3980   -0.9695   -3.8416 N   0  3  0  0  0  0  0  0  0  0  0  0
   -0.3754   -1.9320   -3.5509 H   0  0  0  0  0  0  0  0  0  0  0  0
   -0.2087   -0.7242   -5.1273 C   0  0  0  0  0  0  0  0  0  0  0  0
   -0.2181    0.4864   -5.6107 N   0  0  0  0  0  0  0  0  0  0  0  0
   -0.3758    1.2561   -4.9846 H   0  0  0  0  0  0  0  0  0  0  0  0
   -0.0723    0.6552   -6.5890 H   0  0  0  0  0  0  0  0  0  0  0  0
   -0.0027   -1.7027   -5.9624 N   0  0  0  0  0  0  0  0  0  0  0  0
    0.0131   -2.6538   -5.6367 H   0  0  0  0  0  0  0  0  0  0  0  0
    0.1404   -1.5122   -6.9370 H   0  0  0  0  0  0  0  0  0  0  0  0
   -1.4649    0.9937    2.1053 C   0  0  0  0  0  0  0  0  0  0  0  0
   -1.2836    2.1597    1.7757 O   0  0  0  0  0  0  0  0  0  0  0  0
   -1.6666    0.6127    3.3705 N   0  0  0  0  0  0  0  0  0  0  0  0
   -1.8435   -0.3628    3.5464 H   0  0  0  0  0  0  0  0  0  0  0  0
   -1.7370    1.5378    4.5029 C   0  0  0  0  0  0  0  0  0  0  0  0
   -2.5976    2.1998    4.3859 H   0  0  0  0  0  0  0  0  0  0  0  0
   -1.8373    0.9862    5.4385 H   0  0  0  0  0  0  0  0  0  0  0  0
   -0.8336    2.1504    4.5415 H   0  0  0  0  0  0  0  0  0  0  0  0
  5  6  2  0  0  0  0
  5  7  1  0  0  0  0
  2  3  1  0  0  0  0
  2  4  1  0  0  0  0
  2  5  1  0  0  0  0
  1  2  1  0  0  0  0
 29 30  2  0  0  0  0
 29 31  1  0  0  0  0
 26 27  1  0  0  0  0
 26 28  1  0  0  0  0
 23 24  1  0  0  0  0
 23 25  1  0  0  0  0
 22 23  1  0  0  0  0
 22 26  1  0  0  0  0
 20 21  1  0  0  0  0
 20 22  2  0  0  0  0
 17 18  1  0  0  0  0
 17 19  1  0  0  0  0
 17 20  1  0  0  0  0
 14 15  1  0  0  0  0
 14 16  1  0  0  0  0
 14 17  1  0  0  0  0
 11 12  1  0  0  0  0
 11 13  1  0  0  0  0
 11 14  1  0  0  0  0
  9 10  1  0  0  0  0
  9 11  1  0  0  0  0
  9 29  1  0  0  0  0
  7  8  1  0  0  0  0
  7  9  1  0  0  0  0
 33 34  1  0  0  0  0
 33 35  1  0  0  0  0
 33 36  1  0  0  0  0
 31 32  1  0  0  0  0
 31 33  1  0  0  0  0
M  CHG  1  20   1
M  END
$$$$
default_name
  -OEChem-01062215323D

 36 35  0     1  0  0  0  0  0999 V2000
   -4.2256   -3.6731    1.8584 H   0  0  0  0  0  0  0  0  0  0  0  0
   -4.2396   -2.6781    1.4144 C   0  0  0  0  0  0  0  0  0  0  0  0
   -4.9506   -2.0521    1.9514 H   0  0  0  0  0  0  0  0  0  0  0  0
   -4.5266   -2.7521    0.3674 H   0  0  0  0  0  0  0  0  0  0  0  0
   -2.8576   -2.0761    1.5184 C   0  0  0  0  0  0  0  0  0  0  0  0
   -1.9456   -2.7051    2.0404 O   0  0  0  0  0  0  0  0  0  0  0  0
   -2.6926   -0.8481    1.0174 N   0  0  0  0  0  0  0  0  0  0  0  0
   -3.4926   -0.3971    0.5954 H   0  0  0  0  0  0  0  0  0  0  0  0
   -1.4216   -0.1071    1.0434 C   0  0  1  0  0  0  0  0  0  0  0  0
   -0.6213   -0.8056    1.2936 H   0  0  0  0  0  0  0  0  0  0  0  0
   -1.1603    0.4629   -0.3651 C   0  0  0  0  0  0  0  0  0  0  0  0
   -2.0361    1.0354   -0.6772 H   0  0  0  0  0  0  0  0  0  0  0  0
   -0.3076    1.1442   -0.3219 H   0  0  0  0  0  0  0  0  0  0  0  0
   -0.8890   -0.6181   -1.4215 C   0  0  0  0  0  0  0  0  0  0  0  0
   -0.0096   -1.1983   -1.1383 H   0  0  0  0  0  0  0  0  0  0  0  0
   -1.7519   -1.2814   -1.4888 H   0  0  0  0  0  0  0  0  0  0  0  0
   -0.6407    0.0366   -2.7872 C   0  0  0  0  0  0  0  0  0  0  0  0
   -1.5149    0.6365   -3.0504 H   0  0  0  0  0  0  0  0  0  0  0  0
    0.2270    0.6953   -2.7044 H   0  0  0  0  0  0  0  0  0  0  0  0
   -0.3980   -0.9695   -3.8416 N   0  3  0  0  0  0  0  0  0  0  0  0
   -0.3754   -1.9320   -3.5509 H   0  0  0  0  0  0  0  0  0  0  0  0
   -0.2087   -0.7242   -5.1273 C   0  0  0  0  0  0  0  0  0  0  0  0
   -0.2181    0.4864   -5.6107 N   0  0  0  0  0  0  0  0  0  0  0  0
   -0.3758    1.2561   -4.9846 H   0  0  0  0  0  0  0  0  0  0  0  0
   -0.0723    0.6552   -6.5890 H   0  0  0  0  0  0  0  0  0  0  0  0
   -0.0027   -1.7027   -5.9624 N   0  0  0  0  0  0  0  0  0  0  0  0
    0.0131   -2.6538   -5.6367 H   0  0  0  0  0  0  0  0  0  0  0  0
    0.1404   -1.5122   -6.9370 H   0  0  0  0  0  0  0  0  0  0  0  0
   -1.4649    0.9937    2.1053 C   0  0  0  0  0  0  0  0  0  0  0  0
   -1.5611    2.1650    1.7589 O   0  0  0  0  0  0  0  0  0  0  0  0
   -1.3562    0.6137    3.3822 N   0  0  0  0  0  0  0  0  0  0  0  0
   -1.3186   -0.3731    3.5785 H   0  0  0  0  0  0  0  0  0  0  0  0
   -1.3810    1.5385    4.5166 C   0  0  0  0  0  0  0  0  0  0  0  0
   -2.3534    2.0329    4.5690 H   0  0  0  0  0  0  0  0  0  0  0  0
   -1.2048    1.0009    5.4492 H   0  0  0  0  0  0  0  0  0  0  0  0
   -0.6117    2.3037    4.3917 H   0  0  0  0  0  0  0  0  0  0  0  0
  5  6  2  0  0  0  0
  5  7  1  0  0  0  0
  2  3  1  0  0  0  0
  2  4  1  0  0  0  0
  2  5  1  0  0  0  0
  1  2  1  0  0  0  0
 29 30  2  0  0  0  0
 29 31  1  0  0  0  0
 26 27  1  0  0  0  0
 26 28  1  0  0  0  0
 23 24  1  0  0  0  0
 23 25  1  0  0  0  0
 22 23  1  0  0  0  0
 22 26  1  0  0  0  0
 20 21  1  0  0  0  0
 20 22  2  0  0  0  0
 17 18  1  0  0  0  0
 17 19  1  0  0  0  0
 17 20  1  0  0  0  0
 14 15  1  0  0  0  0
 14 16  1  0  0  0  0
 14 17  1  0  0  0  0
 11 12  1  0  0  0  0
 11 13  1  0  0  0  0
 11 14  1  0  0  0  0
  9 10  1  0  0  0  0
  9 11  1  0  0  0  0
  9 29  1  0  0  0  0
  7  8  1  0  0  0  0
  7  9  1  0  0  0  0
 33 34  1  0  0  0  0
 33 35  1  0  0  0  0
 33 36  1  0  0  0  0
 31 32  1  0  0  0  0
 31 33  1  0  0  0  0
M  CHG  1  20   1
M  END
$$$$
default_name
  -OEChem-01062215323D

 36 35  0     1  0  0  0  0  0999 V2000
   -4.2256   -3.6731    1.8584 H   0  0  0  0  0  0  0  0  0  0  0  0
   -4.2396   -2.6781    1.4144 C   0  0  0  0  0  0  0  0  0  0  0  0
   -4.9506   -2.0521    1.9514 H   0  0  0  0  0  0  0  0  0  0  0  0
   -4.5266   -2.7521    0.3674 H   0  0  0  0  0  0  0  0  0  0  0  0
   -2.8576   -2.0761    1.5184 C   0  0  0  0  0  0  0  0  0  0  0  0
   -1.9456   -2.7051    2.0404 O   0  0  0  0  0  0  0  0  0  0  0  0
   -2.6926   -0.8481    1.0174 N   0  0  0  0  0  0  0  0  0  0  0  0
   -3.4926   -0.3971    0.5954 H   0  0  0  0  0  0  0  0  0  0  0  0
   -1.4216   -0.1071    1.0434 C   0  0  1  0  0  0  0  0  0  0  0  0
   -0.6213   -0.8056    1.2936 H   0  0  0  0  0  0  0  0  0  0  0  0
   -1.1603    0.4629   -0.3651 C   0  0  0  0  0  0  0  0  0  0  0  0
   -2.0361    1.0354   -0.6772 H   0  0  0  0  0  0  0  0  0  0  0  0
   -0.3076    1.1442   -0.3219 H   0  0  0  0  0  0  0  0  0  0  0  0
   -0.8890   -0.6181   -1.4215 C   0  0  0  0  0  0  0  0  0  0  0  0
   -0.0096   -1.1983   -1.1383 H   0  0  0  0  0  0  0  0  0  0  0  0
   -1.7519   -1.2814   -1.4888 H   0  0  0  0  0  0  0  0  0  0  0  0
   -0.6407    0.0366   -2.7872 C   0  0  0  0  0  0  0  0  0  0  0  0
   -1.5149    0.6365   -3.0504 H   0  0  0  0  0  0  0  0  0  0  0  0
    0.2270    0.6953   -2.7044 H   0  0  0  0  0  0  0  0  0  0  0  0
   -0.3980   -0.9695   -3.8416 N   0  3  0  0  0  0  0  0  0  0  0  0
   -0.3754   -1.9320   -3.5509 H   0  0  0  0  0  0  0  0  0  0  0  0
   -0.2087   -0.7242   -5.1273 C   0  0  0  0  0  0  0  0  0  0  0  0
   -0.2181    0.4864   -5.6107 N   0  0  0  0  0  0  0  0  0  0  0  0
   -0.3758    1.2561   -4.9846 H   0  0  0  0  0  0  0  0  0  0  0  0
   -0.0723    0.6552   -6.5890 H   0  0  0  0  0  0  0  0  0  0  0  0
   -0.0027   -1.7027   -5.9624 N   0  0  0  0  0  0  0  0  0  0  0  0
    0.0131   -2.6538   -5.6367 H   0  0  0  0  0  0  0  0  0  0  0  0
    0.1404   -1.5122   -6.9370 H   0  0  0  0  0  0  0  0  0  0  0  0
   -1.4649    0.9937    2.1053 C   0  0  0  0  0  0  0  0  0  0  0  0
   -1.8333    2.1201    1.7944 O   0  0  0  0  0  0  0  0  0  0  0  0
   -1.0545    0.6705    3.3356 N   0  0  0  0  0  0  0  0  0  0  0  0
   -0.8038   -0.2886    3.5119 H   0  0  0  0  0  0  0  0  0  0  0  0
   -1.0347    1.6033    4.4636 C   0  0  0  0  0  0  0  0  0  0  0  0
   -2.0534    1.9168    4.7015 H   0  0  0  0  0  0  0  0  0  0  0  0
   -0.5945    1.1287    5.3415 H   0  0  0  0  0  0  0  0  0  0  0  0
   -0.4527    2.4904    4.2045 H   0  0  0  0  0  0  0  0  0  0  0  0
  5  6  2  0  0  0  0
  5  7  1  0  0  0  0
  2  3  1  0  0  0  0
  2  4  1  0  0  0  0
  2  5  1  0  0  0  0
  1  2  1  0  0  0  0
 29 30  2  0  0  0  0
 29 31  1  0  0  0  0
 26 27  1  0  0  0  0
 26 28  1  0  0  0  0
 23 24  1  0  0  0  0
 23 25  1  0  0  0  0
 22 23  1  0  0  0  0
 22 26  1  0  0  0  0
 20 21  1  0  0  0  0
 20 22  2  0  0  0  0
 17 18  1  0  0  0  0
 17 19  1  0  0  0  0
 17 20  1  0  0  0  0
 14 15  1  0  0  0  0
 14 16  1  0  0  0  0
 14 17  1  0  0  0  0
 11 12  1  0  0  0  0
 11 13  1  0  0  0  0
 11 14  1  0  0  0  0
  9 10  1  0  0  0  0
  9 11  1  0  0  0  0
  9 29  1  0  0  0  0
  7  8  1  0  0  0  0
  7  9  1  0  0  0  0
 33 34  1  0  0  0  0
 33 35  1  0  0  0  0
 33 36  1  0  0  0  0
 31 32  1  0  0  0  0
 31 33  1  0  0  0  0
M  CHG  1  20   1
M  END
$$$$
default_name
  -OEChem-01062215323D

 36 35  0     1  0  0  0  0  0999 V2000
   -4.2256   -3.6731    1.8584 H   0  0  0  0  0  0  0  0  0  0  0  0
   -4.2396   -2.6781    1.4144 C   0  0  0  0  0  0  0  0  0  0  0  0
   -4.9506   -2.0521    1.9514 H   0  0  0  0  0  0  0  0  0  0  0  0
   -4.5266   -2.7521    0.3674 H   0  0  0  0  0  0  0  0  0  0  0  0
   -2.8576   -2.0761    1.5184 C   0  0  0  0  0  0  0  0  0  0  0  0
   -1.9456   -2.7051    2.0404 O   0  0  0  0  0  0  0  0  0  0  0  0
   -2.6926   -0.8481    1.0174 N   0  0  0  0  0  0  0  0  0  0  0  0
   -3.4926   -0.3971    0.5954 H   0  0  0  0  0  0  0  0  0  0  0  0
   -1.4216   -0.1071    1.0434 C   0  0  1  0  0  0  0  0  0  0  0  0
   -0.6213   -0.8056    1.2936 H   0  0  0  0  0  0  0  0  0  0  0  0
   -1.1603    0.4629   -0.3651 C   0  0  0  0  0  0  0  0  0  0  0  0
   -2.0361    1.0354   -0.6772 H   0  0  0  0  0  0  0  0  0  0  0  0
   -0.3076    1.1442   -0.3219 H   0  0  0  0  0  0  0  0  0  0  0  0
   -0.8890   -0.6181   -1.4215 C   0  0  0  0  0  0  0  0  0  0  0  0
   -0.0096   -1.1983   -1.1383 H   0  0  0  0  0  0  0  0  0  0  0  0
   -1.7519   -1.2814   -1.4888 H   0  0  0  0  0  0  0  0  0  0  0  0
   -0.6407    0.0366   -2.7872 C   0  0  0  0  0  0  0  0  0  0  0  0
   -1.5149    0.6365   -3.0504 H   0  0  0  0  0  0  0  0  0  0  0  0
    0.2270    0.6953   -2.7044 H   0  0  0  0  0  0  0  0  0  0  0  0
   -0.3980   -0.9695   -3.8416 N   0  3  0  0  0  0  0  0  0  0  0  0
   -0.3754   -1.9320   -3.5509 H   0  0  0  0  0  0  0  0  0  0  0  0
   -0.2087   -0.7242   -5.1273 C   0  0  0  0  0  0  0  0  0  0  0  0
   -0.2181    0.4864   -5.6107 N   0  0  0  0  0  0  0  0  0  0  0  0
   -0.3758    1.2561   -4.9846 H   0  0  0  0  0  0  0  0  0  0  0  0
   -0.0723    0.6552   -6.5890 H   0  0  0  0  0  0  0  0  0  0  0  0
   -0.0027   -1.7027   -5.9624 N   0  0  0  0  0  0  0  0  0  0  0  0
    0.0131   -2.6538   -5.6367 H   0  0  0  0  0  0  0  0  0  0  0  0
    0.1404   -1.5122   -6.9370 H   0  0  0  0  0  0  0  0  0  0  0  0
   -1.4649    0.9937    2.1053 C   0  0  0  0  0  0  0  0  0  0  0  0
   -2.0815    2.0281    1.8796 O   0  0  0  0  0  0  0  0  0  0  0  0
   -0.7819    0.7792    3.2341 N   0  0  0  0  0  0  0  0  0  0  0  0
   -0.3341   -0.1150    3.3511 H   0  0  0  0  0  0  0  0  0  0  0  0
   -0.7217    1.7277    4.3475 C   0  0  0  0  0  0  0  0  0  0  0  0
   -1.7181    1.8595    4.7746 H   0  0  0  0  0  0  0  0  0  0  0  0
   -0.0480    1.3610    5.1230 H   0  0  0  0  0  0  0  0  0  0  0  0
   -0.3675    2.6980    3.9928 H   0  0  0  0  0  0  0  0  0  0  0  0
  5  6  2  0  0  0  0
  5  7  1  0  0  0  0
  2  3  1  0  0  0  0
  2  4  1  0  0  0  0
  2  5  1  0  0  0  0
  1  2  1  0  0  0  0
 29 30  2  0  0  0  0
 29 31  1  0  0  0  0
 26 27  1  0  0  0  0
 26 28  1  0  0  0  0
 23 24  1  0  0  0  0
 23 25  1  0  0  0  0
 22 23  1  0  0  0  0
 22 26  1  0  0  0  0
 20 21  1  0  0  0  0
 20 22  2  0  0  0  0
 17 18  1  0  0  0  0
 17 19  1  0  0  0  0
 17 20  1  0  0  0  0
 14 15  1  0  0  0  0
 14 16  1  0  0  0  0
 14 17  1  0  0  0  0
 11 12  1  0  0  0  0
 11 13  1  0  0  0  0
 11 14  1  0  0  0  0
  9 10  1  0  0  0  0
  9 11  1  0  0  0  0
  9 29  1  0  0  0  0
  7  8  1  0  0  0  0
  7  9  1  0  0  0  0
 33 34  1  0  0  0  0
 33 35  1  0  0  0  0
 33 36  1  0  0  0  0
 31 32  1  0  0  0  0
 31 33  1  0  0  0  0
M  CHG  1  20   1
M  END
$$$$
default_name
  -OEChem-01062215323D

 36 35  0     1  0  0  0  0  0999 V2000
   -4.2256   -3.6731    1.8584 H   0  0  0  0  0  0  0  0  0  0  0  0
   -4.2396   -2.6781    1.4144 C   0  0  0  0  0  0  0  0  0  0  0  0
   -4.9506   -2.0521    1.9514 H   0  0  0  0  0  0  0  0  0  0  0  0
   -4.5266   -2.7521    0.3674 H   0  0  0  0  0  0  0  0  0  0  0  0
   -2.8576   -2.0761    1.5184 C   0  0  0  0  0  0  0  0  0  0  0  0
   -1.9456   -2.7051    2.0404 O   0  0  0  0  0  0  0  0  0  0  0  0
   -2.6926   -0.8481    1.0174 N   0  0  0  0  0  0  0  0  0  0  0  0
   -3.4926   -0.3971    0.5954 H   0  0  0  0  0  0  0  0  0  0  0  0
   -1.4216   -0.1071    1.0434 C   0  0  1  0  0  0  0  0  0  0  0  0
   -0.6213   -0.8056    1.2936 H   0  0  0  0  0  0  0  0  0  0  0  0
   -1.1603    0.4629   -0.3651 C   0  0  0  0  0  0  0  0  0  0  0  0
   -2.0361    1.0354   -0.6772 H   0  0  0  0  0  0  0  0  0  0  0  0
   -0.3076    1.1442   -0.3219 H   0  0  0  0  0  0  0  0  0  0  0  0
   -0.8890   -0.6181   -1.4215 C   0  0  0  0  0  0  0  0  0  0  0  0
   -0.0096   -1.1983   -1.1383 H   0  0  0  0  0  0  0  0  0  0  0  0
   -1.7519   -1.2814   -1.4888 H   0  0  0  0  0  0  0  0  0  0  0  0
   -0.6407    0.0366   -2.7872 C   0  0  0  0  0  0  0  0  0  0  0  0
   -1.5149    0.6365   -3.0504 H   0  0  0  0  0  0  0  0  0  0  0  0
    0.2270    0.6953   -2.7044 H   0  0  0  0  0  0  0  0  0  0  0  0
   -0.3980   -0.9695   -3.8416 N   0  3  0  0  0  0  0  0  0  0  0  0
   -0.3754   -1.9320   -3.5509 H   0  0  0  0  0  0  0  0  0  0  0  0
   -0.2087   -0.7242   -5.1273 C   0  0  0  0  0  0  0  0  0  0  0  0
   -0.2181    0.4864   -5.6107 N   0  0  0  0  0  0  0  0  0  0  0  0
   -0.3758    1.2561   -4.9846 H   0  0  0  0  0  0  0  0  0  0  0  0
   -0.0723    0.6552   -6.5890 H   0  0  0  0  0  0  0  0  0  0  0  0
   -0.0027   -1.7027   -5.9624 N   0  0  0  0  0  0  0  0  0  0  0  0
    0.0131   -2.6538   -5.6367 H   0  0  0  0  0  0  0  0  0  0  0  0
    0.1404   -1.5122   -6.9370 H   0  0  0  0  0  0  0  0  0  0  0  0
   -1.4649    0.9937    2.1053 C   0  0  0  0  0  0  0  0  0  0  0  0
   -2.2889    1.8953    2.0088 O   0  0  0  0  0  0  0  0  0  0  0  0
   -0.5571    0.9324    3.0844 N   0  0  0  0  0  0  0  0  0  0  0  0
    0.0585    0.1358    3.1070 H   0  0  0  0  0  0  0  0  0  0  0  0
   -0.4633    1.9031    4.1761 C   0  0  0  0  0  0  0  0  0  0  0  0
   -1.3703    1.8650    4.7831 H   0  0  0  0  0  0  0  0  0  0  0  0
    0.3974    1.6819    4.8085 H   0  0  0  0  0  0  0  0  0  0  0  0
   -0.3620    2.9123    3.7708 H   0  0  0  0  0  0  0  0  0  0  0  0
  5  6  2  0  0  0  0
  5  7  1  0  0  0  0
  2  3  1  0  0  0  0
  2  4  1  0  0  0  0
  2  5  1  0  0  0  0
  1  2  1  0  0  0  0
 29 30  2  0  0  0  0
 29 31  1  0  0  0  0
 26 27  1  0  0  0  0
 26 28  1  0  0  0  0
 23 24  1  0  0  0  0
 23 25  1  0  0  0  0
 22 23  1  0  0  0  0
 22 26  1  0  0  0  0
 20 21  1  0  0  0  0
 20 22  2  0  0  0  0
 17 18  1  0  0  0  0
 17 19  1  0  0  0  0
 17 20  1  0  0  0  0
 14 15  1  0  0  0  0
 14 16  1  0  0  0  0
 14 17  1  0  0  0  0
 11 12  1  0  0  0  0
 11 13  1  0  0  0  0
 11 14  1  0  0  0  0
  9 10  1  0  0  0  0
  9 11  1  0  0  0  0
  9 29  1  0  0  0  0
  7  8  1  0  0  0  0
  7  9  1  0  0  0  0
 33 34  1  0  0  0  0
 33 35  1  0  0  0  0
 33 36  1  0  0  0  0
 31 32  1  0  0  0  0
 31 33  1  0  0  0  0
M  CHG  1  20   1
M  END
$$$$
default_name
  -OEChem-01062215323D

 36 35  0     1  0  0  0  0  0999 V2000
   -4.2256   -3.6731    1.8584 H   0  0  0  0  0  0  0  0  0  0  0  0
   -4.2396   -2.6781    1.4144 C   0  0  0  0  0  0  0  0  0  0  0  0
   -4.9506   -2.0521    1.9514 H   0  0  0  0  0  0  0  0  0  0  0  0
   -4.5266   -2.7521    0.3674 H   0  0  0  0  0  0  0  0  0  0  0  0
   -2.8576   -2.0761    1.5184 C   0  0  0  0  0  0  0  0  0  0  0  0
   -1.9456   -2.7051    2.0404 O   0  0  0  0  0  0  0  0  0  0  0  0
   -2.6926   -0.8481    1.0174 N   0  0  0  0  0  0  0  0  0  0  0  0
   -3.4926   -0.3971    0.5954 H   0  0  0  0  0  0  0  0  0  0  0  0
   -1.4216   -0.1071    1.0434 C   0  0  1  0  0  0  0  0  0  0  0  0
   -0.6213   -0.8056    1.2936 H   0  0  0  0  0  0  0  0  0  0  0  0
   -1.1603    0.4629   -0.3651 C   0  0  0  0  0  0  0  0  0  0  0  0
   -2.0361    1.0354   -0.6772 H   0  0  0  0  0  0  0  0  0  0  0  0
   -0.3076    1.1442   -0.3219 H   0  0  0  0  0  0  0  0  0  0  0  0
   -0.8890   -0.6181   -1.4215 C   0  0  0  0  0  0  0  0  0  0  0  0
   -0.0096   -1.1983   -1.1383 H   0  0  0  0  0  0  0  0  0  0  0  0
   -1.7519   -1.2814   -1.4888 H   0  0  0  0  0  0  0  0  0  0  0  0
   -0.6407    0.0366   -2.7872 C   0  0  0  0  0  0  0  0  0  0  0  0
   -1.5149    0.6365   -3.0504 H   0  0  0  0  0  0  0  0  0  0  0  0
    0.2270    0.6953   -2.7044 H   0  0  0  0  0  0  0  0  0  0  0  0
   -0.3980   -0.9695   -3.8416 N   0  3  0  0  0  0  0  0  0  0  0  0
   -0.3754   -1.9320   -3.5509 H   0  0  0  0  0  0  0  0  0  0  0  0
   -0.2087   -0.7242   -5.1273 C   0  0  0  0  0  0  0  0  0  0  0  0
   -0.2181    0.4864   -5.6107 N   0  0  0  0  0  0  0  0  0  0  0  0
   -0.3758    1.2561   -4.9846 H   0  0  0  0  0  0  0  0  0  0  0  0
   -0.0723    0.6552   -6.5890 H   0  0  0  0  0  0  0  0  0  0  0  0
   -0.0027   -1.7027   -5.9624 N   0  0  0  0  0  0  0  0  0  0  0  0
    0.0131   -2.6538   -5.6367 H   0  0  0  0  0  0  0  0  0  0  0  0
    0.1404   -1.5122   -6.9370 H   0  0  0  0  0  0  0  0  0  0  0  0
   -1.4649    0.9937    2.1053 C   0  0  0  0  0  0  0  0  0  0  0  0
   -2.4413    1.7307    2.1733 O   0  0  0  0  0  0  0  0  0  0  0  0
   -0.3952    1.1196    2.8969 N   0  0  0  0  0  0  0  0  0  0  0  0
    0.3471    0.4469    2.7964 H   0  0  0  0  0  0  0  0  0  0  0  0
   -0.2771    2.1178    3.9611 C   0  0  0  0  0  0  0  0  0  0  0  0
   -1.0337    1.9328    4.7266 H   0  0  0  0  0  0  0  0  0  0  0  0
    0.7115    2.0696    4.4194 H   0  0  0  0  0  0  0  0  0  0  0  0
   -0.4364    3.1186    3.5539 H   0  0  0  0  0  0  0  0  0  0  0  0
  5  6  2  0  0  0  0
  5  7  1  0  0  0  0
  2  3  1  0  0  0  0
  2  4  1  0  0  0  0
  2  5  1  0  0  0  0
  1  2  1  0  0  0  0
 29 30  2  0  0  0  0
 29 31  1  0  0  0  0
 26 27  1  0  0  0  0
 26 28  1  0  0  0  0
 23 24  1  0  0  0  0
 23 25  1  0  0  0  0
 22 23  1  0  0  0  0
 22 26  1  0  0  0  0
 20 21  1  0  0  0  0
 20 22  2  0  0  0  0
 17 18  1  0  0  0  0
 17 19  1  0  0  0  0
 17 20  1  0  0  0  0
 14 15  1  0  0  0  0
 14 16  1  0  0  0  0
 14 17  1  0  0  0  0
 11 12  1  0  0  0  0
 11 13  1  0  0  0  0
 11 14  1  0  0  0  0
  9 10  1  0  0  0  0
  9 11  1  0  0  0  0
  9 29  1  0  0  0  0
  7  8  1  0  0  0  0
  7  9  1  0  0  0  0
 33 34  1  0  0  0  0
 33 35  1  0  0  0  0
 33 36  1  0  0  0  0
 31 32  1  0  0  0  0
 31 33  1  0  0  0  0
M  CHG  1  20   1
M  END
$$$$
default_name
  -OEChem-01062215323D

 36 35  0     1  0  0  0  0  0999 V2000
   -4.2256   -3.6731    1.8584 H   0  0  0  0  0  0  0  0  0  0  0  0
   -4.2396   -2.6781    1.4144 C   0  0  0  0  0  0  0  0  0  0  0  0
   -4.9506   -2.0521    1.9514 H   0  0  0  0  0  0  0  0  0  0  0  0
   -4.5266   -2.7521    0.3674 H   0  0  0  0  0  0  0  0  0  0  0  0
   -2.8576   -2.0761    1.5184 C   0  0  0  0  0  0  0  0  0  0  0  0
   -1.9456   -2.7051    2.0404 O   0  0  0  0  0  0  0  0  0  0  0  0
   -2.6926   -0.8481    1.0174 N   0  0  0  0  0  0  0  0  0  0  0  0
   -3.4926   -0.3971    0.5954 H   0  0  0  0  0  0  0  0  0  0  0  0
   -1.4216   -0.1071    1.0434 C   0  0  1  0  0  0  0  0  0  0  0  0
   -0.6213   -0.8056    1.2936 H   0  0  0  0  0  0  0  0  0  0  0  0
   -1.1603    0.4629   -0.3651 C   0  0  0  0  0  0  0  0  0  0  0  0
   -2.0361    1.0354   -0.6772 H   0  0  0  0  0  0  0  0  0  0  0  0
   -0.3076    1.1442   -0.3219 H   0  0  0  0  0  0  0  0  0  0  0  0
   -0.8890   -0.6181   -1.4215 C   0  0  0  0  0  0  0  0  0  0  0  0
   -0.0096   -1.1983   -1.1383 H   0  0  0  0  0  0  0  0  0  0  0  0
   -1.7519   -1.2814   -1.4888 H   0  0  0  0  0  0  0  0  0  0  0  0
   -0.6407    0.0366   -2.7872 C   0  0  0  0  0  0  0  0  0  0  0  0
   -1.5149    0.6365   -3.0504 H   0  0  0  0  0  0  0  0  0  0  0  0
    0.2270    0.6953   -2.7044 H   0  0  0  0  0  0  0  0  0  0  0  0
   -0.3980   -0.9695   -3.8416 N   0  3  0  0  0  0  0  0  0  0  0  0
   -0.3754   -1.9320   -3.5509 H   0  0  0  0  0  0  0  0  0  0  0  0
   -0.2087   -0.7242   -5.1273 C   0  0  0  0  0  0  0  0  0  0  0  0
   -0.2181    0.4864   -5.6107 N   0  0  0  0  0  0  0  0  0  0  0  0
   -0.3758    1.2561   -4.9846 H   0  0  0  0  0  0  0  0  0  0  0  0
   -0.0723    0.6552   -6.5890 H   0  0  0  0  0  0  0  0  0  0  0  0
   -0.0027   -1.7027   -5.9624 N   0  0  0  0  0  0  0  0  0  0  0  0
    0.0131   -2.6538   -5.6367 H   0  0  0  0  0  0  0  0  0  0  0  0
    0.1404   -1.5122   -6.9370 H   0  0  0  0  0  0  0  0  0  0  0  0
   -1.4649    0.9937    2.1053 C   0  0  0  0  0  0  0  0  0  0  0  0
   -2.5283    1.5455    2.3617 O   0  0  0  0  0  0  0  0  0  0  0  0
   -0.3075    1.3282    2.6842 N   0  0  0  0  0  0  0  0  0  0  0  0
    0.5123    0.7969    2.4402 H   0  0  0  0  0  0  0  0  0  0  0  0
   -0.1759    2.3570    3.7172 C   0  0  0  0  0  0  0  0  0  0  0  0
   -0.7314    2.0583    4.6088 H   0  0  0  0  0  0  0  0  0  0  0  0
    0.8728    2.4976    3.9822 H   0  0  0  0  0  0  0  0  0  0  0  0
   -0.5858    3.3030    3.3567 H   0  0  0  0  0  0  0  0  0  0  0  0
  5  6  2  0  0  0  0
  5  7  1  0  0  0  0
  2  3  1  0  0  0  0
  2  4  1  0  0  0  0
  2  5  1  0  0  0  0
  1  2  1  0  0  0  0
 29 30  2  0  0  0  0
 29 31  1  0  0  0  0
 26 27  1  0  0  0  0
 26 28  1  0  0  0  0
 23 24  1  0  0  0  0
 23 25  1  0  0  0  0
 22 23  1  0  0  0  0
 22 26  1  0  0  0  0
 20 21  1  0  0  0  0
 20 22  2  0  0  0  0
 17 18  1  0  0  0  0
 17 19  1  0  0  0  0
 17 20  1  0  0  0  0
 14 15  1  0  0  0  0
 14 16  1  0  0  0  0
 14 17  1  0  0  0  0
 11 12  1  0  0  0  0
 11 13  1  0  0  0  0
 11 14  1  0  0  0  0
  9 10  1  0  0  0  0
  9 11  1  0  0  0  0
  9 29  1  0  0  0  0
  7  8  1  0  0  0  0
  7  9  1  0  0  0  0
 33 34  1  0  0  0  0
 33 35  1  0  0  0  0
 33 36  1  0  0  0  0
 31 32  1  0  0  0  0
 31 33  1  0  0  0  0
M  CHG  1  20   1
M  END
$$$$
default_name
  -OEChem-01062215323D

 36 35  0     1  0  0  0  0  0999 V2000
   -4.2256   -3.6731    1.8584 H   0  0  0  0  0  0  0  0  0  0  0  0
   -4.2396   -2.6781    1.4144 C   0  0  0  0  0  0  0  0  0  0  0  0
   -4.9506   -2.0521    1.9514 H   0  0  0  0  0  0  0  0  0  0  0  0
   -4.5266   -2.7521    0.3674 H   0  0  0  0  0  0  0  0  0  0  0  0
   -2.8576   -2.0761    1.5184 C   0  0  0  0  0  0  0  0  0  0  0  0
   -1.9456   -2.7051    2.0404 O   0  0  0  0  0  0  0  0  0  0  0  0
   -2.6926   -0.8481    1.0174 N   0  0  0  0  0  0  0  0  0  0  0  0
   -3.4926   -0.3971    0.5954 H   0  0  0  0  0  0  0  0  0  0  0  0
   -1.4216   -0.1071    1.0434 C   0  0  1  0  0  0  0  0  0  0  0  0
   -0.6213   -0.8056    1.2936 H   0  0  0  0  0  0  0  0  0  0  0  0
   -1.1603    0.4629   -0.3651 C   0  0  0  0  0  0  0  0  0  0  0  0
   -2.0361    1.0354   -0.6772 H   0  0  0  0  0  0  0  0  0  0  0  0
   -0.3076    1.1442   -0.3219 H   0  0  0  0  0  0  0  0  0  0  0  0
   -0.8890   -0.6181   -1.4215 C   0  0  0  0  0  0  0  0  0  0  0  0
   -0.0096   -1.1983   -1.1383 H   0  0  0  0  0  0  0  0  0  0  0  0
   -1.7519   -1.2814   -1.4888 H   0  0  0  0  0  0  0  0  0  0  0  0
   -0.6407    0.0366   -2.7872 C   0  0  0  0  0  0  0  0  0  0  0  0
   -1.5149    0.6365   -3.0504 H   0  0  0  0  0  0  0  0  0  0  0  0
    0.2270    0.6953   -2.7044 H   0  0  0  0  0  0  0  0  0  0  0  0
   -0.3980   -0.9695   -3.8416 N   0  3  0  0  0  0  0  0  0  0  0  0
   -0.3754   -1.9320   -3.5509 H   0  0  0  0  0  0  0  0  0  0  0  0
   -0.2087   -0.7242   -5.1273 C   0  0  0  0  0  0  0  0  0  0  0  0
   -0.2181    0.4864   -5.6107 N   0  0  0  0  0  0  0  0  0  0  0  0
   -0.3758    1.2561   -4.9846 H   0  0  0  0  0  0  0  0  0  0  0  0
   -0.0723    0.6552   -6.5890 H   0  0  0  0  0  0  0  0  0  0  0  0
   -0.0027   -1.7027   -5.9624 N   0  0  0  0  0  0  0  0  0  0  0  0
    0.0131   -2.6538   -5.6367 H   0  0  0  0  0  0  0  0  0  0  0  0
    0.1404   -1.5122   -6.9370 H   0  0  0  0  0  0  0  0  0  0  0  0
   -1.4649    0.9937    2.1053 C   0  0  0  0  0  0  0  0  0  0  0  0
   -2.5440    1.3524    2.5612 O   0  0  0  0  0  0  0  0  0  0  0  0
   -0.2998    1.5439    2.4609 N   0  0  0  0  0  0  0  0  0  0  0  0
    0.5426    1.1620    2.0629 H   0  0  0  0  0  0  0  0  0  0  0  0
   -0.1665    2.6045    3.4611 C   0  0  0  0  0  0  0  0  0  0  0  0
   -0.4838    2.2330    4.4378 H   0  0  0  0  0  0  0  0  0  0  0  0
    0.8703    2.9368    3.5267 H   0  0  0  0  0  0  0  0  0  0  0  0
   -0.7999    3.4528    3.1926 H   0  0  0  0  0  0  0  0  0  0  0  0
  5  6  2  0  0  0  0
  5  7  1  0  0  0  0
  2  3  1  0  0  0  0
  2  4  1  0  0  0  0
  2  5  1  0  0  0  0
  1  2  1  0  0  0  0
 29 30  2  0  0  0  0
 29 31  1  0  0  0  0
 26 27  1  0  0  0  0
 26 28  1  0  0  0  0
 23 24  1  0  0  0  0
 23 25  1  0  0  0  0
 22 23  1  0  0  0  0
 22 26  1  0  0  0  0
 20 21  1  0  0  0  0
 20 22  2  0  0  0  0
 17 18  1  0  0  0  0
 17 19  1  0  0  0  0
 17 20  1  0  0  0  0
 14 15  1  0  0  0  0
 14 16  1  0  0  0  0
 14 17  1  0  0  0  0
 11 12  1  0  0  0  0
 11 13  1  0  0  0  0
 11 14  1  0  0  0  0
  9 10  1  0  0  0  0
  9 11  1  0  0  0  0
  9 29  1  0  0  0  0
  7  8  1  0  0  0  0
  7  9  1  0  0  0  0
 33 34  1  0  0  0  0
 33 35  1  0  0  0  0
 33 36  1  0  0  0  0
 31 32  1  0  0  0  0
 31 33  1  0  0  0  0
M  CHG  1  20   1
M  END
$$$$
default_name
  -OEChem-01062215323D

 36 35  0     1  0  0  0  0  0999 V2000
   -4.2256   -3.6731    1.8584 H   0  0  0  0  0  0  0  0  0  0  0  0
   -4.2396   -2.6781    1.4144 C   0  0  0  0  0  0  0  0  0  0  0  0
   -4.9506   -2.0521    1.9514 H   0  0  0  0  0  0  0  0  0  0  0  0
   -4.5266   -2.7521    0.3674 H   0  0  0  0  0  0  0  0  0  0  0  0
   -2.8576   -2.0761    1.5184 C   0  0  0  0  0  0  0  0  0  0  0  0
   -1.9456   -2.7051    2.0404 O   0  0  0  0  0  0  0  0  0  0  0  0
   -2.6926   -0.8481    1.0174 N   0  0  0  0  0  0  0  0  0  0  0  0
   -3.4926   -0.3971    0.5954 H   0  0  0  0  0  0  0  0  0  0  0  0
   -1.4216   -0.1071    1.0434 C   0  0  1  0  0  0  0  0  0  0  0  0
   -0.6026   -0.8281    1.0248 H   0  0  0  0  0  0  0  0  0  0  0  0
   -1.3410    0.7680   -0.2234 C   0  0  0  0  0  0  0  0  0  0  0  0
   -2.2442    1.3786   -0.2831 H   0  0  0  0  0  0  0  0  0  0  0  0
   -0.4831    1.4388   -0.1399 H   0  0  0  0  0  0  0  0  0  0  0  0
   -1.2214   -0.0445   -1.5211 C   0  0  0  0  0  0  0  0  0  0  0  0
   -0.3185   -0.6560   -1.4915 H   0  0  0  0  0  0  0  0  0  0  0  0
   -2.0924   -0.6926   -1.6225 H   0  0  0  0  0  0  0  0  0  0  0  0
   -1.1473    0.9033   -2.7259 C   0  0  0  0  0  0  0  0  0  0  0  0
   -2.0422    1.5298   -2.7323 H   0  0  0  0  0  0  0  0  0  0  0  0
   -0.2695    1.5436   -2.6111 H   0  0  0  0  0  0  0  0  0  0  0  0
   -1.0550    0.1629   -4.0011 N   0  3  0  0  0  0  0  0  0  0  0  0
   -1.0043   -0.8395   -3.9388 H   0  0  0  0  0  0  0  0  0  0  0  0
   -1.0330    0.6927   -5.2127 C   0  0  0  0  0  0  0  0  0  0  0  0
   -1.0931    1.9802   -5.4074 N   0  0  0  0  0  0  0  0  0  0  0  0
   -1.1597    2.5875   -4.6098 H   0  0  0  0  0  0  0  0  0  0  0  0
   -1.0750    2.3660   -6.3335 H   0  0  0  0  0  0  0  0  0  0  0  0
   -0.9481   -0.0705   -6.2651 N   0  0  0  0  0  0  0  0  0  0  0  0
   -0.8996   -1.0698   -6.1655 H   0  0  0  0  0  0  0  0  0  0  0  0
   -0.9318    0.3355   -7.1824 H   0  0  0  0  0  0  0  0  0  0  0  0
   -1.3143    0.7278    2.3211 C   0  0  0  0  0  0  0  0  0  0  0  0
   -2.2407    0.7287    3.1229 O   0  0  0  0  0  0  0  0  0  0  0  0
   -0.2058    1.4574    2.4814 N   0  0  0  0  0  0  0  0  0  0  0  0
    0.5212    1.3677    1.7906 H   0  0  0  0  0  0  0  0  0  0  0  0
    0.0540    2.3073    3.6446 C   0  0  0  0  0  0  0  0  0  0  0  0
    0.1250    1.6912    4.5436 H   0  0  0  0  0  0  0  0  0  0  0  0
    0.9883    2.8548    3.5141 H   0  0  0  0  0  0  0  0  0  0  0  0
   -0.7641    3.0184    3.7779 H   0  0  0  0  0  0  0  0  0  0  0  0
  5  6  2  0  0  0  0
  5  7  1  0  0  0  0
  2  3  1  0  0  0  0
  2  4  1  0  0  0  0
  2  5  1  0  0  0  0
  1  2  1  0  0  0  0
 29 30  2  0  0  0  0
 29 31  1  0  0  0  0
 26 27  1  0  0  0  0
 26 28  1  0  0  0  0
 23 24  1  0  0  0  0
 23 25  1  0  0  0  0
 22 23  1  0  0  0  0
 22 26  1  0  0  0  0
 20 21  1  0  0  0  0
 20 22  2  0  0  0  0
 17 18  1  0  0  0  0
 17 19  1  0  0  0  0
 17 20  1  0  0  0  0
 14 15  1  0  0  0  0
 14 16  1  0  0  0  0
 14 17  1  0  0  0  0
 11 12  1  0  0  0  0
 11 13  1  0  0  0  0
 11 14  1  0  0  0  0
  9 10  1  0  0  0  0
  9 11  1  0  0  0  0
  9 29  1  0  0  0  0
  7  8  1  0  0  0  0
  7  9  1  0  0  0  0
 33 34  1  0  0  0  0
 33 35  1  0  0  0  0
 33 36  1  0  0  0  0
 31 32  1  0  0  0  0
 31 33  1  0  0  0  0
M  CHG  1  20   1
M  END
$$$$
default_name
  -OEChem-01062215323D

 36 35  0     1  0  0  0  0  0999 V2000
   -4.2256   -3.6731    1.8584 H   0  0  0  0  0  0  0  0  0  0  0  0
   -4.2396   -2.6781    1.4144 C   0  0  0  0  0  0  0  0  0  0  0  0
   -4.9506   -2.0521    1.9514 H   0  0  0  0  0  0  0  0  0  0  0  0
   -4.5266   -2.7521    0.3674 H   0  0  0  0  0  0  0  0  0  0  0  0
   -2.8576   -2.0761    1.5184 C   0  0  0  0  0  0  0  0  0  0  0  0
   -1.9456   -2.7051    2.0404 O   0  0  0  0  0  0  0  0  0  0  0  0
   -2.6926   -0.8481    1.0174 N   0  0  0  0  0  0  0  0  0  0  0  0
   -3.4926   -0.3971    0.5954 H   0  0  0  0  0  0  0  0  0  0  0  0
   -1.4216   -0.1071    1.0434 C   0  0  1  0  0  0  0  0  0  0  0  0
   -0.6026   -0.8281    1.0248 H   0  0  0  0  0  0  0  0  0  0  0  0
   -1.3410    0.7680   -0.2234 C   0  0  0  0  0  0  0  0  0  0  0  0
   -2.2442    1.3786   -0.2831 H   0  0  0  0  0  0  0  0  0  0  0  0
   -0.4831    1.4388   -0.1399 H   0  0  0  0  0  0  0  0  0  0  0  0
   -1.2214   -0.0445   -1.5211 C   0  0  0  0  0  0  0  0  0  0  0  0
   -0.3185   -0.6560   -1.4915 H   0  0  0  0  0  0  0  0  0  0  0  0
   -2.0924   -0.6926   -1.6225 H   0  0  0  0  0  0  0  0  0  0  0  0
   -1.1473    0.9033   -2.7259 C   0  0  0  0  0  0  0  0  0  0  0  0
   -2.0422    1.5298   -2.7323 H   0  0  0  0  0  0  0  0  0  0  0  0
   -0.2695    1.5436   -2.6111 H   0  0  0  0  0  0  0  0  0  0  0  0
   -1.0550    0.1629   -4.0011 N   0  3  0  0  0  0  0  0  0  0  0  0
   -1.0043   -0.8395   -3.9388 H   0  0  0  0  0  0  0  0  0  0  0  0
   -1.0330    0.6927   -5.2127 C   0  0  0  0  0  0  0  0  0  0  0  0
   -1.0931    1.9802   -5.4074 N   0  0  0  0  0  0  0  0  0  0  0  0
   -1.1597    2.5875   -4.6098 H   0  0  0  0  0  0  0  0  0  0  0  0
   -1.0750    2.3660   -6.3335 H   0  0  0  0  0  0  0  0  0  0  0  0
   -0.9481   -0.0705   -6.2651 N   0  0  0  0  0  0  0  0  0  0  0  0
   -0.8996   -1.0698   -6.1655 H   0  0  0  0  0  0  0  0  0  0  0  0
   -0.9318    0.3355   -7.1824 H   0  0  0  0  0  0  0  0  0  0  0  0
   -1.3143    0.7278    2.3211 C   0  0  0  0  0  0  0  0  0  0  0  0
   -2.0946    0.5251    3.2437 O   0  0  0  0  0  0  0  0  0  0  0  0
   -0.3772    1.6805    2.3500 N   0  0  0  0  0  0  0  0  0  0  0  0
    0.2455    1.7529    1.5621 H   0  0  0  0  0  0  0  0  0  0  0  0
   -0.1421    2.5635    3.4937 C   0  0  0  0  0  0  0  0  0  0  0  0
    0.1876    1.9753    4.3527 H   0  0  0  0  0  0  0  0  0  0  0  0
    0.6241    3.3015    3.2529 H   0  0  0  0  0  0  0  0  0  0  0  0
   -1.0662    3.0794    3.7634 H   0  0  0  0  0  0  0  0  0  0  0  0
  5  6  2  0  0  0  0
  5  7  1  0  0  0  0
  2  3  1  0  0  0  0
  2  4  1  0  0  0  0
  2  5  1  0  0  0  0
  1  2  1  0  0  0  0
 29 30  2  0  0  0  0
 29 31  1  0  0  0  0
 26 27  1  0  0  0  0
 26 28  1  0  0  0  0
 23 24  1  0  0  0  0
 23 25  1  0  0  0  0
 22 23  1  0  0  0  0
 22 26  1  0  0  0  0
 20 21  1  0  0  0  0
 20 22  2  0  0  0  0
 17 18  1  0  0  0  0
 17 19  1  0  0  0  0
 17 20  1  0  0  0  0
 14 15  1  0  0  0  0
 14 16  1  0  0  0  0
 14 17  1  0  0  0  0
 11 12  1  0  0  0  0
 11 13  1  0  0  0  0
 11 14  1  0  0  0  0
  9 10  1  0  0  0  0
  9 11  1  0  0  0  0
  9 29  1  0  0  0  0
  7  8  1  0  0  0  0
  7  9  1  0  0  0  0
 33 34  1  0  0  0  0
 33 35  1  0  0  0  0
 33 36  1  0  0  0  0
 31 32  1  0  0  0  0
 31 33  1  0  0  0  0
M  CHG  1  20   1
M  END
$$$$
default_name
  -OEChem-01062215323D

 36 35  0     1  0  0  0  0  0999 V2000
   -4.2256   -3.6731    1.8584 H   0  0  0  0  0  0  0  0  0  0  0  0
   -4.2396   -2.6781    1.4144 C   0  0  0  0  0  0  0  0  0  0  0  0
   -4.9506   -2.0521    1.9514 H   0  0  0  0  0  0  0  0  0  0  0  0
   -4.5266   -2.7521    0.3674 H   0  0  0  0  0  0  0  0  0  0  0  0
   -2.8576   -2.0761    1.5184 C   0  0  0  0  0  0  0  0  0  0  0  0
   -1.9456   -2.7051    2.0404 O   0  0  0  0  0  0  0  0  0  0  0  0
   -2.6926   -0.8481    1.0174 N   0  0  0  0  0  0  0  0  0  0  0  0
   -3.4926   -0.3971    0.5954 H   0  0  0  0  0  0  0  0  0  0  0  0
   -1.4216   -0.1071    1.0434 C   0  0  1  0  0  0  0  0  0  0  0  0
   -0.6026   -0.8281    1.0248 H   0  0  0  0  0  0  0  0  0  0  0  0
   -1.3410    0.7680   -0.2234 C   0  0  0  0  0  0  0  0  0  0  0  0
   -2.2442    1.3786   -0.2831 H   0  0  0  0  0  0  0  0  0  0  0  0
   -0.4831    1.4388   -0.1399 H   0  0  0  0  0  0  0  0  0  0  0  0
   -1.2214   -0.0445   -1.5211 C   0  0  0  0  0  0  0  0  0  0  0  0
   -0.3185   -0.6560   -1.4915 H   0  0  0  0  0  0  0  0  0  0  0  0
   -2.0924   -0.6926   -1.6225 H   0  0  0  0  0  0  0  0  0  0  0  0
   -1.1473    0.9033   -2.7259 C   0  0  0  0  0  0  0  0  0  0  0  0
   -2.0422    1.5298   -2.7323 H   0  0  0  0  0  0  0  0  0  0  0  0
   -0.2695    1.5436   -2.6111 H   0  0  0  0  0  0  0  0  0  0  0  0
   -1.0550    0.1629   -4.0011 N   0  3  0  0  0  0  0  0  0  0  0  0
   -1.0043   -0.8395   -3.9388 H   0  0  0  0  0  0  0  0  0  0  0  0
   -1.0330    0.6927   -5.2127 C   0  0  0  0  0  0  0  0  0  0  0  0
   -1.0931    1.9802   -5.4074 N   0  0  0  0  0  0  0  0  0  0  0  0
   -1.1597    2.5875   -4.6098 H   0  0  0  0  0  0  0  0  0  0  0  0
   -1.0750    2.3660   -6.3335 H   0  0  0  0  0  0  0  0  0  0  0  0
   -0.9481   -0.0705   -6.2651 N   0  0  0  0  0  0  0  0  0  0  0  0
   -0.8996   -1.0698   -6.1655 H   0  0  0  0  0  0  0  0  0  0  0  0
   -0.9318    0.3355   -7.1824 H   0  0  0  0  0  0  0  0  0  0  0  0
   -1.3143    0.7278    2.3211 C   0  0  0  0  0  0  0  0  0  0  0  0
   -1.8925    0.3579    3.3360 O   0  0  0  0  0  0  0  0  0  0  0  0
   -0.6095    1.8614    2.2513 N   0  0  0  0  0  0  0  0  0  0  0  0
   -0.1363    2.0695    1.3872 H   0  0  0  0  0  0  0  0  0  0  0  0
   -0.4083    2.7714    3.3802 C   0  0  0  0  0  0  0  0  0  0  0  0
    0.1596    2.2667    4.1647 H   0  0  0  0  0  0  0  0  0  0  0  0
    0.1390    3.6589    3.0600 H   0  0  0  0  0  0  0  0  0  0  0  0
   -1.3733    3.0733    3.7931 H   0  0  0  0  0  0  0  0  0  0  0  0
  5  6  2  0  0  0  0
  5  7  1  0  0  0  0
  2  3  1  0  0  0  0
  2  4  1  0  0  0  0
  2  5  1  0  0  0  0
  1  2  1  0  0  0  0
 29 30  2  0  0  0  0
 29 31  1  0  0  0  0
 26 27  1  0  0  0  0
 26 28  1  0  0  0  0
 23 24  1  0  0  0  0
 23 25  1  0  0  0  0
 22 23  1  0  0  0  0
 22 26  1  0  0  0  0
 20 21  1  0  0  0  0
 20 22  2  0  0  0  0
 17 18  1  0  0  0  0
 17 19  1  0  0  0  0
 17 20  1  0  0  0  0
 14 15  1  0  0  0  0
 14 16  1  0  0  0  0
 14 17  1  0  0  0  0
 11 12  1  0  0  0  0
 11 13  1  0  0  0  0
 11 14  1  0  0  0  0
  9 10  1  0  0  0  0
  9 11  1  0  0  0  0
  9 29  1  0  0  0  0
  7  8  1  0  0  0  0
  7  9  1  0  0  0  0
 33 34  1  0  0  0  0
 33 35  1  0  0  0  0
 33 36  1  0  0  0  0
 31 32  1  0  0  0  0
 31 33  1  0  0  0  0
M  CHG  1  20   1
M  END
$$$$
default_name
  -OEChem-01062215323D

 36 35  0     1  0  0  0  0  0999 V2000
   -4.2256   -3.6731    1.8584 H   0  0  0  0  0  0  0  0  0  0  0  0
   -4.2396   -2.6781    1.4144 C   0  0  0  0  0  0  0  0  0  0  0  0
   -4.9506   -2.0521    1.9514 H   0  0  0  0  0  0  0  0  0  0  0  0
   -4.5266   -2.7521    0.3674 H   0  0  0  0  0  0  0  0  0  0  0  0
   -2.8576   -2.0761    1.5184 C   0  0  0  0  0  0  0  0  0  0  0  0
   -1.9456   -2.7051    2.0404 O   0  0  0  0  0  0  0  0  0  0  0  0
   -2.6926   -0.8481    1.0174 N   0  0  0  0  0  0  0  0  0  0  0  0
   -3.4926   -0.3971    0.5954 H   0  0  0  0  0  0  0  0  0  0  0  0
   -1.4216   -0.1071    1.0434 C   0  0  1  0  0  0  0  0  0  0  0  0
   -0.6026   -0.8281    1.0248 H   0  0  0  0  0  0  0  0  0  0  0  0
   -1.3410    0.7680   -0.2234 C   0  0  0  0  0  0  0  0  0  0  0  0
   -2.2442    1.3786   -0.2831 H   0  0  0  0  0  0  0  0  0  0  0  0
   -0.4831    1.4388   -0.1399 H   0  0  0  0  0  0  0  0  0  0  0  0
   -1.2214   -0.0445   -1.5211 C   0  0  0  0  0  0  0  0  0  0  0  0
   -0.3185   -0.6560   -1.4915 H   0  0  0  0  0  0  0  0  0  0  0  0
   -2.0924   -0.6926   -1.6225 H   0  0  0  0  0  0  0  0  0  0  0  0
   -1.1473    0.9033   -2.7259 C   0  0  0  0  0  0  0  0  0  0  0  0
   -2.0422    1.5298   -2.7323 H   0  0  0  0  0  0  0  0  0  0  0  0
   -0.2695    1.5436   -2.6111 H   0  0  0  0  0  0  0  0  0  0  0  0
   -1.0550    0.1629   -4.0011 N   0  3  0  0  0  0  0  0  0  0  0  0
   -1.0043   -0.8395   -3.9388 H   0  0  0  0  0  0  0  0  0  0  0  0
   -1.0330    0.6927   -5.2127 C   0  0  0  0  0  0  0  0  0  0  0  0
   -1.0931    1.9802   -5.4074 N   0  0  0  0  0  0  0  0  0  0  0  0
   -1.1597    2.5875   -4.6098 H   0  0  0  0  0  0  0  0  0  0  0  0
   -1.0750    2.3660   -6.3335 H   0  0  0  0  0  0  0  0  0  0  0  0
   -0.9481   -0.0705   -6.2651 N   0  0  0  0  0  0  0  0  0  0  0  0
   -0.8996   -1.0698   -6.1655 H   0  0  0  0  0  0  0  0  0  0  0  0
   -0.9318    0.3355   -7.1824 H   0  0  0  0  0  0  0  0  0  0  0  0
   -1.3143    0.7278    2.3211 C   0  0  0  0  0  0  0  0  0  0  0  0
   -1.6481    0.2384    3.3936 O   0  0  0  0  0  0  0  0  0  0  0  0
   -0.8869    1.9877    2.1921 N   0  0  0  0  0  0  0  0  0  0  0  0
   -0.5982    2.2960    1.2780 H   0  0  0  0  0  0  0  0  0  0  0  0
   -0.7263    2.9167    3.3119 C   0  0  0  0  0  0  0  0  0  0  0  0
    0.0431    2.5455    3.9922 H   0  0  0  0  0  0  0  0  0  0  0  0
   -0.4342    3.9028    2.9487 H   0  0  0  0  0  0  0  0  0  0  0  0
   -1.6643    3.0005    3.8652 H   0  0  0  0  0  0  0  0  0  0  0  0
  5  6  2  0  0  0  0
  5  7  1  0  0  0  0
  2  3  1  0  0  0  0
  2  4  1  0  0  0  0
  2  5  1  0  0  0  0
  1  2  1  0  0  0  0
 29 30  2  0  0  0  0
 29 31  1  0  0  0  0
 26 27  1  0  0  0  0
 26 28  1  0  0  0  0
 23 24  1  0  0  0  0
 23 25  1  0  0  0  0
 22 23  1  0  0  0  0
 22 26  1  0  0  0  0
 20 21  1  0  0  0  0
 20 22  2  0  0  0  0
 17 18  1  0  0  0  0
 17 19  1  0  0  0  0
 17 20  1  0  0  0  0
 14 15  1  0  0  0  0
 14 16  1  0  0  0  0
 14 17  1  0  0  0  0
 11 12  1  0  0  0  0
 11 13  1  0  0  0  0
 11 14  1  0  0  0  0
  9 10  1  0  0  0  0
  9 11  1  0  0  0  0
  9 29  1  0  0  0  0
  7  8  1  0  0  0  0
  7  9  1  0  0  0  0
 33 34  1  0  0  0  0
 33 35  1  0  0  0  0
 33 36  1  0  0  0  0
 31 32  1  0  0  0  0
 31 33  1  0  0  0  0
M  CHG  1  20   1
M  END
$$$$
default_name
  -OEChem-01062215323D

 36 35  0     1  0  0  0  0  0999 V2000
   -4.2256   -3.6731    1.8584 H   0  0  0  0  0  0  0  0  0  0  0  0
   -4.2396   -2.6781    1.4144 C   0  0  0  0  0  0  0  0  0  0  0  0
   -4.9506   -2.0521    1.9514 H   0  0  0  0  0  0  0  0  0  0  0  0
   -4.5266   -2.7521    0.3674 H   0  0  0  0  0  0  0  0  0  0  0  0
   -2.8576   -2.0761    1.5184 C   0  0  0  0  0  0  0  0  0  0  0  0
   -1.9456   -2.7051    2.0404 O   0  0  0  0  0  0  0  0  0  0  0  0
   -2.6926   -0.8481    1.0174 N   0  0  0  0  0  0  0  0  0  0  0  0
   -3.4926   -0.3971    0.5954 H   0  0  0  0  0  0  0  0  0  0  0  0
   -1.4216   -0.1071    1.0434 C   0  0  1  0  0  0  0  0  0  0  0  0
   -0.6026   -0.8281    1.0248 H   0  0  0  0  0  0  0  0  0  0  0  0
   -1.3410    0.7680   -0.2234 C   0  0  0  0  0  0  0  0  0  0  0  0
   -2.2442    1.3786   -0.2831 H   0  0  0  0  0  0  0  0  0  0  0  0
   -0.4831    1.4388   -0.1399 H   0  0  0  0  0  0  0  0  0  0  0  0
   -1.2214   -0.0445   -1.5211 C   0  0  0  0  0  0  0  0  0  0  0  0
   -0.3185   -0.6560   -1.4915 H   0  0  0  0  0  0  0  0  0  0  0  0
   -2.0924   -0.6926   -1.6225 H   0  0  0  0  0  0  0  0  0  0  0  0
   -1.1473    0.9033   -2.7259 C   0  0  0  0  0  0  0  0  0  0  0  0
   -2.0422    1.5298   -2.7323 H   0  0  0  0  0  0  0  0  0  0  0  0
   -0.2695    1.5436   -2.6111 H   0  0  0  0  0  0  0  0  0  0  0  0
   -1.0550    0.1629   -4.0011 N   0  3  0  0  0  0  0  0  0  0  0  0
   -1.0043   -0.8395   -3.9388 H   0  0  0  0  0  0  0  0  0  0  0  0
   -1.0330    0.6927   -5.2127 C   0  0  0  0  0  0  0  0  0  0  0  0
   -1.0931    1.9802   -5.4074 N   0  0  0  0  0  0  0  0  0  0  0  0
   -1.1597    2.5875   -4.6098 H   0  0  0  0  0  0  0  0  0  0  0  0
   -1.0750    2.3660   -6.3335 H   0  0  0  0  0  0  0  0  0  0  0  0
   -0.9481   -0.0705   -6.2651 N   0  0  0  0  0  0  0  0  0  0  0  0
   -0.8996   -1.0698   -6.1655 H   0  0  0  0  0  0  0  0  0  0  0  0
   -0.9318    0.3355   -7.1824 H   0  0  0  0  0  0  0  0  0  0  0  0
   -1.3143    0.7278    2.3211 C   0  0  0  0  0  0  0  0  0  0  0  0
   -1.3780    0.1747    3.4125 O   0  0  0  0  0  0  0  0  0  0  0  0
   -1.1906    2.0508    2.1763 N   0  0  0  0  0  0  0  0  0  0  0  0
   -1.1088    2.4169    1.2419 H   0  0  0  0  0  0  0  0  0  0  0  0
   -1.0746    2.9896    3.2935 C   0  0  0  0  0  0  0  0  0  0  0  0
   -0.1541    2.7928    3.8472 H   0  0  0  0  0  0  0  0  0  0  0  0
   -1.0562    4.0166    2.9266 H   0  0  0  0  0  0  0  0  0  0  0  0
   -1.9195    2.8660    3.9745 H   0  0  0  0  0  0  0  0  0  0  0  0
  5  6  2  0  0  0  0
  5  7  1  0  0  0  0
  2  3  1  0  0  0  0
  2  4  1  0  0  0  0
  2  5  1  0  0  0  0
  1  2  1  0  0  0  0
 29 30  2  0  0  0  0
 29 31  1  0  0  0  0
 26 27  1  0  0  0  0
 26 28  1  0  0  0  0
 23 24  1  0  0  0  0
 23 25  1  0  0  0  0
 22 23  1  0  0  0  0
 22 26  1  0  0  0  0
 20 21  1  0  0  0  0
 20 22  2  0  0  0  0
 17 18  1  0  0  0  0
 17 19  1  0  0  0  0
 17 20  1  0  0  0  0
 14 15  1  0  0  0  0
 14 16  1  0  0  0  0
 14 17  1  0  0  0  0
 11 12  1  0  0  0  0
 11 13  1  0  0  0  0
 11 14  1  0  0  0  0
  9 10  1  0  0  0  0
  9 11  1  0  0  0  0
  9 29  1  0  0  0  0
  7  8  1  0  0  0  0
  7  9  1  0  0  0  0
 33 34  1  0  0  0  0
 33 35  1  0  0  0  0
 33 36  1  0  0  0  0
 31 32  1  0  0  0  0
 31 33  1  0  0  0  0
M  CHG  1  20   1
M  END
$$$$
default_name
  -OEChem-01062215323D

 36 35  0     1  0  0  0  0  0999 V2000
   -4.2256   -3.6731    1.8584 H   0  0  0  0  0  0  0  0  0  0  0  0
   -4.2396   -2.6781    1.4144 C   0  0  0  0  0  0  0  0  0  0  0  0
   -4.9506   -2.0521    1.9514 H   0  0  0  0  0  0  0  0  0  0  0  0
   -4.5266   -2.7521    0.3674 H   0  0  0  0  0  0  0  0  0  0  0  0
   -2.8576   -2.0761    1.5184 C   0  0  0  0  0  0  0  0  0  0  0  0
   -1.9456   -2.7051    2.0404 O   0  0  0  0  0  0  0  0  0  0  0  0
   -2.6926   -0.8481    1.0174 N   0  0  0  0  0  0  0  0  0  0  0  0
   -3.4926   -0.3971    0.5954 H   0  0  0  0  0  0  0  0  0  0  0  0
   -1.4216   -0.1071    1.0434 C   0  0  1  0  0  0  0  0  0  0  0  0
   -0.6026   -0.8281    1.0248 H   0  0  0  0  0  0  0  0  0  0  0  0
   -1.3410    0.7680   -0.2234 C   0  0  0  0  0  0  0  0  0  0  0  0
   -2.2442    1.3786   -0.2831 H   0  0  0  0  0  0  0  0  0  0  0  0
   -0.4831    1.4388   -0.1399 H   0  0  0  0  0  0  0  0  0  0  0  0
   -1.2214   -0.0445   -1.5211 C   0  0  0  0  0  0  0  0  0  0  0  0
   -0.3185   -0.6560   -1.4915 H   0  0  0  0  0  0  0  0  0  0  0  0
   -2.0924   -0.6926   -1.6225 H   0  0  0  0  0  0  0  0  0  0  0  0
   -1.1473    0.9033   -2.7259 C   0  0  0  0  0  0  0  0  0  0  0  0
   -2.0422    1.5298   -2.7323 H   0  0  0  0  0  0  0  0  0  0  0  0
   -0.2695    1.5436   -2.6111 H   0  0  0  0  0  0  0  0  0  0  0  0
   -1.0550    0.1629   -4.0011 N   0  3  0  0  0  0  0  0  0  0  0  0
   -1.0043   -0.8395   -3.9388 H   0  0  0  0  0  0  0  0  0  0  0  0
   -1.0330    0.6927   -5.2127 C   0  0  0  0  0  0  0  0  0  0  0  0
   -1.0931    1.9802   -5.4074 N   0  0  0  0  0  0  0  0  0  0  0  0
   -1.1597    2.5875   -4.6098 H   0  0  0  0  0  0  0  0  0  0  0  0
   -1.0750    2.3660   -6.3335 H   0  0  0  0  0  0  0  0  0  0  0  0
   -0.9481   -0.0705   -6.2651 N   0  0  0  0  0  0  0  0  0  0  0  0
   -0.8996   -1.0698   -6.1655 H   0  0  0  0  0  0  0  0  0  0  0  0
   -0.9318    0.3355   -7.1824 H   0  0  0  0  0  0  0  0  0  0  0  0
   -1.3143    0.7278    2.3211 C   0  0  0  0  0  0  0  0  0  0  0  0
   -1.1007    0.1712    3.3915 O   0  0  0  0  0  0  0  0  0  0  0  0
   -1.4997    2.0465    2.2051 N   0  0  0  0  0  0  0  0  0  0  0  0
   -1.6332    2.4240    1.2813 H   0  0  0  0  0  0  0  0  0  0  0  0
   -1.4294    2.9850    3.3263 C   0  0  0  0  0  0  0  0  0  0  0  0
   -0.4185    2.9917    3.7395 H   0  0  0  0  0  0  0  0  0  0  0  0
   -1.6847    3.9924    2.9952 H   0  0  0  0  0  0  0  0  0  0  0  0
   -2.1215    2.6789    4.1137 H   0  0  0  0  0  0  0  0  0  0  0  0
  5  6  2  0  0  0  0
  5  7  1  0  0  0  0
  2  3  1  0  0  0  0
  2  4  1  0  0  0  0
  2  5  1  0  0  0  0
  1  2  1  0  0  0  0
 29 30  2  0  0  0  0
 29 31  1  0  0  0  0
 26 27  1  0  0  0  0
 26 28  1  0  0  0  0
 23 24  1  0  0  0  0
 23 25  1  0  0  0  0
 22 23  1  0  0  0  0
 22 26  1  0  0  0  0
 20 21  1  0  0  0  0
 20 22  2  0  0  0  0
 17 18  1  0  0  0  0
 17 19  1  0  0  0  0
 17 20  1  0  0  0  0
 14 15  1  0  0  0  0
 14 16  1  0  0  0  0
 14 17  1  0  0  0  0
 11 12  1  0  0  0  0
 11 13  1  0  0  0  0
 11 14  1  0  0  0  0
  9 10  1  0  0  0  0
  9 11  1  0  0  0  0
  9 29  1  0  0  0  0
  7  8  1  0  0  0  0
  7  9  1  0  0  0  0
 33 34  1  0  0  0  0
 33 35  1  0  0  0  0
 33 36  1  0  0  0  0
 31 32  1  0  0  0  0
 31 33  1  0  0  0  0
M  CHG  1  20   1
M  END
$$$$
default_name
  -OEChem-01062215323D

 36 35  0     1  0  0  0  0  0999 V2000
   -4.2256   -3.6731    1.8584 H   0  0  0  0  0  0  0  0  0  0  0  0
   -4.2396   -2.6781    1.4144 C   0  0  0  0  0  0  0  0  0  0  0  0
   -4.9506   -2.0521    1.9514 H   0  0  0  0  0  0  0  0  0  0  0  0
   -4.5266   -2.7521    0.3674 H   0  0  0  0  0  0  0  0  0  0  0  0
   -2.8576   -2.0761    1.5184 C   0  0  0  0  0  0  0  0  0  0  0  0
   -1.9456   -2.7051    2.0404 O   0  0  0  0  0  0  0  0  0  0  0  0
   -2.6926   -0.8481    1.0174 N   0  0  0  0  0  0  0  0  0  0  0  0
   -3.4926   -0.3971    0.5954 H   0  0  0  0  0  0  0  0  0  0  0  0
   -1.4216   -0.1071    1.0434 C   0  0  1  0  0  0  0  0  0  0  0  0
   -0.6026   -0.8281    1.0248 H   0  0  0  0  0  0  0  0  0  0  0  0
   -1.3410    0.7680   -0.2234 C   0  0  0  0  0  0  0  0  0  0  0  0
   -2.2442    1.3786   -0.2831 H   0  0  0  0  0  0  0  0  0  0  0  0
   -0.4831    1.4388   -0.1399 H   0  0  0  0  0  0  0  0  0  0  0  0
   -1.2214   -0.0445   -1.5211 C   0  0  0  0  0  0  0  0  0  0  0  0
   -0.3185   -0.6560   -1.4915 H   0  0  0  0  0  0  0  0  0  0  0  0
   -2.0924   -0.6926   -1.6225 H   0  0  0  0  0  0  0  0  0  0  0  0
   -1.1473    0.9033   -2.7259 C   0  0  0  0  0  0  0  0  0  0  0  0
   -2.0422    1.5298   -2.7323 H   0  0  0  0  0  0  0  0  0  0  0  0
   -0.2695    1.5436   -2.6111 H   0  0  0  0  0  0  0  0  0  0  0  0
   -1.0550    0.1629   -4.0011 N   0  3  0  0  0  0  0  0  0  0  0  0
   -1.0043   -0.8395   -3.9388 H   0  0  0  0  0  0  0  0  0  0  0  0
   -1.0330    0.6927   -5.2127 C   0  0  0  0  0  0  0  0  0  0  0  0
   -1.0931    1.9802   -5.4074 N   0  0  0  0  0  0  0  0  0  0  0  0
   -1.1597    2.5875   -4.6098 H   0  0  0  0  0  0  0  0  0  0  0  0
   -1.0750    2.3660   -6.3335 H   0  0  0  0  0  0  0  0  0  0  0  0
   -0.9481   -0.0705   -6.2651 N   0  0  0  0  0  0  0  0  0  0  0  0
   -0.8996   -1.0698   -6.1655 H   0  0  0  0  0  0  0  0  0  0  0  0
   -0.9318    0.3355   -7.1824 H   0  0  0  0  0  0  0  0  0  0  0  0
   -1.3143    0.7278    2.3211 C   0  0  0  0  0  0  0  0  0  0  0  0
   -0.8351    0.2282    3.3320 O   0  0  0  0  0  0  0  0  0  0  0  0
   -1.7933    1.9749    2.2765 N   0  0  0  0  0  0  0  0  0  0  0  0
   -2.1357    2.3168    1.3935 H   0  0  0  0  0  0  0  0  0  0  0  0
   -1.7664    2.9034    3.4079 C   0  0  0  0  0  0  0  0  0  0  0  0
   -0.7320    3.1286    3.6763 H   0  0  0  0  0  0  0  0  0  0  0  0
   -2.2770    3.8320    3.1497 H   0  0  0  0  0  0  0  0  0  0  0  0
   -2.2566    2.4520    4.2733 H   0  0  0  0  0  0  0  0  0  0  0  0
  5  6  2  0  0  0  0
  5  7  1  0  0  0  0
  2  3  1  0  0  0  0
  2  4  1  0  0  0  0
  2  5  1  0  0  0  0
  1  2  1  0  0  0  0
 29 30  2  0  0  0  0
 29 31  1  0  0  0  0
 26 27  1  0  0  0  0
 26 28  1  0  0  0  0
 23 24  1  0  0  0  0
 23 25  1  0  0  0  0
 22 23  1  0  0  0  0
 22 26  1  0  0  0  0
 20 21  1  0  0  0  0
 20 22  2  0  0  0  0
 17 18  1  0  0  0  0
 17 19  1  0  0  0  0
 17 20  1  0  0  0  0
 14 15  1  0  0  0  0
 14 16  1  0  0  0  0
 14 17  1  0  0  0  0
 11 12  1  0  0  0  0
 11 13  1  0  0  0  0
 11 14  1  0  0  0  0
  9 10  1  0  0  0  0
  9 11  1  0  0  0  0
  9 29  1  0  0  0  0
  7  8  1  0  0  0  0
  7  9  1  0  0  0  0
 33 34  1  0  0  0  0
 33 35  1  0  0  0  0
 33 36  1  0  0  0  0
 31 32  1  0  0  0  0
 31 33  1  0  0  0  0
M  CHG  1  20   1
M  END
$$$$
default_name
  -OEChem-01062215323D

 36 35  0     1  0  0  0  0  0999 V2000
   -4.2256   -3.6731    1.8584 H   0  0  0  0  0  0  0  0  0  0  0  0
   -4.2396   -2.6781    1.4144 C   0  0  0  0  0  0  0  0  0  0  0  0
   -4.9506   -2.0521    1.9514 H   0  0  0  0  0  0  0  0  0  0  0  0
   -4.5266   -2.7521    0.3674 H   0  0  0  0  0  0  0  0  0  0  0  0
   -2.8576   -2.0761    1.5184 C   0  0  0  0  0  0  0  0  0  0  0  0
   -1.9456   -2.7051    2.0404 O   0  0  0  0  0  0  0  0  0  0  0  0
   -2.6926   -0.8481    1.0174 N   0  0  0  0  0  0  0  0  0  0  0  0
   -3.4926   -0.3971    0.5954 H   0  0  0  0  0  0  0  0  0  0  0  0
   -1.4216   -0.1071    1.0434 C   0  0  1  0  0  0  0  0  0  0  0  0
   -0.6026   -0.8281    1.0248 H   0  0  0  0  0  0  0  0  0  0  0  0
   -1.3410    0.7680   -0.2234 C   0  0  0  0  0  0  0  0  0  0  0  0
   -2.2442    1.3786   -0.2831 H   0  0  0  0  0  0  0  0  0  0  0  0
   -0.4831    1.4388   -0.1399 H   0  0  0  0  0  0  0  0  0  0  0  0
   -1.2214   -0.0445   -1.5211 C   0  0  0  0  0  0  0  0  0  0  0  0
   -0.3185   -0.6560   -1.4915 H   0  0  0  0  0  0  0  0  0  0  0  0
   -2.0924   -0.6926   -1.6225 H   0  0  0  0  0  0  0  0  0  0  0  0
   -1.1473    0.9033   -2.7259 C   0  0  0  0  0  0  0  0  0  0  0  0
   -2.0422    1.5298   -2.7323 H   0  0  0  0  0  0  0  0  0  0  0  0
   -0.2695    1.5436   -2.6111 H   0  0  0  0  0  0  0  0  0  0  0  0
   -1.0550    0.1629   -4.0011 N   0  3  0  0  0  0  0  0  0  0  0  0
   -1.0043   -0.8395   -3.9388 H   0  0  0  0  0  0  0  0  0  0  0  0
   -1.0330    0.6927   -5.2127 C   0  0  0  0  0  0  0  0  0  0  0  0
   -1.0931    1.9802   -5.4074 N   0  0  0  0  0  0  0  0  0  0  0  0
   -1.1597    2.5875   -4.6098 H   0  0  0  0  0  0  0  0  0  0  0  0
   -1.0750    2.3660   -6.3335 H   0  0  0  0  0  0  0  0  0  0  0  0
   -0.9481   -0.0705   -6.2651 N   0  0  0  0  0  0  0  0  0  0  0  0
   -0.8996   -1.0698   -6.1655 H   0  0  0  0  0  0  0  0  0  0  0  0
   -0.9318    0.3355   -7.1824 H   0  0  0  0  0  0  0  0  0  0  0  0
   -1.3143    0.7278    2.3211 C   0  0  0  0  0  0  0  0  0  0  0  0
   -0.5992    0.3417    3.2380 O   0  0  0  0  0  0  0  0  0  0  0  0
   -2.0514    1.8410    2.3857 N   0  0  0  0  0  0  0  0  0  0  0  0
   -2.5821    2.1026    1.5709 H   0  0  0  0  0  0  0  0  0  0  0  0
   -2.0628    2.7502    3.5329 C   0  0  0  0  0  0  0  0  0  0  0  0
   -1.0734    3.1942    3.6621 H   0  0  0  0  0  0  0  0  0  0  0  0
   -2.7925    3.5462    3.3797 H   0  0  0  0  0  0  0  0  0  0  0  0
   -2.3154    2.2007    4.4424 H   0  0  0  0  0  0  0  0  0  0  0  0
  5  6  2  0  0  0  0
  5  7  1  0  0  0  0
  2  3  1  0  0  0  0
  2  4  1  0  0  0  0
  2  5  1  0  0  0  0
  1  2  1  0  0  0  0
 29 30  2  0  0  0  0
 29 31  1  0  0  0  0
 26 27  1  0  0  0  0
 26 28  1  0  0  0  0
 23 24  1  0  0  0  0
 23 25  1  0  0  0  0
 22 23  1  0  0  0  0
 22 26  1  0  0  0  0
 20 21  1  0  0  0  0
 20 22  2  0  0  0  0
 17 18  1  0  0  0  0
 17 19  1  0  0  0  0
 17 20  1  0  0  0  0
 14 15  1  0  0  0  0
 14 16  1  0  0  0  0
 14 17  1  0  0  0  0
 11 12  1  0  0  0  0
 11 13  1  0  0  0  0
 11 14  1  0  0  0  0
  9 10  1  0  0  0  0
  9 11  1  0  0  0  0
  9 29  1  0  0  0  0
  7  8  1  0  0  0  0
  7  9  1  0  0  0  0
 33 34  1  0  0  0  0
 33 35  1  0  0  0  0
 33 36  1  0  0  0  0
 31 32  1  0  0  0  0
 31 33  1  0  0  0  0
M  CHG  1  20   1
M  END
$$$$
default_name
  -OEChem-01062215323D

 36 35  0     1  0  0  0  0  0999 V2000
   -4.2256   -3.6731    1.8584 H   0  0  0  0  0  0  0  0  0  0  0  0
   -4.2396   -2.6781    1.4144 C   0  0  0  0  0  0  0  0  0  0  0  0
   -4.9506   -2.0521    1.9514 H   0  0  0  0  0  0  0  0  0  0  0  0
   -4.5266   -2.7521    0.3674 H   0  0  0  0  0  0  0  0  0  0  0  0
   -2.8576   -2.0761    1.5184 C   0  0  0  0  0  0  0  0  0  0  0  0
   -1.9456   -2.7051    2.0404 O   0  0  0  0  0  0  0  0  0  0  0  0
   -2.6926   -0.8481    1.0174 N   0  0  0  0  0  0  0  0  0  0  0  0
   -3.4926   -0.3971    0.5954 H   0  0  0  0  0  0  0  0  0  0  0  0
   -1.4216   -0.1071    1.0434 C   0  0  1  0  0  0  0  0  0  0  0  0
   -0.6026   -0.8281    1.0248 H   0  0  0  0  0  0  0  0  0  0  0  0
   -1.3410    0.7680   -0.2234 C   0  0  0  0  0  0  0  0  0  0  0  0
   -2.2442    1.3786   -0.2831 H   0  0  0  0  0  0  0  0  0  0  0  0
   -0.4831    1.4388   -0.1399 H   0  0  0  0  0  0  0  0  0  0  0  0
   -1.2214   -0.0445   -1.5211 C   0  0  0  0  0  0  0  0  0  0  0  0
   -0.3185   -0.6560   -1.4915 H   0  0  0  0  0  0  0  0  0  0  0  0
   -2.0924   -0.6926   -1.6225 H   0  0  0  0  0  0  0  0  0  0  0  0
   -1.1473    0.9033   -2.7259 C   0  0  0  0  0  0  0  0  0  0  0  0
   -2.0422    1.5298   -2.7323 H   0  0  0  0  0  0  0  0  0  0  0  0
   -0.2695    1.5436   -2.6111 H   0  0  0  0  0  0  0  0  0  0  0  0
   -1.0550    0.1629   -4.0011 N   0  3  0  0  0  0  0  0  0  0  0  0
   -1.0043   -0.8395   -3.9388 H   0  0  0  0  0  0  0  0  0  0  0  0
   -1.0330    0.6927   -5.2127 C   0  0  0  0  0  0  0  0  0  0  0  0
   -1.0931    1.9802   -5.4074 N   0  0  0  0  0  0  0  0  0  0  0  0
   -1.1597    2.5875   -4.6098 H   0  0  0  0  0  0  0  0  0  0  0  0
   -1.0750    2.3660   -6.3335 H   0  0  0  0  0  0  0  0  0  0  0  0
   -0.9481   -0.0705   -6.2651 N   0  0  0  0  0  0  0  0  0  0  0  0
   -0.8996   -1.0698   -6.1655 H   0  0  0  0  0  0  0  0  0  0  0  0
   -0.9318    0.3355   -7.1824 H   0  0  0  0  0  0  0  0  0  0  0  0
   -1.3143    0.7278    2.3211 C   0  0  0  0  0  0  0  0  0  0  0  0
   -0.4092    0.5040    3.1160 O   0  0  0  0  0  0  0  0  0  0  0  0
   -2.2563    1.6539    2.5251 N   0  0  0  0  0  0  0  0  0  0  0  0
   -2.9419    1.7960    1.8015 H   0  0  0  0  0  0  0  0  0  0  0  0
   -2.2983    2.5359    3.6927 C   0  0  0  0  0  0  0  0  0  0  0  0
   -1.4194    3.1840    3.6978 H   0  0  0  0  0  0  0  0  0  0  0  0
   -3.1962    3.1546    3.6695 H   0  0  0  0  0  0  0  0  0  0  0  0
   -2.2941    1.9423    4.6095 H   0  0  0  0  0  0  0  0  0  0  0  0
  5  6  2  0  0  0  0
  5  7  1  0  0  0  0
  2  3  1  0  0  0  0
  2  4  1  0  0  0  0
  2  5  1  0  0  0  0
  1  2  1  0  0  0  0
 29 30  2  0  0  0  0
 29 31  1  0  0  0  0
 26 27  1  0  0  0  0
 26 28  1  0  0  0  0
 23 24  1  0  0  0  0
 23 25  1  0  0  0  0
 22 23  1  0  0  0  0
 22 26  1  0  0  0  0
 20 21  1  0  0  0  0
 20 22  2  0  0  0  0
 17 18  1  0  0  0  0
 17 19  1  0  0  0  0
 17 20  1  0  0  0  0
 14 15  1  0  0  0  0
 14 16  1  0  0  0  0
 14 17  1  0  0  0  0
 11 12  1  0  0  0  0
 11 13  1  0  0  0  0
 11 14  1  0  0  0  0
  9 10  1  0  0  0  0
  9 11  1  0  0  0  0
  9 29  1  0  0  0  0
  7  8  1  0  0  0  0
  7  9  1  0  0  0  0
 33 34  1  0  0  0  0
 33 35  1  0  0  0  0
 33 36  1  0  0  0  0
 31 32  1  0  0  0  0
 31 33  1  0  0  0  0
M  CHG  1  20   1
M  END
$$$$
default_name
  -OEChem-01062215323D

 36 35  0     1  0  0  0  0  0999 V2000
   -4.2256   -3.6731    1.8584 H   0  0  0  0  0  0  0  0  0  0  0  0
   -4.2396   -2.6781    1.4144 C   0  0  0  0  0  0  0  0  0  0  0  0
   -4.9506   -2.0521    1.9514 H   0  0  0  0  0  0  0  0  0  0  0  0
   -4.5266   -2.7521    0.3674 H   0  0  0  0  0  0  0  0  0  0  0  0
   -2.8576   -2.0761    1.5184 C   0  0  0  0  0  0  0  0  0  0  0  0
   -1.9456   -2.7051    2.0404 O   0  0  0  0  0  0  0  0  0  0  0  0
   -2.6926   -0.8481    1.0174 N   0  0  0  0  0  0  0  0  0  0  0  0
   -3.4926   -0.3971    0.5954 H   0  0  0  0  0  0  0  0  0  0  0  0
   -1.4216   -0.1071    1.0434 C   0  0  1  0  0  0  0  0  0  0  0  0
   -0.6026   -0.8281    1.0248 H   0  0  0  0  0  0  0  0  0  0  0  0
   -1.3410    0.7680   -0.2234 C   0  0  0  0  0  0  0  0  0  0  0  0
   -2.2442    1.3786   -0.2831 H   0  0  0  0  0  0  0  0  0  0  0  0
   -0.4831    1.4388   -0.1399 H   0  0  0  0  0  0  0  0  0  0  0  0
   -1.2214   -0.0445   -1.5211 C   0  0  0  0  0  0  0  0  0  0  0  0
   -0.3185   -0.6560   -1.4915 H   0  0  0  0  0  0  0  0  0  0  0  0
   -2.0924   -0.6926   -1.6225 H   0  0  0  0  0  0  0  0  0  0  0  0
   -1.1473    0.9033   -2.7259 C   0  0  0  0  0  0  0  0  0  0  0  0
   -2.0422    1.5298   -2.7323 H   0  0  0  0  0  0  0  0  0  0  0  0
   -0.2695    1.5436   -2.6111 H   0  0  0  0  0  0  0  0  0  0  0  0
   -1.0550    0.1629   -4.0011 N   0  3  0  0  0  0  0  0  0  0  0  0
   -1.0043   -0.8395   -3.9388 H   0  0  0  0  0  0  0  0  0  0  0  0
   -1.0330    0.6927   -5.2127 C   0  0  0  0  0  0  0  0  0  0  0  0
   -1.0931    1.9802   -5.4074 N   0  0  0  0  0  0  0  0  0  0  0  0
   -1.1597    2.5875   -4.6098 H   0  0  0  0  0  0  0  0  0  0  0  0
   -1.0750    2.3660   -6.3335 H   0  0  0  0  0  0  0  0  0  0  0  0
   -0.9481   -0.0705   -6.2651 N   0  0  0  0  0  0  0  0  0  0  0  0
   -0.8996   -1.0698   -6.1655 H   0  0  0  0  0  0  0  0  0  0  0  0
   -0.9318    0.3355   -7.1824 H   0  0  0  0  0  0  0  0  0  0  0  0
   -1.3143    0.7278    2.3211 C   0  0  0  0  0  0  0  0  0  0  0  0
   -0.2780    0.7040    2.9743 O   0  0  0  0  0  0  0  0  0  0  0  0
   -2.3941    1.4264    2.6854 N   0  0  0  0  0  0  0  0  0  0  0  0
   -3.1906    1.4179    2.0694 H   0  0  0  0  0  0  0  0  0  0  0  0
   -2.4569    2.2750    3.8765 C   0  0  0  0  0  0  0  0  0  0  0  0
   -1.7463    3.0988    3.7809 H   0  0  0  0  0  0  0  0  0  0  0  0
   -3.4606    2.6838    3.9994 H   0  0  0  0  0  0  0  0  0  0  0  0
   -2.1940    1.6942    4.7633 H   0  0  0  0  0  0  0  0  0  0  0  0
  5  6  2  0  0  0  0
  5  7  1  0  0  0  0
  2  3  1  0  0  0  0
  2  4  1  0  0  0  0
  2  5  1  0  0  0  0
  1  2  1  0  0  0  0
 29 30  2  0  0  0  0
 29 31  1  0  0  0  0
 26 27  1  0  0  0  0
 26 28  1  0  0  0  0
 23 24  1  0  0  0  0
 23 25  1  0  0  0  0
 22 23  1  0  0  0  0
 22 26  1  0  0  0  0
 20 21  1  0  0  0  0
 20 22  2  0  0  0  0
 17 18  1  0  0  0  0
 17 19  1  0  0  0  0
 17 20  1  0  0  0  0
 14 15  1  0  0  0  0
 14 16  1  0  0  0  0
 14 17  1  0  0  0  0
 11 12  1  0  0  0  0
 11 13  1  0  0  0  0
 11 14  1  0  0  0  0
  9 10  1  0  0  0  0
  9 11  1  0  0  0  0
  9 29  1  0  0  0  0
  7  8  1  0  0  0  0
  7  9  1  0  0  0  0
 33 34  1  0  0  0  0
 33 35  1  0  0  0  0
 33 36  1  0  0  0  0
 31 32  1  0  0  0  0
 31 33  1  0  0  0  0
M  CHG  1  20   1
M  END
$$$$
default_name
  -OEChem-01062215323D

 36 35  0     1  0  0  0  0  0999 V2000
   -4.2256   -3.6731    1.8584 H   0  0  0  0  0  0  0  0  0  0  0  0
   -4.2396   -2.6781    1.4144 C   0  0  0  0  0  0  0  0  0  0  0  0
   -4.9506   -2.0521    1.9514 H   0  0  0  0  0  0  0  0  0  0  0  0
   -4.5266   -2.7521    0.3674 H   0  0  0  0  0  0  0  0  0  0  0  0
   -2.8576   -2.0761    1.5184 C   0  0  0  0  0  0  0  0  0  0  0  0
   -1.9456   -2.7051    2.0404 O   0  0  0  0  0  0  0  0  0  0  0  0
   -2.6926   -0.8481    1.0174 N   0  0  0  0  0  0  0  0  0  0  0  0
   -3.4926   -0.3971    0.5954 H   0  0  0  0  0  0  0  0  0  0  0  0
   -1.4216   -0.1071    1.0434 C   0  0  1  0  0  0  0  0  0  0  0  0
   -0.6026   -0.8281    1.0248 H   0  0  0  0  0  0  0  0  0  0  0  0
   -1.3410    0.7680   -0.2234 C   0  0  0  0  0  0  0  0  0  0  0  0
   -2.2442    1.3786   -0.2831 H   0  0  0  0  0  0  0  0  0  0  0  0
   -0.4831    1.4388   -0.1399 H   0  0  0  0  0  0  0  0  0  0  0  0
   -1.2214   -0.0445   -1.5211 C   0  0  0  0  0  0  0  0  0  0  0  0
   -0.3185   -0.6560   -1.4915 H   0  0  0  0  0  0  0  0  0  0  0  0
   -2.0924   -0.6926   -1.6225 H   0  0  0  0  0  0  0  0  0  0  0  0
   -1.1473    0.9033   -2.7259 C   0  0  0  0  0  0  0  0  0  0  0  0
   -2.0422    1.5298   -2.7323 H   0  0  0  0  0  0  0  0  0  0  0  0
   -0.2695    1.5436   -2.6111 H   0  0  0  0  0  0  0  0  0  0  0  0
   -1.0550    0.1629   -4.0011 N   0  3  0  0  0  0  0  0  0  0  0  0
   -1.0043   -0.8395   -3.9388 H   0  0  0  0  0  0  0  0  0  0  0  0
   -1.0330    0.6927   -5.2127 C   0  0  0  0  0  0  0  0  0  0  0  0
   -1.0931    1.9802   -5.4074 N   0  0  0  0  0  0  0  0  0  0  0  0
   -1.1597    2.5875   -4.6098 H   0  0  0  0  0  0  0  0  0  0  0  0
   -1.0750    2.3660   -6.3335 H   0  0  0  0  0  0  0  0  0  0  0  0
   -0.9481   -0.0705   -6.2651 N   0  0  0  0  0  0  0  0  0  0  0  0
   -0.8996   -1.0698   -6.1655 H   0  0  0  0  0  0  0  0  0  0  0  0
   -0.9318    0.3355   -7.1824 H   0  0  0  0  0  0  0  0  0  0  0  0
   -1.3143    0.7278    2.3211 C   0  0  0  0  0  0  0  0  0  0  0  0
   -0.2145    0.9282    2.8224 O   0  0  0  0  0  0  0  0  0  0  0  0
   -2.4554    1.1740    2.8555 N   0  0  0  0  0  0  0  0  0  0  0  0
   -3.3113    0.9941    2.3565 H   0  0  0  0  0  0  0  0  0  0  0  0
   -2.5278    1.9855    4.0716 C   0  0  0  0  0  0  0  0  0  0  0  0
   -2.0319    2.9443    3.9058 H   0  0  0  0  0  0  0  0  0  0  0  0
   -3.5677    2.1659    4.3468 H   0  0  0  0  0  0  0  0  0  0  0  0
   -2.0220    1.4734    4.8931 H   0  0  0  0  0  0  0  0  0  0  0  0
  5  6  2  0  0  0  0
  5  7  1  0  0  0  0
  2  3  1  0  0  0  0
  2  4  1  0  0  0  0
  2  5  1  0  0  0  0
  1  2  1  0  0  0  0
 29 30  2  0  0  0  0
 29 31  1  0  0  0  0
 26 27  1  0  0  0  0
 26 28  1  0  0  0  0
 23 24  1  0  0  0  0
 23 25  1  0  0  0  0
 22 23  1  0  0  0  0
 22 26  1  0  0  0  0
 20 21  1  0  0  0  0
 20 22  2  0  0  0  0
 17 18  1  0  0  0  0
 17 19  1  0  0  0  0
 17 20  1  0  0  0  0
 14 15  1  0  0  0  0
 14 16  1  0  0  0  0
 14 17  1  0  0  0  0
 11 12  1  0  0  0  0
 11 13  1  0  0  0  0
 11 14  1  0  0  0  0
  9 10  1  0  0  0  0
  9 11  1  0  0  0  0
  9 29  1  0  0  0  0
  7  8  1  0  0  0  0
  7  9  1  0  0  0  0
 33 34  1  0  0  0  0
 33 35  1  0  0  0  0
 33 36  1  0  0  0  0
 31 32  1  0  0  0  0
 31 33  1  0  0  0  0
M  CHG  1  20   1
M  END
$$$$
default_name
  -OEChem-01062215323D

 36 35  0     1  0  0  0  0  0999 V2000
   -4.2256   -3.6731    1.8584 H   0  0  0  0  0  0  0  0  0  0  0  0
   -4.2396   -2.6781    1.4144 C   0  0  0  0  0  0  0  0  0  0  0  0
   -4.9506   -2.0521    1.9514 H   0  0  0  0  0  0  0  0  0  0  0  0
   -4.5266   -2.7521    0.3674 H   0  0  0  0  0  0  0  0  0  0  0  0
   -2.8576   -2.0761    1.5184 C   0  0  0  0  0  0  0  0  0  0  0  0
   -1.9456   -2.7051    2.0404 O   0  0  0  0  0  0  0  0  0  0  0  0
   -2.6926   -0.8481    1.0174 N   0  0  0  0  0  0  0  0  0  0  0  0
   -3.4926   -0.3971    0.5954 H   0  0  0  0  0  0  0  0  0  0  0  0
   -1.4216   -0.1071    1.0434 C   0  0  1  0  0  0  0  0  0  0  0  0
   -0.6026   -0.8281    1.0248 H   0  0  0  0  0  0  0  0  0  0  0  0
   -1.3410    0.7680   -0.2234 C   0  0  0  0  0  0  0  0  0  0  0  0
   -2.2442    1.3786   -0.2831 H   0  0  0  0  0  0  0  0  0  0  0  0
   -0.4831    1.4388   -0.1399 H   0  0  0  0  0  0  0  0  0  0  0  0
   -1.2214   -0.0445   -1.5211 C   0  0  0  0  0  0  0  0  0  0  0  0
   -0.3185   -0.6560   -1.4915 H   0  0  0  0  0  0  0  0  0  0  0  0
   -2.0924   -0.6926   -1.6225 H   0  0  0  0  0  0  0  0  0  0  0  0
   -1.1473    0.9033   -2.7259 C   0  0  0  0  0  0  0  0  0  0  0  0
   -2.0422    1.5298   -2.7323 H   0  0  0  0  0  0  0  0  0  0  0  0
   -0.2695    1.5436   -2.6111 H   0  0  0  0  0  0  0  0  0  0  0  0
   -1.0550    0.1629   -4.0011 N   0  3  0  0  0  0  0  0  0  0  0  0
   -1.0043   -0.8395   -3.9388 H   0  0  0  0  0  0  0  0  0  0  0  0
   -1.0330    0.6927   -5.2127 C   0  0  0  0  0  0  0  0  0  0  0  0
   -1.0931    1.9802   -5.4074 N   0  0  0  0  0  0  0  0  0  0  0  0
   -1.1597    2.5875   -4.6098 H   0  0  0  0  0  0  0  0  0  0  0  0
   -1.0750    2.3660   -6.3335 H   0  0  0  0  0  0  0  0  0  0  0  0
   -0.9481   -0.0705   -6.2651 N   0  0  0  0  0  0  0  0  0  0  0  0
   -0.8996   -1.0698   -6.1655 H   0  0  0  0  0  0  0  0  0  0  0  0
   -0.9318    0.3355   -7.1824 H   0  0  0  0  0  0  0  0  0  0  0  0
   -1.3143    0.7278    2.3211 C   0  0  0  0  0  0  0  0  0  0  0  0
   -0.2230    1.1613    2.6709 O   0  0  0  0  0  0  0  0  0  0  0  0
   -2.4360    0.9138    3.0239 N   0  0  0  0  0  0  0  0  0  0  0  0
   -3.2957    0.5534    2.6432 H   0  0  0  0  0  0  0  0  0  0  0  0
   -2.5061    1.6870    4.2649 C   0  0  0  0  0  0  0  0  0  0  0  0
   -2.2568    2.7311    4.0640 H   0  0  0  0  0  0  0  0  0  0  0  0
   -3.5101    1.6363    4.6881 H   0  0  0  0  0  0  0  0  0  0  0  0
   -1.7898    1.2949    4.9902 H   0  0  0  0  0  0  0  0  0  0  0  0
  5  6  2  0  0  0  0
  5  7  1  0  0  0  0
  2  3  1  0  0  0  0
  2  4  1  0  0  0  0
  2  5  1  0  0  0  0
  1  2  1  0  0  0  0
 29 30  2  0  0  0  0
 29 31  1  0  0  0  0
 26 27  1  0  0  0  0
 26 28  1  0  0  0  0
 23 24  1  0  0  0  0
 23 25  1  0  0  0  0
 22 23  1  0  0  0  0
 22 26  1  0  0  0  0
 20 21  1  0  0  0  0
 20 22  2  0  0  0  0
 17 18  1  0  0  0  0
 17 19  1  0  0  0  0
 17 20  1  0  0  0  0
 14 15  1  0  0  0  0
 14 16  1  0  0  0  0
 14 17  1  0  0  0  0
 11 12  1  0  0  0  0
 11 13  1  0  0  0  0
 11 14  1  0  0  0  0
  9 10  1  0  0  0  0
  9 11  1  0  0  0  0
  9 29  1  0  0  0  0
  7  8  1  0  0  0  0
  7  9  1  0  0  0  0
 33 34  1  0  0  0  0
 33 35  1  0  0  0  0
 33 36  1  0  0  0  0
 31 32  1  0  0  0  0
 31 33  1  0  0  0  0
M  CHG  1  20   1
M  END
$$$$
default_name
  -OEChem-01062215323D

 36 35  0     1  0  0  0  0  0999 V2000
   -4.2256   -3.6731    1.8584 H   0  0  0  0  0  0  0  0  0  0  0  0
   -4.2396   -2.6781    1.4144 C   0  0  0  0  0  0  0  0  0  0  0  0
   -4.9506   -2.0521    1.9514 H   0  0  0  0  0  0  0  0  0  0  0  0
   -4.5266   -2.7521    0.3674 H   0  0  0  0  0  0  0  0  0  0  0  0
   -2.8576   -2.0761    1.5184 C   0  0  0  0  0  0  0  0  0  0  0  0
   -1.9456   -2.7051    2.0404 O   0  0  0  0  0  0  0  0  0  0  0  0
   -2.6926   -0.8481    1.0174 N   0  0  0  0  0  0  0  0  0  0  0  0
   -3.4926   -0.3971    0.5954 H   0  0  0  0  0  0  0  0  0  0  0  0
   -1.4216   -0.1071    1.0434 C   0  0  1  0  0  0  0  0  0  0  0  0
   -0.6026   -0.8281    1.0248 H   0  0  0  0  0  0  0  0  0  0  0  0
   -1.3410    0.7680   -0.2234 C   0  0  0  0  0  0  0  0  0  0  0  0
   -2.2442    1.3786   -0.2831 H   0  0  0  0  0  0  0  0  0  0  0  0
   -0.4831    1.4388   -0.1399 H   0  0  0  0  0  0  0  0  0  0  0  0
   -1.2214   -0.0445   -1.5211 C   0  0  0  0  0  0  0  0  0  0  0  0
   -0.3185   -0.6560   -1.4915 H   0  0  0  0  0  0  0  0  0  0  0  0
   -2.0924   -0.6926   -1.6225 H   0  0  0  0  0  0  0  0  0  0  0  0
   -1.1473    0.9033   -2.7259 C   0  0  0  0  0  0  0  0  0  0  0  0
   -2.0422    1.5298   -2.7323 H   0  0  0  0  0  0  0  0  0  0  0  0
   -0.2695    1.5436   -2.6111 H   0  0  0  0  0  0  0  0  0  0  0  0
   -1.0550    0.1629   -4.0011 N   0  3  0  0  0  0  0  0  0  0  0  0
   -1.0043   -0.8395   -3.9388 H   0  0  0  0  0  0  0  0  0  0  0  0
   -1.0330    0.6927   -5.2127 C   0  0  0  0  0  0  0  0  0  0  0  0
   -1.0931    1.9802   -5.4074 N   0  0  0  0  0  0  0  0  0  0  0  0
   -1.1597    2.5875   -4.6098 H   0  0  0  0  0  0  0  0  0  0  0  0
   -1.0750    2.3660   -6.3335 H   0  0  0  0  0  0  0  0  0  0  0  0
   -0.9481   -0.0705   -6.2651 N   0  0  0  0  0  0  0  0  0  0  0  0
   -0.8996   -1.0698   -6.1655 H   0  0  0  0  0  0  0  0  0  0  0  0
   -0.9318    0.3355   -7.1824 H   0  0  0  0  0  0  0  0  0  0  0  0
   -1.3143    0.7278    2.3211 C   0  0  0  0  0  0  0  0  0  0  0  0
   -0.3030    1.3873    2.5299 O   0  0  0  0  0  0  0  0  0  0  0  0
   -2.3373    0.6636    3.1791 N   0  0  0  0  0  0  0  0  0  0  0  0
   -3.1449    0.1259    2.9099 H   0  0  0  0  0  0  0  0  0  0  0  0
   -2.3933    1.3998    4.4431 C   0  0  0  0  0  0  0  0  0  0  0  0
   -2.4055    2.4737    4.2448 H   0  0  0  0  0  0  0  0  0  0  0  0
   -3.2918    1.1309    5.0000 H   0  0  0  0  0  0  0  0  0  0  0  0
   -1.5132    1.1710    5.0480 H   0  0  0  0  0  0  0  0  0  0  0  0
  5  6  2  0  0  0  0
  5  7  1  0  0  0  0
  2  3  1  0  0  0  0
  2  4  1  0  0  0  0
  2  5  1  0  0  0  0
  1  2  1  0  0  0  0
 29 30  2  0  0  0  0
 29 31  1  0  0  0  0
 26 27  1  0  0  0  0
 26 28  1  0  0  0  0
 23 24  1  0  0  0  0
 23 25  1  0  0  0  0
 22 23  1  0  0  0  0
 22 26  1  0  0  0  0
 20 21  1  0  0  0  0
 20 22  2  0  0  0  0
 17 18  1  0  0  0  0
 17 19  1  0  0  0  0
 17 20  1  0  0  0  0
 14 15  1  0  0  0  0
 14 16  1  0  0  0  0
 14 17  1  0  0  0  0
 11 12  1  0  0  0  0
 11 13  1  0  0  0  0
 11 14  1  0  0  0  0
  9 10  1  0  0  0  0
  9 11  1  0  0  0  0
  9 29  1  0  0  0  0
  7  8  1  0  0  0  0
  7  9  1  0  0  0  0
 33 34  1  0  0  0  0
 33 35  1  0  0  0  0
 33 36  1  0  0  0  0
 31 32  1  0  0  0  0
 31 33  1  0  0  0  0
M  CHG  1  20   1
M  END
$$$$
default_name
  -OEChem-01062215323D

 36 35  0     1  0  0  0  0  0999 V2000
   -4.2256   -3.6731    1.8584 H   0  0  0  0  0  0  0  0  0  0  0  0
   -4.2396   -2.6781    1.4144 C   0  0  0  0  0  0  0  0  0  0  0  0
   -4.9506   -2.0521    1.9514 H   0  0  0  0  0  0  0  0  0  0  0  0
   -4.5266   -2.7521    0.3674 H   0  0  0  0  0  0  0  0  0  0  0  0
   -2.8576   -2.0761    1.5184 C   0  0  0  0  0  0  0  0  0  0  0  0
   -1.9456   -2.7051    2.0404 O   0  0  0  0  0  0  0  0  0  0  0  0
   -2.6926   -0.8481    1.0174 N   0  0  0  0  0  0  0  0  0  0  0  0
   -3.4926   -0.3971    0.5954 H   0  0  0  0  0  0  0  0  0  0  0  0
   -1.4216   -0.1071    1.0434 C   0  0  1  0  0  0  0  0  0  0  0  0
   -0.6026   -0.8281    1.0248 H   0  0  0  0  0  0  0  0  0  0  0  0
   -1.3410    0.7680   -0.2234 C   0  0  0  0  0  0  0  0  0  0  0  0
   -2.2442    1.3786   -0.2831 H   0  0  0  0  0  0  0  0  0  0  0  0
   -0.4831    1.4388   -0.1399 H   0  0  0  0  0  0  0  0  0  0  0  0
   -1.2214   -0.0445   -1.5211 C   0  0  0  0  0  0  0  0  0  0  0  0
   -0.3185   -0.6560   -1.4915 H   0  0  0  0  0  0  0  0  0  0  0  0
   -2.0924   -0.6926   -1.6225 H   0  0  0  0  0  0  0  0  0  0  0  0
   -1.1473    0.9033   -2.7259 C   0  0  0  0  0  0  0  0  0  0  0  0
   -2.0422    1.5298   -2.7323 H   0  0  0  0  0  0  0  0  0  0  0  0
   -0.2695    1.5436   -2.6111 H   0  0  0  0  0  0  0  0  0  0  0  0
   -1.0550    0.1629   -4.0011 N   0  3  0  0  0  0  0  0  0  0  0  0
   -1.0043   -0.8395   -3.9388 H   0  0  0  0  0  0  0  0  0  0  0  0
   -1.0330    0.6927   -5.2127 C   0  0  0  0  0  0  0  0  0  0  0  0
   -1.0931    1.9802   -5.4074 N   0  0  0  0  0  0  0  0  0  0  0  0
   -1.1597    2.5875   -4.6098 H   0  0  0  0  0  0  0  0  0  0  0  0
   -1.0750    2.3660   -6.3335 H   0  0  0  0  0  0  0  0  0  0  0  0
   -0.9481   -0.0705   -6.2651 N   0  0  0  0  0  0  0  0  0  0  0  0
   -0.8996   -1.0698   -6.1655 H   0  0  0  0  0  0  0  0  0  0  0  0
   -0.9318    0.3355   -7.1824 H   0  0  0  0  0  0  0  0  0  0  0  0
   -1.3143    0.7278    2.3211 C   0  0  0  0  0  0  0  0  0  0  0  0
   -0.4491    1.5908    2.4092 O   0  0  0  0  0  0  0  0  0  0  0  0
   -2.1659    0.4405    3.3105 N   0  0  0  0  0  0  0  0  0  0  0  0
   -2.8692   -0.2593    3.1384 H   0  0  0  0  0  0  0  0  0  0  0  0
   -2.1972    1.1436    4.5941 C   0  0  0  0  0  0  0  0  0  0  0  0
   -2.4681    2.1896    4.4356 H   0  0  0  0  0  0  0  0  0  0  0  0
   -2.9277    0.6843    5.2613 H   0  0  0  0  0  0  0  0  0  0  0  0
   -1.2111    1.1100    5.0625 H   0  0  0  0  0  0  0  0  0  0  0  0
  5  6  2  0  0  0  0
  5  7  1  0  0  0  0
  2  3  1  0  0  0  0
  2  4  1  0  0  0  0
  2  5  1  0  0  0  0
  1  2  1  0  0  0  0
 29 30  2  0  0  0  0
 29 31  1  0  0  0  0
 26 27  1  0  0  0  0
 26 28  1  0  0  0  0
 23 24  1  0  0  0  0
 23 25  1  0  0  0  0
 22 23  1  0  0  0  0
 22 26  1  0  0  0  0
 20 21  1  0  0  0  0
 20 22  2  0  0  0  0
 17 18  1  0  0  0  0
 17 19  1  0  0  0  0
 17 20  1  0  0  0  0
 14 15  1  0  0  0  0
 14 16  1  0  0  0  0
 14 17  1  0  0  0  0
 11 12  1  0  0  0  0
 11 13  1  0  0  0  0
 11 14  1  0  0  0  0
  9 10  1  0  0  0  0
  9 11  1  0  0  0  0
  9 29  1  0  0  0  0
  7  8  1  0  0  0  0
  7  9  1  0  0  0  0
 33 34  1  0  0  0  0
 33 35  1  0  0  0  0
 33 36  1  0  0  0  0
 31 32  1  0  0  0  0
 31 33  1  0  0  0  0
M  CHG  1  20   1
M  END
$$$$
default_name
  -OEChem-01062215323D

 36 35  0     1  0  0  0  0  0999 V2000
   -4.2256   -3.6731    1.8584 H   0  0  0  0  0  0  0  0  0  0  0  0
   -4.2396   -2.6781    1.4144 C   0  0  0  0  0  0  0  0  0  0  0  0
   -4.9506   -2.0521    1.9514 H   0  0  0  0  0  0  0  0  0  0  0  0
   -4.5266   -2.7521    0.3674 H   0  0  0  0  0  0  0  0  0  0  0  0
   -2.8576   -2.0761    1.5184 C   0  0  0  0  0  0  0  0  0  0  0  0
   -1.9456   -2.7051    2.0404 O   0  0  0  0  0  0  0  0  0  0  0  0
   -2.6926   -0.8481    1.0174 N   0  0  0  0  0  0  0  0  0  0  0  0
   -3.4926   -0.3971    0.5954 H   0  0  0  0  0  0  0  0  0  0  0  0
   -1.4216   -0.1071    1.0434 C   0  0  1  0  0  0  0  0  0  0  0  0
   -0.6026   -0.8281    1.0248 H   0  0  0  0  0  0  0  0  0  0  0  0
   -1.3410    0.7680   -0.2234 C   0  0  0  0  0  0  0  0  0  0  0  0
   -2.2442    1.3786   -0.2831 H   0  0  0  0  0  0  0  0  0  0  0  0
   -0.4831    1.4388   -0.1399 H   0  0  0  0  0  0  0  0  0  0  0  0
   -1.2214   -0.0445   -1.5211 C   0  0  0  0  0  0  0  0  0  0  0  0
   -0.3185   -0.6560   -1.4915 H   0  0  0  0  0  0  0  0  0  0  0  0
   -2.0924   -0.6926   -1.6225 H   0  0  0  0  0  0  0  0  0  0  0  0
   -1.1473    0.9033   -2.7259 C   0  0  0  0  0  0  0  0  0  0  0  0
   -2.0422    1.5298   -2.7323 H   0  0  0  0  0  0  0  0  0  0  0  0
   -0.2695    1.5436   -2.6111 H   0  0  0  0  0  0  0  0  0  0  0  0
   -1.0550    0.1629   -4.0011 N   0  3  0  0  0  0  0  0  0  0  0  0
   -1.0043   -0.8395   -3.9388 H   0  0  0  0  0  0  0  0  0  0  0  0
   -1.0330    0.6927   -5.2127 C   0  0  0  0  0  0  0  0  0  0  0  0
   -1.0931    1.9802   -5.4074 N   0  0  0  0  0  0  0  0  0  0  0  0
   -1.1597    2.5875   -4.6098 H   0  0  0  0  0  0  0  0  0  0  0  0
   -1.0750    2.3660   -6.3335 H   0  0  0  0  0  0  0  0  0  0  0  0
   -0.9481   -0.0705   -6.2651 N   0  0  0  0  0  0  0  0  0  0  0  0
   -0.8996   -1.0698   -6.1655 H   0  0  0  0  0  0  0  0  0  0  0  0
   -0.9318    0.3355   -7.1824 H   0  0  0  0  0  0  0  0  0  0  0  0
   -1.3143    0.7278    2.3211 C   0  0  0  0  0  0  0  0  0  0  0  0
   -0.6512    1.7580    2.3168 O   0  0  0  0  0  0  0  0  0  0  0  0
   -1.9336    0.2596    3.4092 N   0  0  0  0  0  0  0  0  0  0  0  0
   -2.4874   -0.5759    3.3133 H   0  0  0  0  0  0  0  0  0  0  0  0
   -1.9310    0.9357    4.7076 C   0  0  0  0  0  0  0  0  0  0  0  0
   -2.4401    1.8982    4.6237 H   0  0  0  0  0  0  0  0  0  0  0  0
   -2.4425    0.3268    5.4542 H   0  0  0  0  0  0  0  0  0  0  0  0
   -0.9041    1.1161    5.0327 H   0  0  0  0  0  0  0  0  0  0  0  0
  5  6  2  0  0  0  0
  5  7  1  0  0  0  0
  2  3  1  0  0  0  0
  2  4  1  0  0  0  0
  2  5  1  0  0  0  0
  1  2  1  0  0  0  0
 29 30  2  0  0  0  0
 29 31  1  0  0  0  0
 26 27  1  0  0  0  0
 26 28  1  0  0  0  0
 23 24  1  0  0  0  0
 23 25  1  0  0  0  0
 22 23  1  0  0  0  0
 22 26  1  0  0  0  0
 20 21  1  0  0  0  0
 20 22  2  0  0  0  0
 17 18  1  0  0  0  0
 17 19  1  0  0  0  0
 17 20  1  0  0  0  0
 14 15  1  0  0  0  0
 14 16  1  0  0  0  0
 14 17  1  0  0  0  0
 11 12  1  0  0  0  0
 11 13  1  0  0  0  0
 11 14  1  0  0  0  0
  9 10  1  0  0  0  0
  9 11  1  0  0  0  0
  9 29  1  0  0  0  0
  7  8  1  0  0  0  0
  7  9  1  0  0  0  0
 33 34  1  0  0  0  0
 33 35  1  0  0  0  0
 33 36  1  0  0  0  0
 31 32  1  0  0  0  0
 31 33  1  0  0  0  0
M  CHG  1  20   1
M  END
$$$$
default_name
  -OEChem-01062215323D

 36 35  0     1  0  0  0  0  0999 V2000
   -4.2256   -3.6731    1.8584 H   0  0  0  0  0  0  0  0  0  0  0  0
   -4.2396   -2.6781    1.4144 C   0  0  0  0  0  0  0  0  0  0  0  0
   -4.9506   -2.0521    1.9514 H   0  0  0  0  0  0  0  0  0  0  0  0
   -4.5266   -2.7521    0.3674 H   0  0  0  0  0  0  0  0  0  0  0  0
   -2.8576   -2.0761    1.5184 C   0  0  0  0  0  0  0  0  0  0  0  0
   -1.9456   -2.7051    2.0404 O   0  0  0  0  0  0  0  0  0  0  0  0
   -2.6926   -0.8481    1.0174 N   0  0  0  0  0  0  0  0  0  0  0  0
   -3.4926   -0.3971    0.5954 H   0  0  0  0  0  0  0  0  0  0  0  0
   -1.4216   -0.1071    1.0434 C   0  0  1  0  0  0  0  0  0  0  0  0
   -0.6026   -0.8281    1.0248 H   0  0  0  0  0  0  0  0  0  0  0  0
   -1.3410    0.7680   -0.2234 C   0  0  0  0  0  0  0  0  0  0  0  0
   -2.2442    1.3786   -0.2831 H   0  0  0  0  0  0  0  0  0  0  0  0
   -0.4831    1.4388   -0.1399 H   0  0  0  0  0  0  0  0  0  0  0  0
   -1.2214   -0.0445   -1.5211 C   0  0  0  0  0  0  0  0  0  0  0  0
   -0.3185   -0.6560   -1.4915 H   0  0  0  0  0  0  0  0  0  0  0  0
   -2.0924   -0.6926   -1.6225 H   0  0  0  0  0  0  0  0  0  0  0  0
   -1.1473    0.9033   -2.7259 C   0  0  0  0  0  0  0  0  0  0  0  0
   -2.0422    1.5298   -2.7323 H   0  0  0  0  0  0  0  0  0  0  0  0
   -0.2695    1.5436   -2.6111 H   0  0  0  0  0  0  0  0  0  0  0  0
   -1.0550    0.1629   -4.0011 N   0  3  0  0  0  0  0  0  0  0  0  0
   -1.0043   -0.8395   -3.9388 H   0  0  0  0  0  0  0  0  0  0  0  0
   -1.0330    0.6927   -5.2127 C   0  0  0  0  0  0  0  0  0  0  0  0
   -1.0931    1.9802   -5.4074 N   0  0  0  0  0  0  0  0  0  0  0  0
   -1.1597    2.5875   -4.6098 H   0  0  0  0  0  0  0  0  0  0  0  0
   -1.0750    2.3660   -6.3335 H   0  0  0  0  0  0  0  0  0  0  0  0
   -0.9481   -0.0705   -6.2651 N   0  0  0  0  0  0  0  0  0  0  0  0
   -0.8996   -1.0698   -6.1655 H   0  0  0  0  0  0  0  0  0  0  0  0
   -0.9318    0.3355   -7.1824 H   0  0  0  0  0  0  0  0  0  0  0  0
   -1.3143    0.7278    2.3211 C   0  0  0  0  0  0  0  0  0  0  0  0
   -0.8956    1.8776    2.2592 O   0  0  0  0  0  0  0  0  0  0  0  0
   -1.6562    0.1333    3.4685 N   0  0  0  0  0  0  0  0  0  0  0  0
   -2.0255   -0.8024    3.4225 H   0  0  0  0  0  0  0  0  0  0  0  0
   -1.6130    0.7904    4.7758 C   0  0  0  0  0  0  0  0  0  0  0  0
   -2.3236    1.6194    4.7961 H   0  0  0  0  0  0  0  0  0  0  0  0
   -1.8694    0.0829    5.5654 H   0  0  0  0  0  0  0  0  0  0  0  0
   -0.6131    1.1889    4.9607 H   0  0  0  0  0  0  0  0  0  0  0  0
  5  6  2  0  0  0  0
  5  7  1  0  0  0  0
  2  3  1  0  0  0  0
  2  4  1  0  0  0  0
  2  5  1  0  0  0  0
  1  2  1  0  0  0  0
 29 30  2  0  0  0  0
 29 31  1  0  0  0  0
 26 27  1  0  0  0  0
 26 28  1  0  0  0  0
 23 24  1  0  0  0  0
 23 25  1  0  0  0  0
 22 23  1  0  0  0  0
 22 26  1  0  0  0  0
 20 21  1  0  0  0  0
 20 22  2  0  0  0  0
 17 18  1  0  0  0  0
 17 19  1  0  0  0  0
 17 20  1  0  0  0  0
 14 15  1  0  0  0  0
 14 16  1  0  0  0  0
 14 17  1  0  0  0  0
 11 12  1  0  0  0  0
 11 13  1  0  0  0  0
 11 14  1  0  0  0  0
  9 10  1  0  0  0  0
  9 11  1  0  0  0  0
  9 29  1  0  0  0  0
  7  8  1  0  0  0  0
  7  9  1  0  0  0  0
 33 34  1  0  0  0  0
 33 35  1  0  0  0  0
 33 36  1  0  0  0  0
 31 32  1  0  0  0  0
 31 33  1  0  0  0  0
M  CHG  1  20   1
M  END
$$$$
default_name
  -OEChem-01062215323D

 36 35  0     1  0  0  0  0  0999 V2000
   -4.2256   -3.6731    1.8584 H   0  0  0  0  0  0  0  0  0  0  0  0
   -4.2396   -2.6781    1.4144 C   0  0  0  0  0  0  0  0  0  0  0  0
   -4.9506   -2.0521    1.9514 H   0  0  0  0  0  0  0  0  0  0  0  0
   -4.5266   -2.7521    0.3674 H   0  0  0  0  0  0  0  0  0  0  0  0
   -2.8576   -2.0761    1.5184 C   0  0  0  0  0  0  0  0  0  0  0  0
   -1.9456   -2.7051    2.0404 O   0  0  0  0  0  0  0  0  0  0  0  0
   -2.6926   -0.8481    1.0174 N   0  0  0  0  0  0  0  0  0  0  0  0
   -3.4926   -0.3971    0.5954 H   0  0  0  0  0  0  0  0  0  0  0  0
   -1.4216   -0.1071    1.0434 C   0  0  1  0  0  0  0  0  0  0  0  0
   -0.6026   -0.8281    1.0248 H   0  0  0  0  0  0  0  0  0  0  0  0
   -1.3410    0.7680   -0.2234 C   0  0  0  0  0  0  0  0  0  0  0  0
   -2.2442    1.3786   -0.2831 H   0  0  0  0  0  0  0  0  0  0  0  0
   -0.4831    1.4388   -0.1399 H   0  0  0  0  0  0  0  0  0  0  0  0
   -1.2214   -0.0445   -1.5211 C   0  0  0  0  0  0  0  0  0  0  0  0
   -0.3185   -0.6560   -1.4915 H   0  0  0  0  0  0  0  0  0  0  0  0
   -2.0924   -0.6926   -1.6225 H   0  0  0  0  0  0  0  0  0  0  0  0
   -1.1473    0.9033   -2.7259 C   0  0  0  0  0  0  0  0  0  0  0  0
   -2.0422    1.5298   -2.7323 H   0  0  0  0  0  0  0  0  0  0  0  0
   -0.2695    1.5436   -2.6111 H   0  0  0  0  0  0  0  0  0  0  0  0
   -1.0550    0.1629   -4.0011 N   0  3  0  0  0  0  0  0  0  0  0  0
   -1.0043   -0.8395   -3.9388 H   0  0  0  0  0  0  0  0  0  0  0  0
   -1.0330    0.6927   -5.2127 C   0  0  0  0  0  0  0  0  0  0  0  0
   -1.0931    1.9802   -5.4074 N   0  0  0  0  0  0  0  0  0  0  0  0
   -1.1597    2.5875   -4.6098 H   0  0  0  0  0  0  0  0  0  0  0  0
   -1.0750    2.3660   -6.3335 H   0  0  0  0  0  0  0  0  0  0  0  0
   -0.9481   -0.0705   -6.2651 N   0  0  0  0  0  0  0  0  0  0  0  0
   -0.8996   -1.0698   -6.1655 H   0  0  0  0  0  0  0  0  0  0  0  0
   -0.9318    0.3355   -7.1824 H   0  0  0  0  0  0  0  0  0  0  0  0
   -1.3143    0.7278    2.3211 C   0  0  0  0  0  0  0  0  0  0  0  0
   -1.1657    1.9412    2.2403 O   0  0  0  0  0  0  0  0  0  0  0  0
   -1.3525    0.0702    3.4842 N   0  0  0  0  0  0  0  0  0  0  0  0
   -1.5149   -0.9233    3.4586 H   0  0  0  0  0  0  0  0  0  0  0  0
   -1.2647    0.7175    4.7942 C   0  0  0  0  0  0  0  0  0  0  0  0
   -2.1264    1.3721    4.9412 H   0  0  0  0  0  0  0  0  0  0  0  0
   -1.2473   -0.0309    5.5875 H   0  0  0  0  0  0  0  0  0  0  0  0
   -0.3578    1.3234    4.8514 H   0  0  0  0  0  0  0  0  0  0  0  0
  5  6  2  0  0  0  0
  5  7  1  0  0  0  0
  2  3  1  0  0  0  0
  2  4  1  0  0  0  0
  2  5  1  0  0  0  0
  1  2  1  0  0  0  0
 29 30  2  0  0  0  0
 29 31  1  0  0  0  0
 26 27  1  0  0  0  0
 26 28  1  0  0  0  0
 23 24  1  0  0  0  0
 23 25  1  0  0  0  0
 22 23  1  0  0  0  0
 22 26  1  0  0  0  0
 20 21  1  0  0  0  0
 20 22  2  0  0  0  0
 17 18  1  0  0  0  0
 17 19  1  0  0  0  0
 17 20  1  0  0  0  0
 14 15  1  0  0  0  0
 14 16  1  0  0  0  0
 14 17  1  0  0  0  0
 11 12  1  0  0  0  0
 11 13  1  0  0  0  0
 11 14  1  0  0  0  0
  9 10  1  0  0  0  0
  9 11  1  0  0  0  0
  9 29  1  0  0  0  0
  7  8  1  0  0  0  0
  7  9  1  0  0  0  0
 33 34  1  0  0  0  0
 33 35  1  0  0  0  0
 33 36  1  0  0  0  0
 31 32  1  0  0  0  0
 31 33  1  0  0  0  0
M  CHG  1  20   1
M  END
$$$$
default_name
  -OEChem-01062215323D

 36 35  0     1  0  0  0  0  0999 V2000
   -4.2256   -3.6731    1.8584 H   0  0  0  0  0  0  0  0  0  0  0  0
   -4.2396   -2.6781    1.4144 C   0  0  0  0  0  0  0  0  0  0  0  0
   -4.9506   -2.0521    1.9514 H   0  0  0  0  0  0  0  0  0  0  0  0
   -4.5266   -2.7521    0.3674 H   0  0  0  0  0  0  0  0  0  0  0  0
   -2.8576   -2.0761    1.5184 C   0  0  0  0  0  0  0  0  0  0  0  0
   -1.9456   -2.7051    2.0404 O   0  0  0  0  0  0  0  0  0  0  0  0
   -2.6926   -0.8481    1.0174 N   0  0  0  0  0  0  0  0  0  0  0  0
   -3.4926   -0.3971    0.5954 H   0  0  0  0  0  0  0  0  0  0  0  0
   -1.4216   -0.1071    1.0434 C   0  0  1  0  0  0  0  0  0  0  0  0
   -0.6026   -0.8281    1.0248 H   0  0  0  0  0  0  0  0  0  0  0  0
   -1.3410    0.7680   -0.2234 C   0  0  0  0  0  0  0  0  0  0  0  0
   -2.2442    1.3786   -0.2831 H   0  0  0  0  0  0  0  0  0  0  0  0
   -0.4831    1.4388   -0.1399 H   0  0  0  0  0  0  0  0  0  0  0  0
   -1.2214   -0.0445   -1.5211 C   0  0  0  0  0  0  0  0  0  0  0  0
   -0.3185   -0.6560   -1.4915 H   0  0  0  0  0  0  0  0  0  0  0  0
   -2.0924   -0.6926   -1.6225 H   0  0  0  0  0  0  0  0  0  0  0  0
   -1.1473    0.9033   -2.7259 C   0  0  0  0  0  0  0  0  0  0  0  0
   -2.0422    1.5298   -2.7323 H   0  0  0  0  0  0  0  0  0  0  0  0
   -0.2695    1.5436   -2.6111 H   0  0  0  0  0  0  0  0  0  0  0  0
   -1.0550    0.1629   -4.0011 N   0  3  0  0  0  0  0  0  0  0  0  0
   -1.0043   -0.8395   -3.9388 H   0  0  0  0  0  0  0  0  0  0  0  0
   -1.0330    0.6927   -5.2127 C   0  0  0  0  0  0  0  0  0  0  0  0
   -1.0931    1.9802   -5.4074 N   0  0  0  0  0  0  0  0  0  0  0  0
   -1.1597    2.5875   -4.6098 H   0  0  0  0  0  0  0  0  0  0  0  0
   -1.0750    2.3660   -6.3335 H   0  0  0  0  0  0  0  0  0  0  0  0
   -0.9481   -0.0705   -6.2651 N   0  0  0  0  0  0  0  0  0  0  0  0
   -0.8996   -1.0698   -6.1655 H   0  0  0  0  0  0  0  0  0  0  0  0
   -0.9318    0.3355   -7.1824 H   0  0  0  0  0  0  0  0  0  0  0  0
   -1.3143    0.7278    2.3211 C   0  0  0  0  0  0  0  0  0  0  0  0
   -1.4430    1.9447    2.2613 O   0  0  0  0  0  0  0  0  0  0  0  0
   -1.0434    0.0745    3.4554 N   0  0  0  0  0  0  0  0  0  0  0  0
   -0.9905   -0.9303    3.4192 H   0  0  0  0  0  0  0  0  0  0  0  0
   -0.9100    0.7221    4.7615 C   0  0  0  0  0  0  0  0  0  0  0  0
   -1.8621    1.1733    5.0489 H   0  0  0  0  0  0  0  0  0  0  0  0
   -0.6188   -0.0067    5.5190 H   0  0  0  0  0  0  0  0  0  0  0  0
   -0.1558    1.5105    4.7122 H   0  0  0  0  0  0  0  0  0  0  0  0
  5  6  2  0  0  0  0
  5  7  1  0  0  0  0
  2  3  1  0  0  0  0
  2  4  1  0  0  0  0
  2  5  1  0  0  0  0
  1  2  1  0  0  0  0
 29 30  2  0  0  0  0
 29 31  1  0  0  0  0
 26 27  1  0  0  0  0
 26 28  1  0  0  0  0
 23 24  1  0  0  0  0
 23 25  1  0  0  0  0
 22 23  1  0  0  0  0
 22 26  1  0  0  0  0
 20 21  1  0  0  0  0
 20 22  2  0  0  0  0
 17 18  1  0  0  0  0
 17 19  1  0  0  0  0
 17 20  1  0  0  0  0
 14 15  1  0  0  0  0
 14 16  1  0  0  0  0
 14 17  1  0  0  0  0
 11 12  1  0  0  0  0
 11 13  1  0  0  0  0
 11 14  1  0  0  0  0
  9 10  1  0  0  0  0
  9 11  1  0  0  0  0
  9 29  1  0  0  0  0
  7  8  1  0  0  0  0
  7  9  1  0  0  0  0
 33 34  1  0  0  0  0
 33 35  1  0  0  0  0
 33 36  1  0  0  0  0
 31 32  1  0  0  0  0
 31 33  1  0  0  0  0
M  CHG  1  20   1
M  END
$$$$
default_name
  -OEChem-01062215323D

 36 35  0     1  0  0  0  0  0999 V2000
   -4.2256   -3.6731    1.8584 H   0  0  0  0  0  0  0  0  0  0  0  0
   -4.2396   -2.6781    1.4144 C   0  0  0  0  0  0  0  0  0  0  0  0
   -4.9506   -2.0521    1.9514 H   0  0  0  0  0  0  0  0  0  0  0  0
   -4.5266   -2.7521    0.3674 H   0  0  0  0  0  0  0  0  0  0  0  0
   -2.8576   -2.0761    1.5184 C   0  0  0  0  0  0  0  0  0  0  0  0
   -1.9456   -2.7051    2.0404 O   0  0  0  0  0  0  0  0  0  0  0  0
   -2.6926   -0.8481    1.0174 N   0  0  0  0  0  0  0  0  0  0  0  0
   -3.4926   -0.3971    0.5954 H   0  0  0  0  0  0  0  0  0  0  0  0
   -1.4216   -0.1071    1.0434 C   0  0  1  0  0  0  0  0  0  0  0  0
   -0.6026   -0.8281    1.0248 H   0  0  0  0  0  0  0  0  0  0  0  0
   -1.3410    0.7680   -0.2234 C   0  0  0  0  0  0  0  0  0  0  0  0
   -2.2442    1.3786   -0.2831 H   0  0  0  0  0  0  0  0  0  0  0  0
   -0.4831    1.4388   -0.1399 H   0  0  0  0  0  0  0  0  0  0  0  0
   -1.2214   -0.0445   -1.5211 C   0  0  0  0  0  0  0  0  0  0  0  0
   -0.3185   -0.6560   -1.4915 H   0  0  0  0  0  0  0  0  0  0  0  0
   -2.0924   -0.6926   -1.6225 H   0  0  0  0  0  0  0  0  0  0  0  0
   -1.1473    0.9033   -2.7259 C   0  0  0  0  0  0  0  0  0  0  0  0
   -2.0422    1.5298   -2.7323 H   0  0  0  0  0  0  0  0  0  0  0  0
   -0.2695    1.5436   -2.6111 H   0  0  0  0  0  0  0  0  0  0  0  0
   -1.0550    0.1629   -4.0011 N   0  3  0  0  0  0  0  0  0  0  0  0
   -1.0043   -0.8395   -3.9388 H   0  0  0  0  0  0  0  0  0  0  0  0
   -1.0330    0.6927   -5.2127 C   0  0  0  0  0  0  0  0  0  0  0  0
   -1.0931    1.9802   -5.4074 N   0  0  0  0  0  0  0  0  0  0  0  0
   -1.1597    2.5875   -4.6098 H   0  0  0  0  0  0  0  0  0  0  0  0
   -1.0750    2.3660   -6.3335 H   0  0  0  0  0  0  0  0  0  0  0  0
   -0.9481   -0.0705   -6.2651 N   0  0  0  0  0  0  0  0  0  0  0  0
   -0.8996   -1.0698   -6.1655 H   0  0  0  0  0  0  0  0  0  0  0  0
   -0.9318    0.3355   -7.1824 H   0  0  0  0  0  0  0  0  0  0  0  0
   -1.3143    0.7278    2.3211 C   0  0  0  0  0  0  0  0  0  0  0  0
   -1.7086    1.8878    2.3208 O   0  0  0  0  0  0  0  0  0  0  0  0
   -0.7498    0.1461    3.3840 N   0  0  0  0  0  0  0  0  0  0  0  0
   -0.4880   -0.8231    3.3070 H   0  0  0  0  0  0  0  0  0  0  0  0
   -0.5729    0.8037    4.6798 C   0  0  0  0  0  0  0  0  0  0  0  0
   -1.5485    1.0364    5.1120 H   0  0  0  0  0  0  0  0  0  0  0  0
   -0.0266    0.1537    5.3644 H   0  0  0  0  0  0  0  0  0  0  0  0
   -0.0208    1.7374    4.5526 H   0  0  0  0  0  0  0  0  0  0  0  0
  5  6  2  0  0  0  0
  5  7  1  0  0  0  0
  2  3  1  0  0  0  0
  2  4  1  0  0  0  0
  2  5  1  0  0  0  0
  1  2  1  0  0  0  0
 29 30  2  0  0  0  0
 29 31  1  0  0  0  0
 26 27  1  0  0  0  0
 26 28  1  0  0  0  0
 23 24  1  0  0  0  0
 23 25  1  0  0  0  0
 22 23  1  0  0  0  0
 22 26  1  0  0  0  0
 20 21  1  0  0  0  0
 20 22  2  0  0  0  0
 17 18  1  0  0  0  0
 17 19  1  0  0  0  0
 17 20  1  0  0  0  0
 14 15  1  0  0  0  0
 14 16  1  0  0  0  0
 14 17  1  0  0  0  0
 11 12  1  0  0  0  0
 11 13  1  0  0  0  0
 11 14  1  0  0  0  0
  9 10  1  0  0  0  0
  9 11  1  0  0  0  0
  9 29  1  0  0  0  0
  7  8  1  0  0  0  0
  7  9  1  0  0  0  0
 33 34  1  0  0  0  0
 33 35  1  0  0  0  0
 33 36  1  0  0  0  0
 31 32  1  0  0  0  0
 31 33  1  0  0  0  0
M  CHG  1  20   1
M  END
$$$$
default_name
  -OEChem-01062215323D

 36 35  0     1  0  0  0  0  0999 V2000
   -4.2256   -3.6731    1.8584 H   0  0  0  0  0  0  0  0  0  0  0  0
   -4.2396   -2.6781    1.4144 C   0  0  0  0  0  0  0  0  0  0  0  0
   -4.9506   -2.0521    1.9514 H   0  0  0  0  0  0  0  0  0  0  0  0
   -4.5266   -2.7521    0.3674 H   0  0  0  0  0  0  0  0  0  0  0  0
   -2.8576   -2.0761    1.5184 C   0  0  0  0  0  0  0  0  0  0  0  0
   -1.9456   -2.7051    2.0404 O   0  0  0  0  0  0  0  0  0  0  0  0
   -2.6926   -0.8481    1.0174 N   0  0  0  0  0  0  0  0  0  0  0  0
   -3.4926   -0.3971    0.5954 H   0  0  0  0  0  0  0  0  0  0  0  0
   -1.4216   -0.1071    1.0434 C   0  0  1  0  0  0  0  0  0  0  0  0
   -0.6026   -0.8281    1.0248 H   0  0  0  0  0  0  0  0  0  0  0  0
   -1.3410    0.7680   -0.2234 C   0  0  0  0  0  0  0  0  0  0  0  0
   -2.2442    1.3786   -0.2831 H   0  0  0  0  0  0  0  0  0  0  0  0
   -0.4831    1.4388   -0.1399 H   0  0  0  0  0  0  0  0  0  0  0  0
   -1.2214   -0.0445   -1.5211 C   0  0  0  0  0  0  0  0  0  0  0  0
   -0.3185   -0.6560   -1.4915 H   0  0  0  0  0  0  0  0  0  0  0  0
   -2.0924   -0.6926   -1.6225 H   0  0  0  0  0  0  0  0  0  0  0  0
   -1.1473    0.9033   -2.7259 C   0  0  0  0  0  0  0  0  0  0  0  0
   -2.0422    1.5298   -2.7323 H   0  0  0  0  0  0  0  0  0  0  0  0
   -0.2695    1.5436   -2.6111 H   0  0  0  0  0  0  0  0  0  0  0  0
   -1.0550    0.1629   -4.0011 N   0  3  0  0  0  0  0  0  0  0  0  0
   -1.0043   -0.8395   -3.9388 H   0  0  0  0  0  0  0  0  0  0  0  0
   -1.0330    0.6927   -5.2127 C   0  0  0  0  0  0  0  0  0  0  0  0
   -1.0931    1.9802   -5.4074 N   0  0  0  0  0  0  0  0  0  0  0  0
   -1.1597    2.5875   -4.6098 H   0  0  0  0  0  0  0  0  0  0  0  0
   -1.0750    2.3660   -6.3335 H   0  0  0  0  0  0  0  0  0  0  0  0
   -0.9481   -0.0705   -6.2651 N   0  0  0  0  0  0  0  0  0  0  0  0
   -0.8996   -1.0698   -6.1655 H   0  0  0  0  0  0  0  0  0  0  0  0
   -0.9318    0.3355   -7.1824 H   0  0  0  0  0  0  0  0  0  0  0  0
   -1.3143    0.7278    2.3211 C   0  0  0  0  0  0  0  0  0  0  0  0
   -1.9445    1.7743    2.4148 O   0  0  0  0  0  0  0  0  0  0  0  0
   -0.4917    0.2800    3.2748 N   0  0  0  0  0  0  0  0  0  0  0  0
   -0.0416   -0.6089    3.1296 H   0  0  0  0  0  0  0  0  0  0  0  0
   -0.2766    0.9569    4.5548 C   0  0  0  0  0  0  0  0  0  0  0  0
   -1.2071    0.9707    5.1263 H   0  0  0  0  0  0  0  0  0  0  0  0
    0.4890    0.4395    5.1344 H   0  0  0  0  0  0  0  0  0  0  0  0
    0.0381    1.9887    4.3834 H   0  0  0  0  0  0  0  0  0  0  0  0
  5  6  2  0  0  0  0
  5  7  1  0  0  0  0
  2  3  1  0  0  0  0
  2  4  1  0  0  0  0
  2  5  1  0  0  0  0
  1  2  1  0  0  0  0
 29 30  2  0  0  0  0
 29 31  1  0  0  0  0
 26 27  1  0  0  0  0
 26 28  1  0  0  0  0
 23 24  1  0  0  0  0
 23 25  1  0  0  0  0
 22 23  1  0  0  0  0
 22 26  1  0  0  0  0
 20 21  1  0  0  0  0
 20 22  2  0  0  0  0
 17 18  1  0  0  0  0
 17 19  1  0  0  0  0
 17 20  1  0  0  0  0
 14 15  1  0  0  0  0
 14 16  1  0  0  0  0
 14 17  1  0  0  0  0
 11 12  1  0  0  0  0
 11 13  1  0  0  0  0
 11 14  1  0  0  0  0
  9 10  1  0  0  0  0
  9 11  1  0  0  0  0
  9 29  1  0  0  0  0
  7  8  1  0  0  0  0
  7  9  1  0  0  0  0
 33 34  1  0  0  0  0
 33 35  1  0  0  0  0
 33 36  1  0  0  0  0
 31 32  1  0  0  0  0
 31 33  1  0  0  0  0
M  CHG  1  20   1
M  END
$$$$
default_name
  -OEChem-01062215323D

 36 35  0     1  0  0  0  0  0999 V2000
   -4.2256   -3.6731    1.8584 H   0  0  0  0  0  0  0  0  0  0  0  0
   -4.2396   -2.6781    1.4144 C   0  0  0  0  0  0  0  0  0  0  0  0
   -4.9506   -2.0521    1.9514 H   0  0  0  0  0  0  0  0  0  0  0  0
   -4.5266   -2.7521    0.3674 H   0  0  0  0  0  0  0  0  0  0  0  0
   -2.8576   -2.0761    1.5184 C   0  0  0  0  0  0  0  0  0  0  0  0
   -1.9456   -2.7051    2.0404 O   0  0  0  0  0  0  0  0  0  0  0  0
   -2.6926   -0.8481    1.0174 N   0  0  0  0  0  0  0  0  0  0  0  0
   -3.4926   -0.3971    0.5954 H   0  0  0  0  0  0  0  0  0  0  0  0
   -1.4216   -0.1071    1.0434 C   0  0  1  0  0  0  0  0  0  0  0  0
   -0.6026   -0.8281    1.0248 H   0  0  0  0  0  0  0  0  0  0  0  0
   -1.3410    0.7680   -0.2234 C   0  0  0  0  0  0  0  0  0  0  0  0
   -2.2442    1.3786   -0.2831 H   0  0  0  0  0  0  0  0  0  0  0  0
   -0.4831    1.4388   -0.1399 H   0  0  0  0  0  0  0  0  0  0  0  0
   -1.2214   -0.0445   -1.5211 C   0  0  0  0  0  0  0  0  0  0  0  0
   -0.3185   -0.6560   -1.4915 H   0  0  0  0  0  0  0  0  0  0  0  0
   -2.0924   -0.6926   -1.6225 H   0  0  0  0  0  0  0  0  0  0  0  0
   -1.1473    0.9033   -2.7259 C   0  0  0  0  0  0  0  0  0  0  0  0
   -2.0422    1.5298   -2.7323 H   0  0  0  0  0  0  0  0  0  0  0  0
   -0.2695    1.5436   -2.6111 H   0  0  0  0  0  0  0  0  0  0  0  0
   -1.0550    0.1629   -4.0011 N   0  3  0  0  0  0  0  0  0  0  0  0
   -1.0043   -0.8395   -3.9388 H   0  0  0  0  0  0  0  0  0  0  0  0
   -1.0330    0.6927   -5.2127 C   0  0  0  0  0  0  0  0  0  0  0  0
   -1.0931    1.9802   -5.4074 N   0  0  0  0  0  0  0  0  0  0  0  0
   -1.1597    2.5875   -4.6098 H   0  0  0  0  0  0  0  0  0  0  0  0
   -1.0750    2.3660   -6.3335 H   0  0  0  0  0  0  0  0  0  0  0  0
   -0.9481   -0.0705   -6.2651 N   0  0  0  0  0  0  0  0  0  0  0  0
   -0.8996   -1.0698   -6.1655 H   0  0  0  0  0  0  0  0  0  0  0  0
   -0.9318    0.3355   -7.1824 H   0  0  0  0  0  0  0  0  0  0  0  0
   -1.3143    0.7278    2.3211 C   0  0  0  0  0  0  0  0  0  0  0  0
   -2.1345    1.6120    2.5368 O   0  0  0  0  0  0  0  0  0  0  0  0
   -0.2868    0.4670    3.1354 N   0  0  0  0  0  0  0  0  0  0  0  0
    0.3182   -0.3024    2.8990 H   0  0  0  0  0  0  0  0  0  0  0  0
   -0.0410    1.1712    4.3950 C   0  0  0  0  0  0  0  0  0  0  0  0
   -0.8612    0.9809    5.0906 H   0  0  0  0  0  0  0  0  0  0  0  0
    0.8927    0.8311    4.8446 H   0  0  0  0  0  0  0  0  0  0  0  0
    0.0167    2.2472    4.2163 H   0  0  0  0  0  0  0  0  0  0  0  0
  5  6  2  0  0  0  0
  5  7  1  0  0  0  0
  2  3  1  0  0  0  0
  2  4  1  0  0  0  0
  2  5  1  0  0  0  0
  1  2  1  0  0  0  0
 29 30  2  0  0  0  0
 29 31  1  0  0  0  0
 26 27  1  0  0  0  0
 26 28  1  0  0  0  0
 23 24  1  0  0  0  0
 23 25  1  0  0  0  0
 22 23  1  0  0  0  0
 22 26  1  0  0  0  0
 20 21  1  0  0  0  0
 20 22  2  0  0  0  0
 17 18  1  0  0  0  0
 17 19  1  0  0  0  0
 17 20  1  0  0  0  0
 14 15  1  0  0  0  0
 14 16  1  0  0  0  0
 14 17  1  0  0  0  0
 11 12  1  0  0  0  0
 11 13  1  0  0  0  0
 11 14  1  0  0  0  0
  9 10  1  0  0  0  0
  9 11  1  0  0  0  0
  9 29  1  0  0  0  0
  7  8  1  0  0  0  0
  7  9  1  0  0  0  0
 33 34  1  0  0  0  0
 33 35  1  0  0  0  0
 33 36  1  0  0  0  0
 31 32  1  0  0  0  0
 31 33  1  0  0  0  0
M  CHG  1  20   1
M  END
$$$$
default_name
  -OEChem-01062215323D

 36 35  0     1  0  0  0  0  0999 V2000
   -4.2256   -3.6731    1.8584 H   0  0  0  0  0  0  0  0  0  0  0  0
   -4.2396   -2.6781    1.4144 C   0  0  0  0  0  0  0  0  0  0  0  0
   -4.9506   -2.0521    1.9514 H   0  0  0  0  0  0  0  0  0  0  0  0
   -4.5266   -2.7521    0.3674 H   0  0  0  0  0  0  0  0  0  0  0  0
   -2.8576   -2.0761    1.5184 C   0  0  0  0  0  0  0  0  0  0  0  0
   -1.9456   -2.7051    2.0404 O   0  0  0  0  0  0  0  0  0  0  0  0
   -2.6926   -0.8481    1.0174 N   0  0  0  0  0  0  0  0  0  0  0  0
   -3.4926   -0.3971    0.5954 H   0  0  0  0  0  0  0  0  0  0  0  0
   -1.4216   -0.1071    1.0434 C   0  0  1  0  0  0  0  0  0  0  0  0
   -0.6026   -0.8281    1.0248 H   0  0  0  0  0  0  0  0  0  0  0  0
   -1.3410    0.7680   -0.2234 C   0  0  0  0  0  0  0  0  0  0  0  0
   -2.2442    1.3786   -0.2831 H   0  0  0  0  0  0  0  0  0  0  0  0
   -0.4831    1.4388   -0.1399 H   0  0  0  0  0  0  0  0  0  0  0  0
   -1.2214   -0.0445   -1.5211 C   0  0  0  0  0  0  0  0  0  0  0  0
   -0.3185   -0.6560   -1.4915 H   0  0  0  0  0  0  0  0  0  0  0  0
   -2.0924   -0.6926   -1.6225 H   0  0  0  0  0  0  0  0  0  0  0  0
   -1.1473    0.9033   -2.7259 C   0  0  0  0  0  0  0  0  0  0  0  0
   -2.0422    1.5298   -2.7323 H   0  0  0  0  0  0  0  0  0  0  0  0
   -0.2695    1.5436   -2.6111 H   0  0  0  0  0  0  0  0  0  0  0  0
   -1.0550    0.1629   -4.0011 N   0  3  0  0  0  0  0  0  0  0  0  0
   -1.0043   -0.8395   -3.9388 H   0  0  0  0  0  0  0  0  0  0  0  0
   -1.0330    0.6927   -5.2127 C   0  0  0  0  0  0  0  0  0  0  0  0
   -1.0931    1.9802   -5.4074 N   0  0  0  0  0  0  0  0  0  0  0  0
   -1.1597    2.5875   -4.6098 H   0  0  0  0  0  0  0  0  0  0  0  0
   -1.0750    2.3660   -6.3335 H   0  0  0  0  0  0  0  0  0  0  0  0
   -0.9481   -0.0705   -6.2651 N   0  0  0  0  0  0  0  0  0  0  0  0
   -0.8996   -1.0698   -6.1655 H   0  0  0  0  0  0  0  0  0  0  0  0
   -0.9318    0.3355   -7.1824 H   0  0  0  0  0  0  0  0  0  0  0  0
   -1.3143    0.7278    2.3211 C   0  0  0  0  0  0  0  0  0  0  0  0
   -2.2658    1.4119    2.6786 O   0  0  0  0  0  0  0  0  0  0  0  0
   -0.1490    0.6946    2.9752 N   0  0  0  0  0  0  0  0  0  0  0  0
    0.5669    0.0757    2.6311 H   0  0  0  0  0  0  0  0  0  0  0  0
    0.1176    1.4320    4.2112 C   0  0  0  0  0  0  0  0  0  0  0  0
   -0.5342    1.0661    5.0074 H   0  0  0  0  0  0  0  0  0  0  0  0
    1.1571    1.3019    4.5148 H   0  0  0  0  0  0  0  0  0  0  0  0
   -0.0834    2.4952    4.0626 H   0  0  0  0  0  0  0  0  0  0  0  0
  5  6  2  0  0  0  0
  5  7  1  0  0  0  0
  2  3  1  0  0  0  0
  2  4  1  0  0  0  0
  2  5  1  0  0  0  0
  1  2  1  0  0  0  0
 29 30  2  0  0  0  0
 29 31  1  0  0  0  0
 26 27  1  0  0  0  0
 26 28  1  0  0  0  0
 23 24  1  0  0  0  0
 23 25  1  0  0  0  0
 22 23  1  0  0  0  0
 22 26  1  0  0  0  0
 20 21  1  0  0  0  0
 20 22  2  0  0  0  0
 17 18  1  0  0  0  0
 17 19  1  0  0  0  0
 17 20  1  0  0  0  0
 14 15  1  0  0  0  0
 14 16  1  0  0  0  0
 14 17  1  0  0  0  0
 11 12  1  0  0  0  0
 11 13  1  0  0  0  0
 11 14  1  0  0  0  0
  9 10  1  0  0  0  0
  9 11  1  0  0  0  0
  9 29  1  0  0  0  0
  7  8  1  0  0  0  0
  7  9  1  0  0  0  0
 33 34  1  0  0  0  0
 33 35  1  0  0  0  0
 33 36  1  0  0  0  0
 31 32  1  0  0  0  0
 31 33  1  0  0  0  0
M  CHG  1  20   1
M  END
$$$$
default_name
  -OEChem-01062215323D

 36 35  0     1  0  0  0  0  0999 V2000
   -4.2256   -3.6731    1.8584 H   0  0  0  0  0  0  0  0  0  0  0  0
   -4.2396   -2.6781    1.4144 C   0  0  0  0  0  0  0  0  0  0  0  0
   -4.9506   -2.0521    1.9514 H   0  0  0  0  0  0  0  0  0  0  0  0
   -4.5266   -2.7521    0.3674 H   0  0  0  0  0  0  0  0  0  0  0  0
   -2.8576   -2.0761    1.5184 C   0  0  0  0  0  0  0  0  0  0  0  0
   -1.9456   -2.7051    2.0404 O   0  0  0  0  0  0  0  0  0  0  0  0
   -2.6926   -0.8481    1.0174 N   0  0  0  0  0  0  0  0  0  0  0  0
   -3.4926   -0.3971    0.5954 H   0  0  0  0  0  0  0  0  0  0  0  0
   -1.4216   -0.1071    1.0434 C   0  0  1  0  0  0  0  0  0  0  0  0
   -0.6026   -0.8281    1.0248 H   0  0  0  0  0  0  0  0  0  0  0  0
   -1.3410    0.7680   -0.2234 C   0  0  0  0  0  0  0  0  0  0  0  0
   -2.2442    1.3786   -0.2831 H   0  0  0  0  0  0  0  0  0  0  0  0
   -0.4831    1.4388   -0.1399 H   0  0  0  0  0  0  0  0  0  0  0  0
   -1.2214   -0.0445   -1.5211 C   0  0  0  0  0  0  0  0  0  0  0  0
   -0.3185   -0.6560   -1.4915 H   0  0  0  0  0  0  0  0  0  0  0  0
   -2.0924   -0.6926   -1.6225 H   0  0  0  0  0  0  0  0  0  0  0  0
   -1.1473    0.9033   -2.7259 C   0  0  0  0  0  0  0  0  0  0  0  0
   -2.0422    1.5298   -2.7323 H   0  0  0  0  0  0  0  0  0  0  0  0
   -0.2695    1.5436   -2.6111 H   0  0  0  0  0  0  0  0  0  0  0  0
   -1.0550    0.1629   -4.0011 N   0  3  0  0  0  0  0  0  0  0  0  0
   -1.0043   -0.8395   -3.9388 H   0  0  0  0  0  0  0  0  0  0  0  0
   -1.0330    0.6927   -5.2127 C   0  0  0  0  0  0  0  0  0  0  0  0
   -1.0931    1.9802   -5.4074 N   0  0  0  0  0  0  0  0  0  0  0  0
   -1.1597    2.5875   -4.6098 H   0  0  0  0  0  0  0  0  0  0  0  0
   -1.0750    2.3660   -6.3335 H   0  0  0  0  0  0  0  0  0  0  0  0
   -0.9481   -0.0705   -6.2651 N   0  0  0  0  0  0  0  0  0  0  0  0
   -0.8996   -1.0698   -6.1655 H   0  0  0  0  0  0  0  0  0  0  0  0
   -0.9318    0.3355   -7.1824 H   0  0  0  0  0  0  0  0  0  0  0  0
   -1.3143    0.7278    2.3211 C   0  0  0  0  0  0  0  0  0  0  0  0
   -2.3293    1.1877    2.8304 O   0  0  0  0  0  0  0  0  0  0  0  0
   -0.0877    0.9470    2.8050 N   0  0  0  0  0  0  0  0  0  0  0  0
    0.6876    0.4996    2.3440 H   0  0  0  0  0  0  0  0  0  0  0  0
    0.1884    1.7216    4.0161 C   0  0  0  0  0  0  0  0  0  0  0  0
   -0.2486    1.2206    4.8825 H   0  0  0  0  0  0  0  0  0  0  0  0
    1.2642    1.8198    4.1674 H   0  0  0  0  0  0  0  0  0  0  0  0
   -0.2554    2.7160    3.9328 H   0  0  0  0  0  0  0  0  0  0  0  0
  5  6  2  0  0  0  0
  5  7  1  0  0  0  0
  2  3  1  0  0  0  0
  2  4  1  0  0  0  0
  2  5  1  0  0  0  0
  1  2  1  0  0  0  0
 29 30  2  0  0  0  0
 29 31  1  0  0  0  0
 26 27  1  0  0  0  0
 26 28  1  0  0  0  0
 23 24  1  0  0  0  0
 23 25  1  0  0  0  0
 22 23  1  0  0  0  0
 22 26  1  0  0  0  0
 20 21  1  0  0  0  0
 20 22  2  0  0  0  0
 17 18  1  0  0  0  0
 17 19  1  0  0  0  0
 17 20  1  0  0  0  0
 14 15  1  0  0  0  0
 14 16  1  0  0  0  0
 14 17  1  0  0  0  0
 11 12  1  0  0  0  0
 11 13  1  0  0  0  0
 11 14  1  0  0  0  0
  9 10  1  0  0  0  0
  9 11  1  0  0  0  0
  9 29  1  0  0  0  0
  7  8  1  0  0  0  0
  7  9  1  0  0  0  0
 33 34  1  0  0  0  0
 33 35  1  0  0  0  0
 33 36  1  0  0  0  0
 31 32  1  0  0  0  0
 31 33  1  0  0  0  0
M  CHG  1  20   1
M  END
$$$$
default_name
  -OEChem-01062215323D

 36 35  0     1  0  0  0  0  0999 V2000
   -4.2256   -3.6731    1.8584 H   0  0  0  0  0  0  0  0  0  0  0  0
   -4.2396   -2.6781    1.4144 C   0  0  0  0  0  0  0  0  0  0  0  0
   -4.9506   -2.0521    1.9514 H   0  0  0  0  0  0  0  0  0  0  0  0
   -4.5266   -2.7521    0.3674 H   0  0  0  0  0  0  0  0  0  0  0  0
   -2.8576   -2.0761    1.5184 C   0  0  0  0  0  0  0  0  0  0  0  0
   -1.9456   -2.7051    2.0404 O   0  0  0  0  0  0  0  0  0  0  0  0
   -2.6926   -0.8481    1.0174 N   0  0  0  0  0  0  0  0  0  0  0  0
   -3.4926   -0.3971    0.5954 H   0  0  0  0  0  0  0  0  0  0  0  0
   -1.4216   -0.1071    1.0434 C   0  0  1  0  0  0  0  0  0  0  0  0
   -0.6026   -0.8281    1.0248 H   0  0  0  0  0  0  0  0  0  0  0  0
   -1.3410    0.7680   -0.2234 C   0  0  0  0  0  0  0  0  0  0  0  0
   -2.2442    1.3786   -0.2831 H   0  0  0  0  0  0  0  0  0  0  0  0
   -0.4831    1.4388   -0.1399 H   0  0  0  0  0  0  0  0  0  0  0  0
   -1.2214   -0.0445   -1.5211 C   0  0  0  0  0  0  0  0  0  0  0  0
   -0.3185   -0.6560   -1.4915 H   0  0  0  0  0  0  0  0  0  0  0  0
   -2.0924   -0.6926   -1.6225 H   0  0  0  0  0  0  0  0  0  0  0  0
   -1.1473    0.9033   -2.7259 C   0  0  0  0  0  0  0  0  0  0  0  0
   -2.0422    1.5298   -2.7323 H   0  0  0  0  0  0  0  0  0  0  0  0
   -0.2695    1.5436   -2.6111 H   0  0  0  0  0  0  0  0  0  0  0  0
   -1.0550    0.1629   -4.0011 N   0  3  0  0  0  0  0  0  0  0  0  0
   -1.0043   -0.8395   -3.9388 H   0  0  0  0  0  0  0  0  0  0  0  0
   -1.0330    0.6927   -5.2127 C   0  0  0  0  0  0  0  0  0  0  0  0
   -1.0931    1.9802   -5.4074 N   0  0  0  0  0  0  0  0  0  0  0  0
   -1.1597    2.5875   -4.6098 H   0  0  0  0  0  0  0  0  0  0  0  0
   -1.0750    2.3660   -6.3335 H   0  0  0  0  0  0  0  0  0  0  0  0
   -0.9481   -0.0705   -6.2651 N   0  0  0  0  0  0  0  0  0  0  0  0
   -0.8996   -1.0698   -6.1655 H   0  0  0  0  0  0  0  0  0  0  0  0
   -0.9318    0.3355   -7.1824 H   0  0  0  0  0  0  0  0  0  0  0  0
   -1.3143    0.7278    2.3211 C   0  0  0  0  0  0  0  0  0  0  0  0
   -2.3207    0.9547    2.9820 O   0  0  0  0  0  0  0  0  0  0  0  0
   -0.1071    1.2072    2.6366 N   0  0  0  0  0  0  0  0  0  0  0  0
    0.6720    0.9402    2.0573 H   0  0  0  0  0  0  0  0  0  0  0  0
    0.1668    2.0201    3.8228 C   0  0  0  0  0  0  0  0  0  0  0  0
   -0.0238    1.4338    4.7243 H   0  0  0  0  0  0  0  0  0  0  0  0
    1.2066    2.3495    3.8261 H   0  0  0  0  0  0  0  0  0  0  0  0
   -0.4876    2.8945    3.8357 H   0  0  0  0  0  0  0  0  0  0  0  0
  5  6  2  0  0  0  0
  5  7  1  0  0  0  0
  2  3  1  0  0  0  0
  2  4  1  0  0  0  0
  2  5  1  0  0  0  0
  1  2  1  0  0  0  0
 29 30  2  0  0  0  0
 29 31  1  0  0  0  0
 26 27  1  0  0  0  0
 26 28  1  0  0  0  0
 23 24  1  0  0  0  0
 23 25  1  0  0  0  0
 22 23  1  0  0  0  0
 22 26  1  0  0  0  0
 20 21  1  0  0  0  0
 20 22  2  0  0  0  0
 17 18  1  0  0  0  0
 17 19  1  0  0  0  0
 17 20  1  0  0  0  0
 14 15  1  0  0  0  0
 14 16  1  0  0  0  0
 14 17  1  0  0  0  0
 11 12  1  0  0  0  0
 11 13  1  0  0  0  0
 11 14  1  0  0  0  0
  9 10  1  0  0  0  0
  9 11  1  0  0  0  0
  9 29  1  0  0  0  0
  7  8  1  0  0  0  0
  7  9  1  0  0  0  0
 33 34  1  0  0  0  0
 33 35  1  0  0  0  0
 33 36  1  0  0  0  0
 31 32  1  0  0  0  0
 31 33  1  0  0  0  0
M  CHG  1  20   1
M  END
$$$$
default_name
  -OEChem-01062215323D

 36 35  0     1  0  0  0  0  0999 V2000
   -4.2256   -3.6731    1.8584 H   0  0  0  0  0  0  0  0  0  0  0  0
   -4.2396   -2.6781    1.4144 C   0  0  0  0  0  0  0  0  0  0  0  0
   -4.9506   -2.0521    1.9514 H   0  0  0  0  0  0  0  0  0  0  0  0
   -4.5266   -2.7521    0.3674 H   0  0  0  0  0  0  0  0  0  0  0  0
   -2.8576   -2.0761    1.5184 C   0  0  0  0  0  0  0  0  0  0  0  0
   -1.9456   -2.7051    2.0404 O   0  0  0  0  0  0  0  0  0  0  0  0
   -2.6926   -0.8481    1.0174 N   0  0  0  0  0  0  0  0  0  0  0  0
   -3.4926   -0.3971    0.5954 H   0  0  0  0  0  0  0  0  0  0  0  0
   -1.4216   -0.1071    1.0434 C   0  0  1  0  0  0  0  0  0  0  0  0
   -0.6196   -0.7897    0.7577 H   0  0  0  0  0  0  0  0  0  0  0  0
   -1.4985    1.0301    0.0052 C   0  0  0  0  0  0  0  0  0  0  0  0
   -2.3954    1.6210    0.2015 H   0  0  0  0  0  0  0  0  0  0  0  0
   -0.6302    1.6818    0.1247 H   0  0  0  0  0  0  0  0  0  0  0  0
   -1.5580    0.5304   -1.4457 C   0  0  0  0  0  0  0  0  0  0  0  0
   -0.6654   -0.0547   -1.6712 H   0  0  0  0  0  0  0  0  0  0  0  0
   -2.4415   -0.0955   -1.5757 H   0  0  0  0  0  0  0  0  0  0  0  0
   -1.6325    1.7245   -2.4070 C   0  0  0  0  0  0  0  0  0  0  0  0
   -2.5141    2.3191   -2.1567 H   0  0  0  0  0  0  0  0  0  0  0  0
   -0.7407    2.3399   -2.2667 H   0  0  0  0  0  0  0  0  0  0  0  0
   -1.7155    1.2894   -3.8164 N   0  3  0  0  0  0  0  0  0  0  0  0
   -1.6674    0.2995   -3.9872 H   0  0  0  0  0  0  0  0  0  0  0  0
   -1.8469    2.0766   -4.8709 C   0  0  0  0  0  0  0  0  0  0  0  0
   -1.9187    3.3737   -4.7630 N   0  0  0  0  0  0  0  0  0  0  0  0
   -1.8741    3.7862   -3.8480 H   0  0  0  0  0  0  0  0  0  0  0  0
   -2.0179    3.9568   -5.5736 H   0  0  0  0  0  0  0  0  0  0  0  0
   -1.9082    1.5694   -6.0694 N   0  0  0  0  0  0  0  0  0  0  0  0
   -1.8573    0.5742   -6.2032 H   0  0  0  0  0  0  0  0  0  0  0  0
   -2.0080    2.1703   -6.8667 H   0  0  0  0  0  0  0  0  0  0  0  0
   -1.1395    0.4234    2.4506 C   0  0  0  0  0  0  0  0  0  0  0  0
   -1.9529    0.2273    3.3455 O   0  0  0  0  0  0  0  0  0  0  0  0
   -0.0121    1.1201    2.6249 N   0  0  0  0  0  0  0  0  0  0  0  0
    0.6173    1.2011    1.8431 H   0  0  0  0  0  0  0  0  0  0  0  0
    0.4064    1.6937    3.9050 C   0  0  0  0  0  0  0  0  0  0  0  0
    0.5881    0.8941    4.6262 H   0  0  0  0  0  0  0  0  0  0  0  0
    1.3211    2.2746    3.7802 H   0  0  0  0  0  0  0  0  0  0  0  0
   -0.3800    2.3412    4.2991 H   0  0  0  0  0  0  0  0  0  0  0  0
  5  6  2  0  0  0  0
  5  7  1  0  0  0  0
  2  3  1  0  0  0  0
  2  4  1  0  0  0  0
  2  5  1  0  0  0  0
  1  2  1  0  0  0  0
 29 30  2  0  0  0  0
 29 31  1  0  0  0  0
 26 27  1  0  0  0  0
 26 28  1  0  0  0  0
 23 24  1  0  0  0  0
 23 25  1  0  0  0  0
 22 23  1  0  0  0  0
 22 26  1  0  0  0  0
 20 21  1  0  0  0  0
 20 22  2  0  0  0  0
 17 18  1  0  0  0  0
 17 19  1  0  0  0  0
 17 20  1  0  0  0  0
 14 15  1  0  0  0  0
 14 16  1  0  0  0  0
 14 17  1  0  0  0  0
 11 12  1  0  0  0  0
 11 13  1  0  0  0  0
 11 14  1  0  0  0  0
  9 10  1  0  0  0  0
  9 11  1  0  0  0  0
  9 29  1  0  0  0  0
  7  8  1  0  0  0  0
  7  9  1  0  0  0  0
 33 34  1  0  0  0  0
 33 35  1  0  0  0  0
 33 36  1  0  0  0  0
 31 32  1  0  0  0  0
 31 33  1  0  0  0  0
M  CHG  1  20   1
M  END
$$$$
default_name
  -OEChem-01062215323D

 36 35  0     1  0  0  0  0  0999 V2000
   -4.2256   -3.6731    1.8584 H   0  0  0  0  0  0  0  0  0  0  0  0
   -4.2396   -2.6781    1.4144 C   0  0  0  0  0  0  0  0  0  0  0  0
   -4.9506   -2.0521    1.9514 H   0  0  0  0  0  0  0  0  0  0  0  0
   -4.5266   -2.7521    0.3674 H   0  0  0  0  0  0  0  0  0  0  0  0
   -2.8576   -2.0761    1.5184 C   0  0  0  0  0  0  0  0  0  0  0  0
   -1.9456   -2.7051    2.0404 O   0  0  0  0  0  0  0  0  0  0  0  0
   -2.6926   -0.8481    1.0174 N   0  0  0  0  0  0  0  0  0  0  0  0
   -3.4926   -0.3971    0.5954 H   0  0  0  0  0  0  0  0  0  0  0  0
   -1.4216   -0.1071    1.0434 C   0  0  1  0  0  0  0  0  0  0  0  0
   -0.6196   -0.7897    0.7577 H   0  0  0  0  0  0  0  0  0  0  0  0
   -1.4985    1.0301    0.0052 C   0  0  0  0  0  0  0  0  0  0  0  0
   -2.3954    1.6210    0.2015 H   0  0  0  0  0  0  0  0  0  0  0  0
   -0.6302    1.6818    0.1247 H   0  0  0  0  0  0  0  0  0  0  0  0
   -1.5580    0.5304   -1.4457 C   0  0  0  0  0  0  0  0  0  0  0  0
   -0.6654   -0.0547   -1.6712 H   0  0  0  0  0  0  0  0  0  0  0  0
   -2.4415   -0.0955   -1.5757 H   0  0  0  0  0  0  0  0  0  0  0  0
   -1.6325    1.7245   -2.4070 C   0  0  0  0  0  0  0  0  0  0  0  0
   -2.5141    2.3191   -2.1567 H   0  0  0  0  0  0  0  0  0  0  0  0
   -0.7407    2.3399   -2.2667 H   0  0  0  0  0  0  0  0  0  0  0  0
   -1.7155    1.2894   -3.8164 N   0  3  0  0  0  0  0  0  0  0  0  0
   -1.6674    0.2995   -3.9872 H   0  0  0  0  0  0  0  0  0  0  0  0
   -1.8469    2.0766   -4.8709 C   0  0  0  0  0  0  0  0  0  0  0  0
   -1.9187    3.3737   -4.7630 N   0  0  0  0  0  0  0  0  0  0  0  0
   -1.8741    3.7862   -3.8480 H   0  0  0  0  0  0  0  0  0  0  0  0
   -2.0179    3.9568   -5.5736 H   0  0  0  0  0  0  0  0  0  0  0  0
   -1.9082    1.5694   -6.0694 N   0  0  0  0  0  0  0  0  0  0  0  0
   -1.8573    0.5742   -6.2032 H   0  0  0  0  0  0  0  0  0  0  0  0
   -2.0080    2.1703   -6.8667 H   0  0  0  0  0  0  0  0  0  0  0  0
   -1.1395    0.4234    2.4506 C   0  0  0  0  0  0  0  0  0  0  0  0
   -1.7944    0.0048    3.3976 O   0  0  0  0  0  0  0  0  0  0  0  0
   -0.1969    1.3636    2.5701 N   0  0  0  0  0  0  0  0  0  0  0  0
    0.3181    1.6221    1.7444 H   0  0  0  0  0  0  0  0  0  0  0  0
    0.1948    1.9734    3.8420 C   0  0  0  0  0  0  0  0  0  0  0  0
    0.6280    1.2147    4.4973 H   0  0  0  0  0  0  0  0  0  0  0  0
    0.9305    2.7612    3.6751 H   0  0  0  0  0  0  0  0  0  0  0  0
   -0.6807    2.3980    4.3380 H   0  0  0  0  0  0  0  0  0  0  0  0
  5  6  2  0  0  0  0
  5  7  1  0  0  0  0
  2  3  1  0  0  0  0
  2  4  1  0  0  0  0
  2  5  1  0  0  0  0
  1  2  1  0  0  0  0
 29 30  2  0  0  0  0
 29 31  1  0  0  0  0
 26 27  1  0  0  0  0
 26 28  1  0  0  0  0
 23 24  1  0  0  0  0
 23 25  1  0  0  0  0
 22 23  1  0  0  0  0
 22 26  1  0  0  0  0
 20 21  1  0  0  0  0
 20 22  2  0  0  0  0
 17 18  1  0  0  0  0
 17 19  1  0  0  0  0
 17 20  1  0  0  0  0
 14 15  1  0  0  0  0
 14 16  1  0  0  0  0
 14 17  1  0  0  0  0
 11 12  1  0  0  0  0
 11 13  1  0  0  0  0
 11 14  1  0  0  0  0
  9 10  1  0  0  0  0
  9 11  1  0  0  0  0
  9 29  1  0  0  0  0
  7  8  1  0  0  0  0
  7  9  1  0  0  0  0
 33 34  1  0  0  0  0
 33 35  1  0  0  0  0
 33 36  1  0  0  0  0
 31 32  1  0  0  0  0
 31 33  1  0  0  0  0
M  CHG  1  20   1
M  END
$$$$
default_name
  -OEChem-01062215323D

 36 35  0     1  0  0  0  0  0999 V2000
   -4.2256   -3.6731    1.8584 H   0  0  0  0  0  0  0  0  0  0  0  0
   -4.2396   -2.6781    1.4144 C   0  0  0  0  0  0  0  0  0  0  0  0
   -4.9506   -2.0521    1.9514 H   0  0  0  0  0  0  0  0  0  0  0  0
   -4.5266   -2.7521    0.3674 H   0  0  0  0  0  0  0  0  0  0  0  0
   -2.8576   -2.0761    1.5184 C   0  0  0  0  0  0  0  0  0  0  0  0
   -1.9456   -2.7051    2.0404 O   0  0  0  0  0  0  0  0  0  0  0  0
   -2.6926   -0.8481    1.0174 N   0  0  0  0  0  0  0  0  0  0  0  0
   -3.4926   -0.3971    0.5954 H   0  0  0  0  0  0  0  0  0  0  0  0
   -1.4216   -0.1071    1.0434 C   0  0  1  0  0  0  0  0  0  0  0  0
   -0.6196   -0.7897    0.7577 H   0  0  0  0  0  0  0  0  0  0  0  0
   -1.4985    1.0301    0.0052 C   0  0  0  0  0  0  0  0  0  0  0  0
   -2.3954    1.6210    0.2015 H   0  0  0  0  0  0  0  0  0  0  0  0
   -0.6302    1.6818    0.1247 H   0  0  0  0  0  0  0  0  0  0  0  0
   -1.5580    0.5304   -1.4457 C   0  0  0  0  0  0  0  0  0  0  0  0
   -0.6654   -0.0547   -1.6712 H   0  0  0  0  0  0  0  0  0  0  0  0
   -2.4415   -0.0955   -1.5757 H   0  0  0  0  0  0  0  0  0  0  0  0
   -1.6325    1.7245   -2.4070 C   0  0  0  0  0  0  0  0  0  0  0  0
   -2.5141    2.3191   -2.1567 H   0  0  0  0  0  0  0  0  0  0  0  0
   -0.7407    2.3399   -2.2667 H   0  0  0  0  0  0  0  0  0  0  0  0
   -1.7155    1.2894   -3.8164 N   0  3  0  0  0  0  0  0  0  0  0  0
   -1.6674    0.2995   -3.9872 H   0  0  0  0  0  0  0  0  0  0  0  0
   -1.8469    2.0766   -4.8709 C   0  0  0  0  0  0  0  0  0  0  0  0
   -1.9187    3.3737   -4.7630 N   0  0  0  0  0  0  0  0  0  0  0  0
   -1.8741    3.7862   -3.8480 H   0  0  0  0  0  0  0  0  0  0  0  0
   -2.0179    3.9568   -5.5736 H   0  0  0  0  0  0  0  0  0  0  0  0
   -1.9082    1.5694   -6.0694 N   0  0  0  0  0  0  0  0  0  0  0  0
   -1.8573    0.5742   -6.2032 H   0  0  0  0  0  0  0  0  0  0  0  0
   -2.0080    2.1703   -6.8667 H   0  0  0  0  0  0  0  0  0  0  0  0
   -1.1395    0.4234    2.4506 C   0  0  0  0  0  0  0  0  0  0  0  0
   -1.5837   -0.1749    3.4231 O   0  0  0  0  0  0  0  0  0  0  0  0
   -0.4383    1.5574    2.5454 N   0  0  0  0  0  0  0  0  0  0  0  0
   -0.0801    1.9623    1.6959 H   0  0  0  0  0  0  0  0  0  0  0  0
   -0.0818    2.1961    3.8134 C   0  0  0  0  0  0  0  0  0  0  0  0
    0.5787    1.5402    4.3845 H   0  0  0  0  0  0  0  0  0  0  0  0
    0.4279    3.1432    3.6318 H   0  0  0  0  0  0  0  0  0  0  0  0
   -0.9813    2.3795    4.4052 H   0  0  0  0  0  0  0  0  0  0  0  0
  5  6  2  0  0  0  0
  5  7  1  0  0  0  0
  2  3  1  0  0  0  0
  2  4  1  0  0  0  0
  2  5  1  0  0  0  0
  1  2  1  0  0  0  0
 29 30  2  0  0  0  0
 29 31  1  0  0  0  0
 26 27  1  0  0  0  0
 26 28  1  0  0  0  0
 23 24  1  0  0  0  0
 23 25  1  0  0  0  0
 22 23  1  0  0  0  0
 22 26  1  0  0  0  0
 20 21  1  0  0  0  0
 20 22  2  0  0  0  0
 17 18  1  0  0  0  0
 17 19  1  0  0  0  0
 17 20  1  0  0  0  0
 14 15  1  0  0  0  0
 14 16  1  0  0  0  0
 14 17  1  0  0  0  0
 11 12  1  0  0  0  0
 11 13  1  0  0  0  0
 11 14  1  0  0  0  0
  9 10  1  0  0  0  0
  9 11  1  0  0  0  0
  9 29  1  0  0  0  0
  7  8  1  0  0  0  0
  7  9  1  0  0  0  0
 33 34  1  0  0  0  0
 33 35  1  0  0  0  0
 33 36  1  0  0  0  0
 31 32  1  0  0  0  0
 31 33  1  0  0  0  0
M  CHG  1  20   1
M  END
$$$$
default_name
  -OEChem-01062215323D

 36 35  0     1  0  0  0  0  0999 V2000
   -4.2256   -3.6731    1.8584 H   0  0  0  0  0  0  0  0  0  0  0  0
   -4.2396   -2.6781    1.4144 C   0  0  0  0  0  0  0  0  0  0  0  0
   -4.9506   -2.0521    1.9514 H   0  0  0  0  0  0  0  0  0  0  0  0
   -4.5266   -2.7521    0.3674 H   0  0  0  0  0  0  0  0  0  0  0  0
   -2.8576   -2.0761    1.5184 C   0  0  0  0  0  0  0  0  0  0  0  0
   -1.9456   -2.7051    2.0404 O   0  0  0  0  0  0  0  0  0  0  0  0
   -2.6926   -0.8481    1.0174 N   0  0  0  0  0  0  0  0  0  0  0  0
   -3.4926   -0.3971    0.5954 H   0  0  0  0  0  0  0  0  0  0  0  0
   -1.4216   -0.1071    1.0434 C   0  0  1  0  0  0  0  0  0  0  0  0
   -0.6196   -0.7897    0.7577 H   0  0  0  0  0  0  0  0  0  0  0  0
   -1.4985    1.0301    0.0052 C   0  0  0  0  0  0  0  0  0  0  0  0
   -2.3954    1.6210    0.2015 H   0  0  0  0  0  0  0  0  0  0  0  0
   -0.6302    1.6818    0.1247 H   0  0  0  0  0  0  0  0  0  0  0  0
   -1.5580    0.5304   -1.4457 C   0  0  0  0  0  0  0  0  0  0  0  0
   -0.6654   -0.0547   -1.6712 H   0  0  0  0  0  0  0  0  0  0  0  0
   -2.4415   -0.0955   -1.5757 H   0  0  0  0  0  0  0  0  0  0  0  0
   -1.6325    1.7245   -2.4070 C   0  0  0  0  0  0  0  0  0  0  0  0
   -2.5141    2.3191   -2.1567 H   0  0  0  0  0  0  0  0  0  0  0  0
   -0.7407    2.3399   -2.2667 H   0  0  0  0  0  0  0  0  0  0  0  0
   -1.7155    1.2894   -3.8164 N   0  3  0  0  0  0  0  0  0  0  0  0
   -1.6674    0.2995   -3.9872 H   0  0  0  0  0  0  0  0  0  0  0  0
   -1.8469    2.0766   -4.8709 C   0  0  0  0  0  0  0  0  0  0  0  0
   -1.9187    3.3737   -4.7630 N   0  0  0  0  0  0  0  0  0  0  0  0
   -1.8741    3.7862   -3.8480 H   0  0  0  0  0  0  0  0  0  0  0  0
   -2.0179    3.9568   -5.5736 H   0  0  0  0  0  0  0  0  0  0  0  0
   -1.9082    1.5694   -6.0694 N   0  0  0  0  0  0  0  0  0  0  0  0
   -1.8573    0.5742   -6.2032 H   0  0  0  0  0  0  0  0  0  0  0  0
   -2.0080    2.1703   -6.8667 H   0  0  0  0  0  0  0  0  0  0  0  0
   -1.1395    0.4234    2.4506 C   0  0  0  0  0  0  0  0  0  0  0  0
   -1.3351   -0.2995    3.4203 O   0  0  0  0  0  0  0  0  0  0  0  0
   -0.7198    1.6884    2.5525 N   0  0  0  0  0  0  0  0  0  0  0  0
   -0.5500    2.1985    1.7011 H   0  0  0  0  0  0  0  0  0  0  0  0
   -0.4045    2.3468    3.8213 C   0  0  0  0  0  0  0  0  0  0  0  0
    0.4435    1.8481    4.2955 H   0  0  0  0  0  0  0  0  0  0  0  0
   -0.1523    3.3946    3.6533 H   0  0  0  0  0  0  0  0  0  0  0  0
   -1.2611    2.2868    4.4962 H   0  0  0  0  0  0  0  0  0  0  0  0
  5  6  2  0  0  0  0
  5  7  1  0  0  0  0
  2  3  1  0  0  0  0
  2  4  1  0  0  0  0
  2  5  1  0  0  0  0
  1  2  1  0  0  0  0
 29 30  2  0  0  0  0
 29 31  1  0  0  0  0
 26 27  1  0  0  0  0
 26 28  1  0  0  0  0
 23 24  1  0  0  0  0
 23 25  1  0  0  0  0
 22 23  1  0  0  0  0
 22 26  1  0  0  0  0
 20 21  1  0  0  0  0
 20 22  2  0  0  0  0
 17 18  1  0  0  0  0
 17 19  1  0  0  0  0
 17 20  1  0  0  0  0
 14 15  1  0  0  0  0
 14 16  1  0  0  0  0
 14 17  1  0  0  0  0
 11 12  1  0  0  0  0
 11 13  1  0  0  0  0
 11 14  1  0  0  0  0
  9 10  1  0  0  0  0
  9 11  1  0  0  0  0
  9 29  1  0  0  0  0
  7  8  1  0  0  0  0
  7  9  1  0  0  0  0
 33 34  1  0  0  0  0
 33 35  1  0  0  0  0
 33 36  1  0  0  0  0
 31 32  1  0  0  0  0
 31 33  1  0  0  0  0
M  CHG  1  20   1
M  END
$$$$
default_name
  -OEChem-01062215323D

 36 35  0     1  0  0  0  0  0999 V2000
   -4.2256   -3.6731    1.8584 H   0  0  0  0  0  0  0  0  0  0  0  0
   -4.2396   -2.6781    1.4144 C   0  0  0  0  0  0  0  0  0  0  0  0
   -4.9506   -2.0521    1.9514 H   0  0  0  0  0  0  0  0  0  0  0  0
   -4.5266   -2.7521    0.3674 H   0  0  0  0  0  0  0  0  0  0  0  0
   -2.8576   -2.0761    1.5184 C   0  0  0  0  0  0  0  0  0  0  0  0
   -1.9456   -2.7051    2.0404 O   0  0  0  0  0  0  0  0  0  0  0  0
   -2.6926   -0.8481    1.0174 N   0  0  0  0  0  0  0  0  0  0  0  0
   -3.4926   -0.3971    0.5954 H   0  0  0  0  0  0  0  0  0  0  0  0
   -1.4216   -0.1071    1.0434 C   0  0  1  0  0  0  0  0  0  0  0  0
   -0.6196   -0.7897    0.7577 H   0  0  0  0  0  0  0  0  0  0  0  0
   -1.4985    1.0301    0.0052 C   0  0  0  0  0  0  0  0  0  0  0  0
   -2.3954    1.6210    0.2015 H   0  0  0  0  0  0  0  0  0  0  0  0
   -0.6302    1.6818    0.1247 H   0  0  0  0  0  0  0  0  0  0  0  0
   -1.5580    0.5304   -1.4457 C   0  0  0  0  0  0  0  0  0  0  0  0
   -0.6654   -0.0547   -1.6712 H   0  0  0  0  0  0  0  0  0  0  0  0
   -2.4415   -0.0955   -1.5757 H   0  0  0  0  0  0  0  0  0  0  0  0
   -1.6325    1.7245   -2.4070 C   0  0  0  0  0  0  0  0  0  0  0  0
   -2.5141    2.3191   -2.1567 H   0  0  0  0  0  0  0  0  0  0  0  0
   -0.7407    2.3399   -2.2667 H   0  0  0  0  0  0  0  0  0  0  0  0
   -1.7155    1.2894   -3.8164 N   0  3  0  0  0  0  0  0  0  0  0  0
   -1.6674    0.2995   -3.9872 H   0  0  0  0  0  0  0  0  0  0  0  0
   -1.8469    2.0766   -4.8709 C   0  0  0  0  0  0  0  0  0  0  0  0
   -1.9187    3.3737   -4.7630 N   0  0  0  0  0  0  0  0  0  0  0  0
   -1.8741    3.7862   -3.8480 H   0  0  0  0  0  0  0  0  0  0  0  0
   -2.0179    3.9568   -5.5736 H   0  0  0  0  0  0  0  0  0  0  0  0
   -1.9082    1.5694   -6.0694 N   0  0  0  0  0  0  0  0  0  0  0  0
   -1.8573    0.5742   -6.2032 H   0  0  0  0  0  0  0  0  0  0  0  0
   -2.0080    2.1703   -6.8667 H   0  0  0  0  0  0  0  0  0  0  0  0
   -1.1395    0.4234    2.4506 C   0  0  0  0  0  0  0  0  0  0  0  0
   -1.0655   -0.3605    3.3893 O   0  0  0  0  0  0  0  0  0  0  0  0
   -1.0222    1.7475    2.5908 N   0  0  0  0  0  0  0  0  0  0  0  0
   -1.0597    2.3145    1.7595 H   0  0  0  0  0  0  0  0  0  0  0  0
   -0.7514    2.4152    3.8651 C   0  0  0  0  0  0  0  0  0  0  0  0
    0.2316    2.1177    4.2363 H   0  0  0  0  0  0  0  0  0  0  0  0
   -0.7707    3.4984    3.7382 H   0  0  0  0  0  0  0  0  0  0  0  0
   -1.5012    2.1263    4.6049 H   0  0  0  0  0  0  0  0  0  0  0  0
  5  6  2  0  0  0  0
  5  7  1  0  0  0  0
  2  3  1  0  0  0  0
  2  4  1  0  0  0  0
  2  5  1  0  0  0  0
  1  2  1  0  0  0  0
 29 30  2  0  0  0  0
 29 31  1  0  0  0  0
 26 27  1  0  0  0  0
 26 28  1  0  0  0  0
 23 24  1  0  0  0  0
 23 25  1  0  0  0  0
 22 23  1  0  0  0  0
 22 26  1  0  0  0  0
 20 21  1  0  0  0  0
 20 22  2  0  0  0  0
 17 18  1  0  0  0  0
 17 19  1  0  0  0  0
 17 20  1  0  0  0  0
 14 15  1  0  0  0  0
 14 16  1  0  0  0  0
 14 17  1  0  0  0  0
 11 12  1  0  0  0  0
 11 13  1  0  0  0  0
 11 14  1  0  0  0  0
  9 10  1  0  0  0  0
  9 11  1  0  0  0  0
  9 29  1  0  0  0  0
  7  8  1  0  0  0  0
  7  9  1  0  0  0  0
 33 34  1  0  0  0  0
 33 35  1  0  0  0  0
 33 36  1  0  0  0  0
 31 32  1  0  0  0  0
 31 33  1  0  0  0  0
M  CHG  1  20   1
M  END
$$$$
default_name
  -OEChem-01062215323D

 36 35  0     1  0  0  0  0  0999 V2000
   -4.2256   -3.6731    1.8584 H   0  0  0  0  0  0  0  0  0  0  0  0
   -4.2396   -2.6781    1.4144 C   0  0  0  0  0  0  0  0  0  0  0  0
   -4.9506   -2.0521    1.9514 H   0  0  0  0  0  0  0  0  0  0  0  0
   -4.5266   -2.7521    0.3674 H   0  0  0  0  0  0  0  0  0  0  0  0
   -2.8576   -2.0761    1.5184 C   0  0  0  0  0  0  0  0  0  0  0  0
   -1.9456   -2.7051    2.0404 O   0  0  0  0  0  0  0  0  0  0  0  0
   -2.6926   -0.8481    1.0174 N   0  0  0  0  0  0  0  0  0  0  0  0
   -3.4926   -0.3971    0.5954 H   0  0  0  0  0  0  0  0  0  0  0  0
   -1.4216   -0.1071    1.0434 C   0  0  1  0  0  0  0  0  0  0  0  0
   -0.6196   -0.7897    0.7577 H   0  0  0  0  0  0  0  0  0  0  0  0
   -1.4985    1.0301    0.0052 C   0  0  0  0  0  0  0  0  0  0  0  0
   -2.3954    1.6210    0.2015 H   0  0  0  0  0  0  0  0  0  0  0  0
   -0.6302    1.6818    0.1247 H   0  0  0  0  0  0  0  0  0  0  0  0
   -1.5580    0.5304   -1.4457 C   0  0  0  0  0  0  0  0  0  0  0  0
   -0.6654   -0.0547   -1.6712 H   0  0  0  0  0  0  0  0  0  0  0  0
   -2.4415   -0.0955   -1.5757 H   0  0  0  0  0  0  0  0  0  0  0  0
   -1.6325    1.7245   -2.4070 C   0  0  0  0  0  0  0  0  0  0  0  0
   -2.5141    2.3191   -2.1567 H   0  0  0  0  0  0  0  0  0  0  0  0
   -0.7407    2.3399   -2.2667 H   0  0  0  0  0  0  0  0  0  0  0  0
   -1.7155    1.2894   -3.8164 N   0  3  0  0  0  0  0  0  0  0  0  0
   -1.6674    0.2995   -3.9872 H   0  0  0  0  0  0  0  0  0  0  0  0
   -1.8469    2.0766   -4.8709 C   0  0  0  0  0  0  0  0  0  0  0  0
   -1.9187    3.3737   -4.7630 N   0  0  0  0  0  0  0  0  0  0  0  0
   -1.8741    3.7862   -3.8480 H   0  0  0  0  0  0  0  0  0  0  0  0
   -2.0179    3.9568   -5.5736 H   0  0  0  0  0  0  0  0  0  0  0  0
   -1.9082    1.5694   -6.0694 N   0  0  0  0  0  0  0  0  0  0  0  0
   -1.8573    0.5742   -6.2032 H   0  0  0  0  0  0  0  0  0  0  0  0
   -2.0080    2.1703   -6.8667 H   0  0  0  0  0  0  0  0  0  0  0  0
   -1.1395    0.4234    2.4506 C   0  0  0  0  0  0  0  0  0  0  0  0
   -0.7934   -0.3539    3.3322 O   0  0  0  0  0  0  0  0  0  0  0  0
   -1.3250    1.7308    2.6578 N   0  0  0  0  0  0  0  0  0  0  0  0
   -1.5743    2.3024    1.8673 H   0  0  0  0  0  0  0  0  0  0  0  0
   -1.0989    2.3966    3.9417 C   0  0  0  0  0  0  0  0  0  0  0  0
   -0.0426    2.3304    4.2111 H   0  0  0  0  0  0  0  0  0  0  0  0
   -1.3851    3.4473    3.8806 H   0  0  0  0  0  0  0  0  0  0  0  0
   -1.6852    1.9090    4.7237 H   0  0  0  0  0  0  0  0  0  0  0  0
  5  6  2  0  0  0  0
  5  7  1  0  0  0  0
  2  3  1  0  0  0  0
  2  4  1  0  0  0  0
  2  5  1  0  0  0  0
  1  2  1  0  0  0  0
 29 30  2  0  0  0  0
 29 31  1  0  0  0  0
 26 27  1  0  0  0  0
 26 28  1  0  0  0  0
 23 24  1  0  0  0  0
 23 25  1  0  0  0  0
 22 23  1  0  0  0  0
 22 26  1  0  0  0  0
 20 21  1  0  0  0  0
 20 22  2  0  0  0  0
 17 18  1  0  0  0  0
 17 19  1  0  0  0  0
 17 20  1  0  0  0  0
 14 15  1  0  0  0  0
 14 16  1  0  0  0  0
 14 17  1  0  0  0  0
 11 12  1  0  0  0  0
 11 13  1  0  0  0  0
 11 14  1  0  0  0  0
  9 10  1  0  0  0  0
  9 11  1  0  0  0  0
  9 29  1  0  0  0  0
  7  8  1  0  0  0  0
  7  9  1  0  0  0  0
 33 34  1  0  0  0  0
 33 35  1  0  0  0  0
 33 36  1  0  0  0  0
 31 32  1  0  0  0  0
 31 33  1  0  0  0  0
M  CHG  1  20   1
M  END
$$$$
default_name
  -OEChem-01062215323D

 36 35  0     1  0  0  0  0  0999 V2000
   -4.2256   -3.6731    1.8584 H   0  0  0  0  0  0  0  0  0  0  0  0
   -4.2396   -2.6781    1.4144 C   0  0  0  0  0  0  0  0  0  0  0  0
   -4.9506   -2.0521    1.9514 H   0  0  0  0  0  0  0  0  0  0  0  0
   -4.5266   -2.7521    0.3674 H   0  0  0  0  0  0  0  0  0  0  0  0
   -2.8576   -2.0761    1.5184 C   0  0  0  0  0  0  0  0  0  0  0  0
   -1.9456   -2.7051    2.0404 O   0  0  0  0  0  0  0  0  0  0  0  0
   -2.6926   -0.8481    1.0174 N   0  0  0  0  0  0  0  0  0  0  0  0
   -3.4926   -0.3971    0.5954 H   0  0  0  0  0  0  0  0  0  0  0  0
   -1.4216   -0.1071    1.0434 C   0  0  1  0  0  0  0  0  0  0  0  0
   -0.6196   -0.7897    0.7577 H   0  0  0  0  0  0  0  0  0  0  0  0
   -1.4985    1.0301    0.0052 C   0  0  0  0  0  0  0  0  0  0  0  0
   -2.3954    1.6210    0.2015 H   0  0  0  0  0  0  0  0  0  0  0  0
   -0.6302    1.6818    0.1247 H   0  0  0  0  0  0  0  0  0  0  0  0
   -1.5580    0.5304   -1.4457 C   0  0  0  0  0  0  0  0  0  0  0  0
   -0.6654   -0.0547   -1.6712 H   0  0  0  0  0  0  0  0  0  0  0  0
   -2.4415   -0.0955   -1.5757 H   0  0  0  0  0  0  0  0  0  0  0  0
   -1.6325    1.7245   -2.4070 C   0  0  0  0  0  0  0  0  0  0  0  0
   -2.5141    2.3191   -2.1567 H   0  0  0  0  0  0  0  0  0  0  0  0
   -0.7407    2.3399   -2.2667 H   0  0  0  0  0  0  0  0  0  0  0  0
   -1.7155    1.2894   -3.8164 N   0  3  0  0  0  0  0  0  0  0  0  0
   -1.6674    0.2995   -3.9872 H   0  0  0  0  0  0  0  0  0  0  0  0
   -1.8469    2.0766   -4.8709 C   0  0  0  0  0  0  0  0  0  0  0  0
   -1.9187    3.3737   -4.7630 N   0  0  0  0  0  0  0  0  0  0  0  0
   -1.8741    3.7862   -3.8480 H   0  0  0  0  0  0  0  0  0  0  0  0
   -2.0179    3.9568   -5.5736 H   0  0  0  0  0  0  0  0  0  0  0  0
   -1.9082    1.5694   -6.0694 N   0  0  0  0  0  0  0  0  0  0  0  0
   -1.8573    0.5742   -6.2032 H   0  0  0  0  0  0  0  0  0  0  0  0
   -2.0080    2.1703   -6.8667 H   0  0  0  0  0  0  0  0  0  0  0  0
   -1.1395    0.4234    2.4506 C   0  0  0  0  0  0  0  0  0  0  0  0
   -0.5373   -0.2799    3.2530 O   0  0  0  0  0  0  0  0  0  0  0  0
   -1.6074    1.6394    2.7489 N   0  0  0  0  0  0  0  0  0  0  0  0
   -2.0589    2.1631    2.0169 H   0  0  0  0  0  0  0  0  0  0  0  0
   -1.4231    2.2922    4.0461 C   0  0  0  0  0  0  0  0  0  0  0  0
   -0.3603    2.4718    4.2215 H   0  0  0  0  0  0  0  0  0  0  0  0
   -1.9536    3.2450    4.0708 H   0  0  0  0  0  0  0  0  0  0  0  0
   -1.8005    1.6496    4.8446 H   0  0  0  0  0  0  0  0  0  0  0  0
  5  6  2  0  0  0  0
  5  7  1  0  0  0  0
  2  3  1  0  0  0  0
  2  4  1  0  0  0  0
  2  5  1  0  0  0  0
  1  2  1  0  0  0  0
 29 30  2  0  0  0  0
 29 31  1  0  0  0  0
 26 27  1  0  0  0  0
 26 28  1  0  0  0  0
 23 24  1  0  0  0  0
 23 25  1  0  0  0  0
 22 23  1  0  0  0  0
 22 26  1  0  0  0  0
 20 21  1  0  0  0  0
 20 22  2  0  0  0  0
 17 18  1  0  0  0  0
 17 19  1  0  0  0  0
 17 20  1  0  0  0  0
 14 15  1  0  0  0  0
 14 16  1  0  0  0  0
 14 17  1  0  0  0  0
 11 12  1  0  0  0  0
 11 13  1  0  0  0  0
 11 14  1  0  0  0  0
  9 10  1  0  0  0  0
  9 11  1  0  0  0  0
  9 29  1  0  0  0  0
  7  8  1  0  0  0  0
  7  9  1  0  0  0  0
 33 34  1  0  0  0  0
 33 35  1  0  0  0  0
 33 36  1  0  0  0  0
 31 32  1  0  0  0  0
 31 33  1  0  0  0  0
M  CHG  1  20   1
M  END
$$$$
default_name
  -OEChem-01062215323D

 36 35  0     1  0  0  0  0  0999 V2000
   -4.2256   -3.6731    1.8584 H   0  0  0  0  0  0  0  0  0  0  0  0
   -4.2396   -2.6781    1.4144 C   0  0  0  0  0  0  0  0  0  0  0  0
   -4.9506   -2.0521    1.9514 H   0  0  0  0  0  0  0  0  0  0  0  0
   -4.5266   -2.7521    0.3674 H   0  0  0  0  0  0  0  0  0  0  0  0
   -2.8576   -2.0761    1.5184 C   0  0  0  0  0  0  0  0  0  0  0  0
   -1.9456   -2.7051    2.0404 O   0  0  0  0  0  0  0  0  0  0  0  0
   -2.6926   -0.8481    1.0174 N   0  0  0  0  0  0  0  0  0  0  0  0
   -3.4926   -0.3971    0.5954 H   0  0  0  0  0  0  0  0  0  0  0  0
   -1.4216   -0.1071    1.0434 C   0  0  1  0  0  0  0  0  0  0  0  0
   -0.6196   -0.7897    0.7577 H   0  0  0  0  0  0  0  0  0  0  0  0
   -1.4985    1.0301    0.0052 C   0  0  0  0  0  0  0  0  0  0  0  0
   -2.3954    1.6210    0.2015 H   0  0  0  0  0  0  0  0  0  0  0  0
   -0.6302    1.6818    0.1247 H   0  0  0  0  0  0  0  0  0  0  0  0
   -1.5580    0.5304   -1.4457 C   0  0  0  0  0  0  0  0  0  0  0  0
   -0.6654   -0.0547   -1.6712 H   0  0  0  0  0  0  0  0  0  0  0  0
   -2.4415   -0.0955   -1.5757 H   0  0  0  0  0  0  0  0  0  0  0  0
   -1.6325    1.7245   -2.4070 C   0  0  0  0  0  0  0  0  0  0  0  0
   -2.5141    2.3191   -2.1567 H   0  0  0  0  0  0  0  0  0  0  0  0
   -0.7407    2.3399   -2.2667 H   0  0  0  0  0  0  0  0  0  0  0  0
   -1.7155    1.2894   -3.8164 N   0  3  0  0  0  0  0  0  0  0  0  0
   -1.6674    0.2995   -3.9872 H   0  0  0  0  0  0  0  0  0  0  0  0
   -1.8469    2.0766   -4.8709 C   0  0  0  0  0  0  0  0  0  0  0  0
   -1.9187    3.3737   -4.7630 N   0  0  0  0  0  0  0  0  0  0  0  0
   -1.8741    3.7862   -3.8480 H   0  0  0  0  0  0  0  0  0  0  0  0
   -2.0179    3.9568   -5.5736 H   0  0  0  0  0  0  0  0  0  0  0  0
   -1.9082    1.5694   -6.0694 N   0  0  0  0  0  0  0  0  0  0  0  0
   -1.8573    0.5742   -6.2032 H   0  0  0  0  0  0  0  0  0  0  0  0
   -2.0080    2.1703   -6.8667 H   0  0  0  0  0  0  0  0  0  0  0  0
   -1.1395    0.4234    2.4506 C   0  0  0  0  0  0  0  0  0  0  0  0
   -0.3146   -0.1438    3.1570 O   0  0  0  0  0  0  0  0  0  0  0  0
   -1.8503    1.4796    2.8579 N   0  0  0  0  0  0  0  0  0  0  0  0
   -2.4804    1.9061    2.1983 H   0  0  0  0  0  0  0  0  0  0  0  0
   -1.7022    2.1093    4.1710 C   0  0  0  0  0  0  0  0  0  0  0  0
   -0.6999    2.5323    4.2667 H   0  0  0  0  0  0  0  0  0  0  0  0
   -2.4375    2.9051    4.2960 H   0  0  0  0  0  0  0  0  0  0  0  0
   -1.8393    1.3659    4.9593 H   0  0  0  0  0  0  0  0  0  0  0  0
  5  6  2  0  0  0  0
  5  7  1  0  0  0  0
  2  3  1  0  0  0  0
  2  4  1  0  0  0  0
  2  5  1  0  0  0  0
  1  2  1  0  0  0  0
 29 30  2  0  0  0  0
 29 31  1  0  0  0  0
 26 27  1  0  0  0  0
 26 28  1  0  0  0  0
 23 24  1  0  0  0  0
 23 25  1  0  0  0  0
 22 23  1  0  0  0  0
 22 26  1  0  0  0  0
 20 21  1  0  0  0  0
 20 22  2  0  0  0  0
 17 18  1  0  0  0  0
 17 19  1  0  0  0  0
 17 20  1  0  0  0  0
 14 15  1  0  0  0  0
 14 16  1  0  0  0  0
 14 17  1  0  0  0  0
 11 12  1  0  0  0  0
 11 13  1  0  0  0  0
 11 14  1  0  0  0  0
  9 10  1  0  0  0  0
  9 11  1  0  0  0  0
  9 29  1  0  0  0  0
  7  8  1  0  0  0  0
  7  9  1  0  0  0  0
 33 34  1  0  0  0  0
 33 35  1  0  0  0  0
 33 36  1  0  0  0  0
 31 32  1  0  0  0  0
 31 33  1  0  0  0  0
M  CHG  1  20   1
M  END
$$$$
default_name
  -OEChem-01062215323D

 36 35  0     1  0  0  0  0  0999 V2000
   -4.2256   -3.6731    1.8584 H   0  0  0  0  0  0  0  0  0  0  0  0
   -4.2396   -2.6781    1.4144 C   0  0  0  0  0  0  0  0  0  0  0  0
   -4.9506   -2.0521    1.9514 H   0  0  0  0  0  0  0  0  0  0  0  0
   -4.5266   -2.7521    0.3674 H   0  0  0  0  0  0  0  0  0  0  0  0
   -2.8576   -2.0761    1.5184 C   0  0  0  0  0  0  0  0  0  0  0  0
   -1.9456   -2.7051    2.0404 O   0  0  0  0  0  0  0  0  0  0  0  0
   -2.6926   -0.8481    1.0174 N   0  0  0  0  0  0  0  0  0  0  0  0
   -3.4926   -0.3971    0.5954 H   0  0  0  0  0  0  0  0  0  0  0  0
   -1.4216   -0.1071    1.0434 C   0  0  1  0  0  0  0  0  0  0  0  0
   -0.6196   -0.7897    0.7577 H   0  0  0  0  0  0  0  0  0  0  0  0
   -1.4985    1.0301    0.0052 C   0  0  0  0  0  0  0  0  0  0  0  0
   -2.3954    1.6210    0.2015 H   0  0  0  0  0  0  0  0  0  0  0  0
   -0.6302    1.6818    0.1247 H   0  0  0  0  0  0  0  0  0  0  0  0
   -1.5580    0.5304   -1.4457 C   0  0  0  0  0  0  0  0  0  0  0  0
   -0.6654   -0.0547   -1.6712 H   0  0  0  0  0  0  0  0  0  0  0  0
   -2.4415   -0.0955   -1.5757 H   0  0  0  0  0  0  0  0  0  0  0  0
   -1.6325    1.7245   -2.4070 C   0  0  0  0  0  0  0  0  0  0  0  0
   -2.5141    2.3191   -2.1567 H   0  0  0  0  0  0  0  0  0  0  0  0
   -0.7407    2.3399   -2.2667 H   0  0  0  0  0  0  0  0  0  0  0  0
   -1.7155    1.2894   -3.8164 N   0  3  0  0  0  0  0  0  0  0  0  0
   -1.6674    0.2995   -3.9872 H   0  0  0  0  0  0  0  0  0  0  0  0
   -1.8469    2.0766   -4.8709 C   0  0  0  0  0  0  0  0  0  0  0  0
   -1.9187    3.3737   -4.7630 N   0  0  0  0  0  0  0  0  0  0  0  0
   -1.8741    3.7862   -3.8480 H   0  0  0  0  0  0  0  0  0  0  0  0
   -2.0179    3.9568   -5.5736 H   0  0  0  0  0  0  0  0  0  0  0  0
   -1.9082    1.5694   -6.0694 N   0  0  0  0  0  0  0  0  0  0  0  0
   -1.8573    0.5742   -6.2032 H   0  0  0  0  0  0  0  0  0  0  0  0
   -2.0080    2.1703   -6.8667 H   0  0  0  0  0  0  0  0  0  0  0  0
   -1.1395    0.4234    2.4506 C   0  0  0  0  0  0  0  0  0  0  0  0
   -0.1405    0.0454    3.0508 O   0  0  0  0  0  0  0  0  0  0  0  0
   -2.0371    1.2622    2.9773 N   0  0  0  0  0  0  0  0  0  0  0  0
   -2.8100    1.5489    2.3991 H   0  0  0  0  0  0  0  0  0  0  0  0
   -1.9169    1.8602    4.3080 C   0  0  0  0  0  0  0  0  0  0  0  0
   -1.0383    2.5078    4.3438 H   0  0  0  0  0  0  0  0  0  0  0  0
   -2.8038    2.4510    4.5407 H   0  0  0  0  0  0  0  0  0  0  0  0
   -1.7989    1.0771    5.0601 H   0  0  0  0  0  0  0  0  0  0  0  0
  5  6  2  0  0  0  0
  5  7  1  0  0  0  0
  2  3  1  0  0  0  0
  2  4  1  0  0  0  0
  2  5  1  0  0  0  0
  1  2  1  0  0  0  0
 29 30  2  0  0  0  0
 29 31  1  0  0  0  0
 26 27  1  0  0  0  0
 26 28  1  0  0  0  0
 23 24  1  0  0  0  0
 23 25  1  0  0  0  0
 22 23  1  0  0  0  0
 22 26  1  0  0  0  0
 20 21  1  0  0  0  0
 20 22  2  0  0  0  0
 17 18  1  0  0  0  0
 17 19  1  0  0  0  0
 17 20  1  0  0  0  0
 14 15  1  0  0  0  0
 14 16  1  0  0  0  0
 14 17  1  0  0  0  0
 11 12  1  0  0  0  0
 11 13  1  0  0  0  0
 11 14  1  0  0  0  0
  9 10  1  0  0  0  0
  9 11  1  0  0  0  0
  9 29  1  0  0  0  0
  7  8  1  0  0  0  0
  7  9  1  0  0  0  0
 33 34  1  0  0  0  0
 33 35  1  0  0  0  0
 33 36  1  0  0  0  0
 31 32  1  0  0  0  0
 31 33  1  0  0  0  0
M  CHG  1  20   1
M  END
$$$$
default_name
  -OEChem-01062215323D

 36 35  0     1  0  0  0  0  0999 V2000
   -4.2256   -3.6731    1.8584 H   0  0  0  0  0  0  0  0  0  0  0  0
   -4.2396   -2.6781    1.4144 C   0  0  0  0  0  0  0  0  0  0  0  0
   -4.9506   -2.0521    1.9514 H   0  0  0  0  0  0  0  0  0  0  0  0
   -4.5266   -2.7521    0.3674 H   0  0  0  0  0  0  0  0  0  0  0  0
   -2.8576   -2.0761    1.5184 C   0  0  0  0  0  0  0  0  0  0  0  0
   -1.9456   -2.7051    2.0404 O   0  0  0  0  0  0  0  0  0  0  0  0
   -2.6926   -0.8481    1.0174 N   0  0  0  0  0  0  0  0  0  0  0  0
   -3.4926   -0.3971    0.5954 H   0  0  0  0  0  0  0  0  0  0  0  0
   -1.4216   -0.1071    1.0434 C   0  0  1  0  0  0  0  0  0  0  0  0
   -0.6196   -0.7897    0.7577 H   0  0  0  0  0  0  0  0  0  0  0  0
   -1.4985    1.0301    0.0052 C   0  0  0  0  0  0  0  0  0  0  0  0
   -2.3954    1.6210    0.2015 H   0  0  0  0  0  0  0  0  0  0  0  0
   -0.6302    1.6818    0.1247 H   0  0  0  0  0  0  0  0  0  0  0  0
   -1.5580    0.5304   -1.4457 C   0  0  0  0  0  0  0  0  0  0  0  0
   -0.6654   -0.0547   -1.6712 H   0  0  0  0  0  0  0  0  0  0  0  0
   -2.4415   -0.0955   -1.5757 H   0  0  0  0  0  0  0  0  0  0  0  0
   -1.6325    1.7245   -2.4070 C   0  0  0  0  0  0  0  0  0  0  0  0
   -2.5141    2.3191   -2.1567 H   0  0  0  0  0  0  0  0  0  0  0  0
   -0.7407    2.3399   -2.2667 H   0  0  0  0  0  0  0  0  0  0  0  0
   -1.7155    1.2894   -3.8164 N   0  3  0  0  0  0  0  0  0  0  0  0
   -1.6674    0.2995   -3.9872 H   0  0  0  0  0  0  0  0  0  0  0  0
   -1.8469    2.0766   -4.8709 C   0  0  0  0  0  0  0  0  0  0  0  0
   -1.9187    3.3737   -4.7630 N   0  0  0  0  0  0  0  0  0  0  0  0
   -1.8741    3.7862   -3.8480 H   0  0  0  0  0  0  0  0  0  0  0  0
   -2.0179    3.9568   -5.5736 H   0  0  0  0  0  0  0  0  0  0  0  0
   -1.9082    1.5694   -6.0694 N   0  0  0  0  0  0  0  0  0  0  0  0
   -1.8573    0.5742   -6.2032 H   0  0  0  0  0  0  0  0  0  0  0  0
   -2.0080    2.1703   -6.8667 H   0  0  0  0  0  0  0  0  0  0  0  0
   -1.1395    0.4234    2.4506 C   0  0  0  0  0  0  0  0  0  0  0  0
   -0.0269    0.2745    2.9416 O   0  0  0  0  0  0  0  0  0  0  0  0
   -2.1551    1.0020    3.0990 N   0  0  0  0  0  0  0  0  0  0  0  0
   -3.0254    1.1157    2.6055 H   0  0  0  0  0  0  0  0  0  0  0  0
   -2.0528    1.5619    4.4477 C   0  0  0  0  0  0  0  0  0  0  0  0
   -1.3524    2.3998    4.4475 H   0  0  0  0  0  0  0  0  0  0  0  0
   -3.0276    1.9134    4.7882 H   0  0  0  0  0  0  0  0  0  0  0  0
   -1.6821    0.8029    5.1401 H   0  0  0  0  0  0  0  0  0  0  0  0
  5  6  2  0  0  0  0
  5  7  1  0  0  0  0
  2  3  1  0  0  0  0
  2  4  1  0  0  0  0
  2  5  1  0  0  0  0
  1  2  1  0  0  0  0
 29 30  2  0  0  0  0
 29 31  1  0  0  0  0
 26 27  1  0  0  0  0
 26 28  1  0  0  0  0
 23 24  1  0  0  0  0
 23 25  1  0  0  0  0
 22 23  1  0  0  0  0
 22 26  1  0  0  0  0
 20 21  1  0  0  0  0
 20 22  2  0  0  0  0
 17 18  1  0  0  0  0
 17 19  1  0  0  0  0
 17 20  1  0  0  0  0
 14 15  1  0  0  0  0
 14 16  1  0  0  0  0
 14 17  1  0  0  0  0
 11 12  1  0  0  0  0
 11 13  1  0  0  0  0
 11 14  1  0  0  0  0
  9 10  1  0  0  0  0
  9 11  1  0  0  0  0
  9 29  1  0  0  0  0
  7  8  1  0  0  0  0
  7  9  1  0  0  0  0
 33 34  1  0  0  0  0
 33 35  1  0  0  0  0
 33 36  1  0  0  0  0
 31 32  1  0  0  0  0
 31 33  1  0  0  0  0
M  CHG  1  20   1
M  END
$$$$
default_name
  -OEChem-01062215323D

 36 35  0     1  0  0  0  0  0999 V2000
   -4.2256   -3.6731    1.8584 H   0  0  0  0  0  0  0  0  0  0  0  0
   -4.2396   -2.6781    1.4144 C   0  0  0  0  0  0  0  0  0  0  0  0
   -4.9506   -2.0521    1.9514 H   0  0  0  0  0  0  0  0  0  0  0  0
   -4.5266   -2.7521    0.3674 H   0  0  0  0  0  0  0  0  0  0  0  0
   -2.8576   -2.0761    1.5184 C   0  0  0  0  0  0  0  0  0  0  0  0
   -1.9456   -2.7051    2.0404 O   0  0  0  0  0  0  0  0  0  0  0  0
   -2.6926   -0.8481    1.0174 N   0  0  0  0  0  0  0  0  0  0  0  0
   -3.4926   -0.3971    0.5954 H   0  0  0  0  0  0  0  0  0  0  0  0
   -1.4216   -0.1071    1.0434 C   0  0  1  0  0  0  0  0  0  0  0  0
   -0.6196   -0.7897    0.7577 H   0  0  0  0  0  0  0  0  0  0  0  0
   -1.4985    1.0301    0.0052 C   0  0  0  0  0  0  0  0  0  0  0  0
   -2.3954    1.6210    0.2015 H   0  0  0  0  0  0  0  0  0  0  0  0
   -0.6302    1.6818    0.1247 H   0  0  0  0  0  0  0  0  0  0  0  0
   -1.5580    0.5304   -1.4457 C   0  0  0  0  0  0  0  0  0  0  0  0
   -0.6654   -0.0547   -1.6712 H   0  0  0  0  0  0  0  0  0  0  0  0
   -2.4415   -0.0955   -1.5757 H   0  0  0  0  0  0  0  0  0  0  0  0
   -1.6325    1.7245   -2.4070 C   0  0  0  0  0  0  0  0  0  0  0  0
   -2.5141    2.3191   -2.1567 H   0  0  0  0  0  0  0  0  0  0  0  0
   -0.7407    2.3399   -2.2667 H   0  0  0  0  0  0  0  0  0  0  0  0
   -1.7155    1.2894   -3.8164 N   0  3  0  0  0  0  0  0  0  0  0  0
   -1.6674    0.2995   -3.9872 H   0  0  0  0  0  0  0  0  0  0  0  0
   -1.8469    2.0766   -4.8709 C   0  0  0  0  0  0  0  0  0  0  0  0
   -1.9187    3.3737   -4.7630 N   0  0  0  0  0  0  0  0  0  0  0  0
   -1.8741    3.7862   -3.8480 H   0  0  0  0  0  0  0  0  0  0  0  0
   -2.0179    3.9568   -5.5736 H   0  0  0  0  0  0  0  0  0  0  0  0
   -1.9082    1.5694   -6.0694 N   0  0  0  0  0  0  0  0  0  0  0  0
   -1.8573    0.5742   -6.2032 H   0  0  0  0  0  0  0  0  0  0  0  0
   -2.0080    2.1703   -6.8667 H   0  0  0  0  0  0  0  0  0  0  0  0
   -1.1395    0.4234    2.4506 C   0  0  0  0  0  0  0  0  0  0  0  0
    0.0185    0.5281    2.8369 O   0  0  0  0  0  0  0  0  0  0  0  0
   -2.1962    0.7168    3.2148 N   0  0  0  0  0  0  0  0  0  0  0  0
   -3.1118    0.6363    2.8036 H   0  0  0  0  0  0  0  0  0  0  0  0
   -2.1005    1.2348    4.5806 C   0  0  0  0  0  0  0  0  0  0  0  0
   -1.6208    2.2158    4.5707 H   0  0  0  0  0  0  0  0  0  0  0  0
   -3.0936    1.3290    5.0217 H   0  0  0  0  0  0  0  0  0  0  0  0
   -1.4968    0.5621    5.1937 H   0  0  0  0  0  0  0  0  0  0  0  0
  5  6  2  0  0  0  0
  5  7  1  0  0  0  0
  2  3  1  0  0  0  0
  2  4  1  0  0  0  0
  2  5  1  0  0  0  0
  1  2  1  0  0  0  0
 29 30  2  0  0  0  0
 29 31  1  0  0  0  0
 26 27  1  0  0  0  0
 26 28  1  0  0  0  0
 23 24  1  0  0  0  0
 23 25  1  0  0  0  0
 22 23  1  0  0  0  0
 22 26  1  0  0  0  0
 20 21  1  0  0  0  0
 20 22  2  0  0  0  0
 17 18  1  0  0  0  0
 17 19  1  0  0  0  0
 17 20  1  0  0  0  0
 14 15  1  0  0  0  0
 14 16  1  0  0  0  0
 14 17  1  0  0  0  0
 11 12  1  0  0  0  0
 11 13  1  0  0  0  0
 11 14  1  0  0  0  0
  9 10  1  0  0  0  0
  9 11  1  0  0  0  0
  9 29  1  0  0  0  0
  7  8  1  0  0  0  0
  7  9  1  0  0  0  0
 33 34  1  0  0  0  0
 33 35  1  0  0  0  0
 33 36  1  0  0  0  0
 31 32  1  0  0  0  0
 31 33  1  0  0  0  0
M  CHG  1  20   1
M  END
$$$$
default_name
  -OEChem-01062215323D

 36 35  0     1  0  0  0  0  0999 V2000
   -4.2256   -3.6731    1.8584 H   0  0  0  0  0  0  0  0  0  0  0  0
   -4.2396   -2.6781    1.4144 C   0  0  0  0  0  0  0  0  0  0  0  0
   -4.9506   -2.0521    1.9514 H   0  0  0  0  0  0  0  0  0  0  0  0
   -4.5266   -2.7521    0.3674 H   0  0  0  0  0  0  0  0  0  0  0  0
   -2.8576   -2.0761    1.5184 C   0  0  0  0  0  0  0  0  0  0  0  0
   -1.9456   -2.7051    2.0404 O   0  0  0  0  0  0  0  0  0  0  0  0
   -2.6926   -0.8481    1.0174 N   0  0  0  0  0  0  0  0  0  0  0  0
   -3.4926   -0.3971    0.5954 H   0  0  0  0  0  0  0  0  0  0  0  0
   -1.4216   -0.1071    1.0434 C   0  0  1  0  0  0  0  0  0  0  0  0
   -0.6196   -0.7897    0.7577 H   0  0  0  0  0  0  0  0  0  0  0  0
   -1.4985    1.0301    0.0052 C   0  0  0  0  0  0  0  0  0  0  0  0
   -2.3954    1.6210    0.2015 H   0  0  0  0  0  0  0  0  0  0  0  0
   -0.6302    1.6818    0.1247 H   0  0  0  0  0  0  0  0  0  0  0  0
   -1.5580    0.5304   -1.4457 C   0  0  0  0  0  0  0  0  0  0  0  0
   -0.6654   -0.0547   -1.6712 H   0  0  0  0  0  0  0  0  0  0  0  0
   -2.4415   -0.0955   -1.5757 H   0  0  0  0  0  0  0  0  0  0  0  0
   -1.6325    1.7245   -2.4070 C   0  0  0  0  0  0  0  0  0  0  0  0
   -2.5141    2.3191   -2.1567 H   0  0  0  0  0  0  0  0  0  0  0  0
   -0.7407    2.3399   -2.2667 H   0  0  0  0  0  0  0  0  0  0  0  0
   -1.7155    1.2894   -3.8164 N   0  3  0  0  0  0  0  0  0  0  0  0
   -1.6674    0.2995   -3.9872 H   0  0  0  0  0  0  0  0  0  0  0  0
   -1.8469    2.0766   -4.8709 C   0  0  0  0  0  0  0  0  0  0  0  0
   -1.9187    3.3737   -4.7630 N   0  0  0  0  0  0  0  0  0  0  0  0
   -1.8741    3.7862   -3.8480 H   0  0  0  0  0  0  0  0  0  0  0  0
   -2.0179    3.9568   -5.5736 H   0  0  0  0  0  0  0  0  0  0  0  0
   -1.9082    1.5694   -6.0694 N   0  0  0  0  0  0  0  0  0  0  0  0
   -1.8573    0.5742   -6.2032 H   0  0  0  0  0  0  0  0  0  0  0  0
   -2.0080    2.1703   -6.8667 H   0  0  0  0  0  0  0  0  0  0  0  0
   -1.1395    0.4234    2.4506 C   0  0  0  0  0  0  0  0  0  0  0  0
   -0.0074    0.7889    2.7438 O   0  0  0  0  0  0  0  0  0  0  0  0
   -2.1576    0.4260    3.3167 N   0  0  0  0  0  0  0  0  0  0  0  0
   -3.0634    0.1431    2.9799 H   0  0  0  0  0  0  0  0  0  0  0  0
   -2.0568    0.9011    4.6976 C   0  0  0  0  0  0  0  0  0  0  0  0
   -1.8252    1.9683    4.7050 H   0  0  0  0  0  0  0  0  0  0  0  0
   -2.9973    0.7377    5.2254 H   0  0  0  0  0  0  0  0  0  0  0  0
   -1.2558    0.3710    5.2175 H   0  0  0  0  0  0  0  0  0  0  0  0
  5  6  2  0  0  0  0
  5  7  1  0  0  0  0
  2  3  1  0  0  0  0
  2  4  1  0  0  0  0
  2  5  1  0  0  0  0
  1  2  1  0  0  0  0
 29 30  2  0  0  0  0
 29 31  1  0  0  0  0
 26 27  1  0  0  0  0
 26 28  1  0  0  0  0
 23 24  1  0  0  0  0
 23 25  1  0  0  0  0
 22 23  1  0  0  0  0
 22 26  1  0  0  0  0
 20 21  1  0  0  0  0
 20 22  2  0  0  0  0
 17 18  1  0  0  0  0
 17 19  1  0  0  0  0
 17 20  1  0  0  0  0
 14 15  1  0  0  0  0
 14 16  1  0  0  0  0
 14 17  1  0  0  0  0
 11 12  1  0  0  0  0
 11 13  1  0  0  0  0
 11 14  1  0  0  0  0
  9 10  1  0  0  0  0
  9 11  1  0  0  0  0
  9 29  1  0  0  0  0
  7  8  1  0  0  0  0
  7  9  1  0  0  0  0
 33 34  1  0  0  0  0
 33 35  1  0  0  0  0
 33 36  1  0  0  0  0
 31 32  1  0  0  0  0
 31 33  1  0  0  0  0
M  CHG  1  20   1
M  END
$$$$
default_name
  -OEChem-01062215323D

 36 35  0     1  0  0  0  0  0999 V2000
   -4.2256   -3.6731    1.8584 H   0  0  0  0  0  0  0  0  0  0  0  0
   -4.2396   -2.6781    1.4144 C   0  0  0  0  0  0  0  0  0  0  0  0
   -4.9506   -2.0521    1.9514 H   0  0  0  0  0  0  0  0  0  0  0  0
   -4.5266   -2.7521    0.3674 H   0  0  0  0  0  0  0  0  0  0  0  0
   -2.8576   -2.0761    1.5184 C   0  0  0  0  0  0  0  0  0  0  0  0
   -1.9456   -2.7051    2.0404 O   0  0  0  0  0  0  0  0  0  0  0  0
   -2.6926   -0.8481    1.0174 N   0  0  0  0  0  0  0  0  0  0  0  0
   -3.4926   -0.3971    0.5954 H   0  0  0  0  0  0  0  0  0  0  0  0
   -1.4216   -0.1071    1.0434 C   0  0  1  0  0  0  0  0  0  0  0  0
   -0.6196   -0.7897    0.7577 H   0  0  0  0  0  0  0  0  0  0  0  0
   -1.4985    1.0301    0.0052 C   0  0  0  0  0  0  0  0  0  0  0  0
   -2.3954    1.6210    0.2015 H   0  0  0  0  0  0  0  0  0  0  0  0
   -0.6302    1.6818    0.1247 H   0  0  0  0  0  0  0  0  0  0  0  0
   -1.5580    0.5304   -1.4457 C   0  0  0  0  0  0  0  0  0  0  0  0
   -0.6654   -0.0547   -1.6712 H   0  0  0  0  0  0  0  0  0  0  0  0
   -2.4415   -0.0955   -1.5757 H   0  0  0  0  0  0  0  0  0  0  0  0
   -1.6325    1.7245   -2.4070 C   0  0  0  0  0  0  0  0  0  0  0  0
   -2.5141    2.3191   -2.1567 H   0  0  0  0  0  0  0  0  0  0  0  0
   -0.7407    2.3399   -2.2667 H   0  0  0  0  0  0  0  0  0  0  0  0
   -1.7155    1.2894   -3.8164 N   0  3  0  0  0  0  0  0  0  0  0  0
   -1.6674    0.2995   -3.9872 H   0  0  0  0  0  0  0  0  0  0  0  0
   -1.8469    2.0766   -4.8709 C   0  0  0  0  0  0  0  0  0  0  0  0
   -1.9187    3.3737   -4.7630 N   0  0  0  0  0  0  0  0  0  0  0  0
   -1.8741    3.7862   -3.8480 H   0  0  0  0  0  0  0  0  0  0  0  0
   -2.0179    3.9568   -5.5736 H   0  0  0  0  0  0  0  0  0  0  0  0
   -1.9082    1.5694   -6.0694 N   0  0  0  0  0  0  0  0  0  0  0  0
   -1.8573    0.5742   -6.2032 H   0  0  0  0  0  0  0  0  0  0  0  0
   -2.0080    2.1703   -6.8667 H   0  0  0  0  0  0  0  0  0  0  0  0
   -1.1395    0.4234    2.4506 C   0  0  0  0  0  0  0  0  0  0  0  0
   -0.1029    1.0391    2.6686 O   0  0  0  0  0  0  0  0  0  0  0  0
   -2.0420    0.1494    3.3978 N   0  0  0  0  0  0  0  0  0  0  0  0
   -2.8834   -0.3301    3.1222 H   0  0  0  0  0  0  0  0  0  0  0  0
   -1.9246    0.5837    4.7908 C   0  0  0  0  0  0  0  0  0  0  0  0
   -1.9517    1.6742    4.8412 H   0  0  0  0  0  0  0  0  0  0  0  0
   -2.7452    0.1798    5.3852 H   0  0  0  0  0  0  0  0  0  0  0  0
   -0.9753    0.2427    5.2096 H   0  0  0  0  0  0  0  0  0  0  0  0
  5  6  2  0  0  0  0
  5  7  1  0  0  0  0
  2  3  1  0  0  0  0
  2  4  1  0  0  0  0
  2  5  1  0  0  0  0
  1  2  1  0  0  0  0
 29 30  2  0  0  0  0
 29 31  1  0  0  0  0
 26 27  1  0  0  0  0
 26 28  1  0  0  0  0
 23 24  1  0  0  0  0
 23 25  1  0  0  0  0
 22 23  1  0  0  0  0
 22 26  1  0  0  0  0
 20 21  1  0  0  0  0
 20 22  2  0  0  0  0
 17 18  1  0  0  0  0
 17 19  1  0  0  0  0
 17 20  1  0  0  0  0
 14 15  1  0  0  0  0
 14 16  1  0  0  0  0
 14 17  1  0  0  0  0
 11 12  1  0  0  0  0
 11 13  1  0  0  0  0
 11 14  1  0  0  0  0
  9 10  1  0  0  0  0
  9 11  1  0  0  0  0
  9 29  1  0  0  0  0
  7  8  1  0  0  0  0
  7  9  1  0  0  0  0
 33 34  1  0  0  0  0
 33 35  1  0  0  0  0
 33 36  1  0  0  0  0
 31 32  1  0  0  0  0
 31 33  1  0  0  0  0
M  CHG  1  20   1
M  END
$$$$
default_name
  -OEChem-01062215323D

 36 35  0     1  0  0  0  0  0999 V2000
   -4.2256   -3.6731    1.8584 H   0  0  0  0  0  0  0  0  0  0  0  0
   -4.2396   -2.6781    1.4144 C   0  0  0  0  0  0  0  0  0  0  0  0
   -4.9506   -2.0521    1.9514 H   0  0  0  0  0  0  0  0  0  0  0  0
   -4.5266   -2.7521    0.3674 H   0  0  0  0  0  0  0  0  0  0  0  0
   -2.8576   -2.0761    1.5184 C   0  0  0  0  0  0  0  0  0  0  0  0
   -1.9456   -2.7051    2.0404 O   0  0  0  0  0  0  0  0  0  0  0  0
   -2.6926   -0.8481    1.0174 N   0  0  0  0  0  0  0  0  0  0  0  0
   -3.4926   -0.3971    0.5954 H   0  0  0  0  0  0  0  0  0  0  0  0
   -1.4216   -0.1071    1.0434 C   0  0  1  0  0  0  0  0  0  0  0  0
   -0.6196   -0.7897    0.7577 H   0  0  0  0  0  0  0  0  0  0  0  0
   -1.4985    1.0301    0.0052 C   0  0  0  0  0  0  0  0  0  0  0  0
   -2.3954    1.6210    0.2015 H   0  0  0  0  0  0  0  0  0  0  0  0
   -0.6302    1.6818    0.1247 H   0  0  0  0  0  0  0  0  0  0  0  0
   -1.5580    0.5304   -1.4457 C   0  0  0  0  0  0  0  0  0  0  0  0
   -0.6654   -0.0547   -1.6712 H   0  0  0  0  0  0  0  0  0  0  0  0
   -2.4415   -0.0955   -1.5757 H   0  0  0  0  0  0  0  0  0  0  0  0
   -1.6325    1.7245   -2.4070 C   0  0  0  0  0  0  0  0  0  0  0  0
   -2.5141    2.3191   -2.1567 H   0  0  0  0  0  0  0  0  0  0  0  0
   -0.7407    2.3399   -2.2667 H   0  0  0  0  0  0  0  0  0  0  0  0
   -1.7155    1.2894   -3.8164 N   0  3  0  0  0  0  0  0  0  0  0  0
   -1.6674    0.2995   -3.9872 H   0  0  0  0  0  0  0  0  0  0  0  0
   -1.8469    2.0766   -4.8709 C   0  0  0  0  0  0  0  0  0  0  0  0
   -1.9187    3.3737   -4.7630 N   0  0  0  0  0  0  0  0  0  0  0  0
   -1.8741    3.7862   -3.8480 H   0  0  0  0  0  0  0  0  0  0  0  0
   -2.0179    3.9568   -5.5736 H   0  0  0  0  0  0  0  0  0  0  0  0
   -1.9082    1.5694   -6.0694 N   0  0  0  0  0  0  0  0  0  0  0  0
   -1.8573    0.5742   -6.2032 H   0  0  0  0  0  0  0  0  0  0  0  0
   -2.0080    2.1703   -6.8667 H   0  0  0  0  0  0  0  0  0  0  0  0
   -1.1395    0.4234    2.4506 C   0  0  0  0  0  0  0  0  0  0  0  0
   -0.2614    1.2616    2.6165 O   0  0  0  0  0  0  0  0  0  0  0  0
   -1.8572   -0.0940    3.4525 N   0  0  0  0  0  0  0  0  0  0  0  0
   -2.5841   -0.7512    3.2210 H   0  0  0  0  0  0  0  0  0  0  0  0
   -1.7130    0.3040    4.8538 C   0  0  0  0  0  0  0  0  0  0  0  0
   -1.9916    1.3536    4.9701 H   0  0  0  0  0  0  0  0  0  0  0  0
   -2.3546   -0.3067    5.4903 H   0  0  0  0  0  0  0  0  0  0  0  0
   -0.6746    0.1859    5.1707 H   0  0  0  0  0  0  0  0  0  0  0  0
  5  6  2  0  0  0  0
  5  7  1  0  0  0  0
  2  3  1  0  0  0  0
  2  4  1  0  0  0  0
  2  5  1  0  0  0  0
  1  2  1  0  0  0  0
 29 30  2  0  0  0  0
 29 31  1  0  0  0  0
 26 27  1  0  0  0  0
 26 28  1  0  0  0  0
 23 24  1  0  0  0  0
 23 25  1  0  0  0  0
 22 23  1  0  0  0  0
 22 26  1  0  0  0  0
 20 21  1  0  0  0  0
 20 22  2  0  0  0  0
 17 18  1  0  0  0  0
 17 19  1  0  0  0  0
 17 20  1  0  0  0  0
 14 15  1  0  0  0  0
 14 16  1  0  0  0  0
 14 17  1  0  0  0  0
 11 12  1  0  0  0  0
 11 13  1  0  0  0  0
 11 14  1  0  0  0  0
  9 10  1  0  0  0  0
  9 11  1  0  0  0  0
  9 29  1  0  0  0  0
  7  8  1  0  0  0  0
  7  9  1  0  0  0  0
 33 34  1  0  0  0  0
 33 35  1  0  0  0  0
 33 36  1  0  0  0  0
 31 32  1  0  0  0  0
 31 33  1  0  0  0  0
M  CHG  1  20   1
M  END
$$$$
default_name
  -OEChem-01062215323D

 36 35  0     1  0  0  0  0  0999 V2000
   -4.2256   -3.6731    1.8584 H   0  0  0  0  0  0  0  0  0  0  0  0
   -4.2396   -2.6781    1.4144 C   0  0  0  0  0  0  0  0  0  0  0  0
   -4.9506   -2.0521    1.9514 H   0  0  0  0  0  0  0  0  0  0  0  0
   -4.5266   -2.7521    0.3674 H   0  0  0  0  0  0  0  0  0  0  0  0
   -2.8576   -2.0761    1.5184 C   0  0  0  0  0  0  0  0  0  0  0  0
   -1.9456   -2.7051    2.0404 O   0  0  0  0  0  0  0  0  0  0  0  0
   -2.6926   -0.8481    1.0174 N   0  0  0  0  0  0  0  0  0  0  0  0
   -3.4926   -0.3971    0.5954 H   0  0  0  0  0  0  0  0  0  0  0  0
   -1.4216   -0.1071    1.0434 C   0  0  1  0  0  0  0  0  0  0  0  0
   -0.6196   -0.7897    0.7577 H   0  0  0  0  0  0  0  0  0  0  0  0
   -1.4985    1.0301    0.0052 C   0  0  0  0  0  0  0  0  0  0  0  0
   -2.3954    1.6210    0.2015 H   0  0  0  0  0  0  0  0  0  0  0  0
   -0.6302    1.6818    0.1247 H   0  0  0  0  0  0  0  0  0  0  0  0
   -1.5580    0.5304   -1.4457 C   0  0  0  0  0  0  0  0  0  0  0  0
   -0.6654   -0.0547   -1.6712 H   0  0  0  0  0  0  0  0  0  0  0  0
   -2.4415   -0.0955   -1.5757 H   0  0  0  0  0  0  0  0  0  0  0  0
   -1.6325    1.7245   -2.4070 C   0  0  0  0  0  0  0  0  0  0  0  0
   -2.5141    2.3191   -2.1567 H   0  0  0  0  0  0  0  0  0  0  0  0
   -0.7407    2.3399   -2.2667 H   0  0  0  0  0  0  0  0  0  0  0  0
   -1.7155    1.2894   -3.8164 N   0  3  0  0  0  0  0  0  0  0  0  0
   -1.6674    0.2995   -3.9872 H   0  0  0  0  0  0  0  0  0  0  0  0
   -1.8469    2.0766   -4.8709 C   0  0  0  0  0  0  0  0  0  0  0  0
   -1.9187    3.3737   -4.7630 N   0  0  0  0  0  0  0  0  0  0  0  0
   -1.8741    3.7862   -3.8480 H   0  0  0  0  0  0  0  0  0  0  0  0
   -2.0179    3.9568   -5.5736 H   0  0  0  0  0  0  0  0  0  0  0  0
   -1.9082    1.5694   -6.0694 N   0  0  0  0  0  0  0  0  0  0  0  0
   -1.8573    0.5742   -6.2032 H   0  0  0  0  0  0  0  0  0  0  0  0
   -2.0080    2.1703   -6.8667 H   0  0  0  0  0  0  0  0  0  0  0  0
   -1.1395    0.4234    2.4506 C   0  0  0  0  0  0  0  0  0  0  0  0
   -0.4721    1.4413    2.5910 O   0  0  0  0  0  0  0  0  0  0  0  0
   -1.6158   -0.2879    3.4772 N   0  0  0  0  0  0  0  0  0  0  0  0
   -2.1860   -1.0914    3.2694 H   0  0  0  0  0  0  0  0  0  0  0  0
   -1.4365    0.0813    4.8823 C   0  0  0  0  0  0  0  0  0  0  0  0
   -1.9423    1.0281    5.0829 H   0  0  0  0  0  0  0  0  0  0  0  0
   -1.8520   -0.6888    5.5336 H   0  0  0  0  0  0  0  0  0  0  0  0
   -0.3740    0.2044    5.1035 H   0  0  0  0  0  0  0  0  0  0  0  0
  5  6  2  0  0  0  0
  5  7  1  0  0  0  0
  2  3  1  0  0  0  0
  2  4  1  0  0  0  0
  2  5  1  0  0  0  0
  1  2  1  0  0  0  0
 29 30  2  0  0  0  0
 29 31  1  0  0  0  0
 26 27  1  0  0  0  0
 26 28  1  0  0  0  0
 23 24  1  0  0  0  0
 23 25  1  0  0  0  0
 22 23  1  0  0  0  0
 22 26  1  0  0  0  0
 20 21  1  0  0  0  0
 20 22  2  0  0  0  0
 17 18  1  0  0  0  0
 17 19  1  0  0  0  0
 17 20  1  0  0  0  0
 14 15  1  0  0  0  0
 14 16  1  0  0  0  0
 14 17  1  0  0  0  0
 11 12  1  0  0  0  0
 11 13  1  0  0  0  0
 11 14  1  0  0  0  0
  9 10  1  0  0  0  0
  9 11  1  0  0  0  0
  9 29  1  0  0  0  0
  7  8  1  0  0  0  0
  7  9  1  0  0  0  0
 33 34  1  0  0  0  0
 33 35  1  0  0  0  0
 33 36  1  0  0  0  0
 31 32  1  0  0  0  0
 31 33  1  0  0  0  0
M  CHG  1  20   1
M  END
$$$$
default_name
  -OEChem-01062215323D

 36 35  0     1  0  0  0  0  0999 V2000
   -4.2256   -3.6731    1.8584 H   0  0  0  0  0  0  0  0  0  0  0  0
   -4.2396   -2.6781    1.4144 C   0  0  0  0  0  0  0  0  0  0  0  0
   -4.9506   -2.0521    1.9514 H   0  0  0  0  0  0  0  0  0  0  0  0
   -4.5266   -2.7521    0.3674 H   0  0  0  0  0  0  0  0  0  0  0  0
   -2.8576   -2.0761    1.5184 C   0  0  0  0  0  0  0  0  0  0  0  0
   -1.9456   -2.7051    2.0404 O   0  0  0  0  0  0  0  0  0  0  0  0
   -2.6926   -0.8481    1.0174 N   0  0  0  0  0  0  0  0  0  0  0  0
   -3.4926   -0.3971    0.5954 H   0  0  0  0  0  0  0  0  0  0  0  0
   -1.4216   -0.1071    1.0434 C   0  0  1  0  0  0  0  0  0  0  0  0
   -0.6196   -0.7897    0.7577 H   0  0  0  0  0  0  0  0  0  0  0  0
   -1.4985    1.0301    0.0052 C   0  0  0  0  0  0  0  0  0  0  0  0
   -2.3954    1.6210    0.2015 H   0  0  0  0  0  0  0  0  0  0  0  0
   -0.6302    1.6818    0.1247 H   0  0  0  0  0  0  0  0  0  0  0  0
   -1.5580    0.5304   -1.4457 C   0  0  0  0  0  0  0  0  0  0  0  0
   -0.6654   -0.0547   -1.6712 H   0  0  0  0  0  0  0  0  0  0  0  0
   -2.4415   -0.0955   -1.5757 H   0  0  0  0  0  0  0  0  0  0  0  0
   -1.6325    1.7245   -2.4070 C   0  0  0  0  0  0  0  0  0  0  0  0
   -2.5141    2.3191   -2.1567 H   0  0  0  0  0  0  0  0  0  0  0  0
   -0.7407    2.3399   -2.2667 H   0  0  0  0  0  0  0  0  0  0  0  0
   -1.7155    1.2894   -3.8164 N   0  3  0  0  0  0  0  0  0  0  0  0
   -1.6674    0.2995   -3.9872 H   0  0  0  0  0  0  0  0  0  0  0  0
   -1.8469    2.0766   -4.8709 C   0  0  0  0  0  0  0  0  0  0  0  0
   -1.9187    3.3737   -4.7630 N   0  0  0  0  0  0  0  0  0  0  0  0
   -1.8741    3.7862   -3.8480 H   0  0  0  0  0  0  0  0  0  0  0  0
   -2.0179    3.9568   -5.5736 H   0  0  0  0  0  0  0  0  0  0  0  0
   -1.9082    1.5694   -6.0694 N   0  0  0  0  0  0  0  0  0  0  0  0
   -1.8573    0.5742   -6.2032 H   0  0  0  0  0  0  0  0  0  0  0  0
   -2.0080    2.1703   -6.8667 H   0  0  0  0  0  0  0  0  0  0  0  0
   -1.1395    0.4234    2.4506 C   0  0  0  0  0  0  0  0  0  0  0  0
   -0.7208    1.5659    2.5939 O   0  0  0  0  0  0  0  0  0  0  0  0
   -1.3344   -0.4188    3.4701 N   0  0  0  0  0  0  0  0  0  0  0  0
   -1.7161   -1.3275    3.2642 H   0  0  0  0  0  0  0  0  0  0  0  0
   -1.1137   -0.0694    4.8745 C   0  0  0  0  0  0  0  0  0  0  0  0
   -1.8070    0.7202    5.1719 H   0  0  0  0  0  0  0  0  0  0  0  0
   -1.2718   -0.9402    5.5121 H   0  0  0  0  0  0  0  0  0  0  0  0
   -0.0942    0.2971    5.0125 H   0  0  0  0  0  0  0  0  0  0  0  0
  5  6  2  0  0  0  0
  5  7  1  0  0  0  0
  2  3  1  0  0  0  0
  2  4  1  0  0  0  0
  2  5  1  0  0  0  0
  1  2  1  0  0  0  0
 29 30  2  0  0  0  0
 29 31  1  0  0  0  0
 26 27  1  0  0  0  0
 26 28  1  0  0  0  0
 23 24  1  0  0  0  0
 23 25  1  0  0  0  0
 22 23  1  0  0  0  0
 22 26  1  0  0  0  0
 20 21  1  0  0  0  0
 20 22  2  0  0  0  0
 17 18  1  0  0  0  0
 17 19  1  0  0  0  0
 17 20  1  0  0  0  0
 14 15  1  0  0  0  0
 14 16  1  0  0  0  0
 14 17  1  0  0  0  0
 11 12  1  0  0  0  0
 11 13  1  0  0  0  0
 11 14  1  0  0  0  0
  9 10  1  0  0  0  0
  9 11  1  0  0  0  0
  9 29  1  0  0  0  0
  7  8  1  0  0  0  0
  7  9  1  0  0  0  0
 33 34  1  0  0  0  0
 33 35  1  0  0  0  0
 33 36  1  0  0  0  0
 31 32  1  0  0  0  0
 31 33  1  0  0  0  0
M  CHG  1  20   1
M  END
$$$$
default_name
  -OEChem-01062215323D

 36 35  0     1  0  0  0  0  0999 V2000
   -4.2256   -3.6731    1.8584 H   0  0  0  0  0  0  0  0  0  0  0  0
   -4.2396   -2.6781    1.4144 C   0  0  0  0  0  0  0  0  0  0  0  0
   -4.9506   -2.0521    1.9514 H   0  0  0  0  0  0  0  0  0  0  0  0
   -4.5266   -2.7521    0.3674 H   0  0  0  0  0  0  0  0  0  0  0  0
   -2.8576   -2.0761    1.5184 C   0  0  0  0  0  0  0  0  0  0  0  0
   -1.9456   -2.7051    2.0404 O   0  0  0  0  0  0  0  0  0  0  0  0
   -2.6926   -0.8481    1.0174 N   0  0  0  0  0  0  0  0  0  0  0  0
   -3.4926   -0.3971    0.5954 H   0  0  0  0  0  0  0  0  0  0  0  0
   -1.4216   -0.1071    1.0434 C   0  0  1  0  0  0  0  0  0  0  0  0
   -0.6196   -0.7897    0.7577 H   0  0  0  0  0  0  0  0  0  0  0  0
   -1.4985    1.0301    0.0052 C   0  0  0  0  0  0  0  0  0  0  0  0
   -2.3954    1.6210    0.2015 H   0  0  0  0  0  0  0  0  0  0  0  0
   -0.6302    1.6818    0.1247 H   0  0  0  0  0  0  0  0  0  0  0  0
   -1.5580    0.5304   -1.4457 C   0  0  0  0  0  0  0  0  0  0  0  0
   -0.6654   -0.0547   -1.6712 H   0  0  0  0  0  0  0  0  0  0  0  0
   -2.4415   -0.0955   -1.5757 H   0  0  0  0  0  0  0  0  0  0  0  0
   -1.6325    1.7245   -2.4070 C   0  0  0  0  0  0  0  0  0  0  0  0
   -2.5141    2.3191   -2.1567 H   0  0  0  0  0  0  0  0  0  0  0  0
   -0.7407    2.3399   -2.2667 H   0  0  0  0  0  0  0  0  0  0  0  0
   -1.7155    1.2894   -3.8164 N   0  3  0  0  0  0  0  0  0  0  0  0
   -1.6674    0.2995   -3.9872 H   0  0  0  0  0  0  0  0  0  0  0  0
   -1.8469    2.0766   -4.8709 C   0  0  0  0  0  0  0  0  0  0  0  0
   -1.9187    3.3737   -4.7630 N   0  0  0  0  0  0  0  0  0  0  0  0
   -1.8741    3.7862   -3.8480 H   0  0  0  0  0  0  0  0  0  0  0  0
   -2.0179    3.9568   -5.5736 H   0  0  0  0  0  0  0  0  0  0  0  0
   -1.9082    1.5694   -6.0694 N   0  0  0  0  0  0  0  0  0  0  0  0
   -1.8573    0.5742   -6.2032 H   0  0  0  0  0  0  0  0  0  0  0  0
   -2.0080    2.1703   -6.8667 H   0  0  0  0  0  0  0  0  0  0  0  0
   -1.1395    0.4234    2.4506 C   0  0  0  0  0  0  0  0  0  0  0  0
   -0.9903    1.6269    2.6249 O   0  0  0  0  0  0  0  0  0  0  0  0
   -1.0319   -0.4779    3.4318 N   0  0  0  0  0  0  0  0  0  0  0  0
   -1.2064   -1.4435    3.2058 H   0  0  0  0  0  0  0  0  0  0  0  0
   -0.7668   -0.1378    4.8307 C   0  0  0  0  0  0  0  0  0  0  0  0
   -1.5951    0.4506    5.2310 H   0  0  0  0  0  0  0  0  0  0  0  0
   -0.6534   -1.0439    5.4272 H   0  0  0  0  0  0  0  0  0  0  0  0
    0.1459    0.4575    4.9038 H   0  0  0  0  0  0  0  0  0  0  0  0
  5  6  2  0  0  0  0
  5  7  1  0  0  0  0
  2  3  1  0  0  0  0
  2  4  1  0  0  0  0
  2  5  1  0  0  0  0
  1  2  1  0  0  0  0
 29 30  2  0  0  0  0
 29 31  1  0  0  0  0
 26 27  1  0  0  0  0
 26 28  1  0  0  0  0
 23 24  1  0  0  0  0
 23 25  1  0  0  0  0
 22 23  1  0  0  0  0
 22 26  1  0  0  0  0
 20 21  1  0  0  0  0
 20 22  2  0  0  0  0
 17 18  1  0  0  0  0
 17 19  1  0  0  0  0
 17 20  1  0  0  0  0
 14 15  1  0  0  0  0
 14 16  1  0  0  0  0
 14 17  1  0  0  0  0
 11 12  1  0  0  0  0
 11 13  1  0  0  0  0
 11 14  1  0  0  0  0
  9 10  1  0  0  0  0
  9 11  1  0  0  0  0
  9 29  1  0  0  0  0
  7  8  1  0  0  0  0
  7  9  1  0  0  0  0
 33 34  1  0  0  0  0
 33 35  1  0  0  0  0
 33 36  1  0  0  0  0
 31 32  1  0  0  0  0
 31 33  1  0  0  0  0
M  CHG  1  20   1
M  END
$$$$
default_name
  -OEChem-01062215323D

 36 35  0     1  0  0  0  0  0999 V2000
   -4.2256   -3.6731    1.8584 H   0  0  0  0  0  0  0  0  0  0  0  0
   -4.2396   -2.6781    1.4144 C   0  0  0  0  0  0  0  0  0  0  0  0
   -4.9506   -2.0521    1.9514 H   0  0  0  0  0  0  0  0  0  0  0  0
   -4.5266   -2.7521    0.3674 H   0  0  0  0  0  0  0  0  0  0  0  0
   -2.8576   -2.0761    1.5184 C   0  0  0  0  0  0  0  0  0  0  0  0
   -1.9456   -2.7051    2.0404 O   0  0  0  0  0  0  0  0  0  0  0  0
   -2.6926   -0.8481    1.0174 N   0  0  0  0  0  0  0  0  0  0  0  0
   -3.4926   -0.3971    0.5954 H   0  0  0  0  0  0  0  0  0  0  0  0
   -1.4216   -0.1071    1.0434 C   0  0  1  0  0  0  0  0  0  0  0  0
   -0.6196   -0.7897    0.7577 H   0  0  0  0  0  0  0  0  0  0  0  0
   -1.4985    1.0301    0.0052 C   0  0  0  0  0  0  0  0  0  0  0  0
   -2.3954    1.6210    0.2015 H   0  0  0  0  0  0  0  0  0  0  0  0
   -0.6302    1.6818    0.1247 H   0  0  0  0  0  0  0  0  0  0  0  0
   -1.5580    0.5304   -1.4457 C   0  0  0  0  0  0  0  0  0  0  0  0
   -0.6654   -0.0547   -1.6712 H   0  0  0  0  0  0  0  0  0  0  0  0
   -2.4415   -0.0955   -1.5757 H   0  0  0  0  0  0  0  0  0  0  0  0
   -1.6325    1.7245   -2.4070 C   0  0  0  0  0  0  0  0  0  0  0  0
   -2.5141    2.3191   -2.1567 H   0  0  0  0  0  0  0  0  0  0  0  0
   -0.7407    2.3399   -2.2667 H   0  0  0  0  0  0  0  0  0  0  0  0
   -1.7155    1.2894   -3.8164 N   0  3  0  0  0  0  0  0  0  0  0  0
   -1.6674    0.2995   -3.9872 H   0  0  0  0  0  0  0  0  0  0  0  0
   -1.8469    2.0766   -4.8709 C   0  0  0  0  0  0  0  0  0  0  0  0
   -1.9187    3.3737   -4.7630 N   0  0  0  0  0  0  0  0  0  0  0  0
   -1.8741    3.7862   -3.8480 H   0  0  0  0  0  0  0  0  0  0  0  0
   -2.0179    3.9568   -5.5736 H   0  0  0  0  0  0  0  0  0  0  0  0
   -1.9082    1.5694   -6.0694 N   0  0  0  0  0  0  0  0  0  0  0  0
   -1.8573    0.5742   -6.2032 H   0  0  0  0  0  0  0  0  0  0  0  0
   -2.0080    2.1703   -6.8667 H   0  0  0  0  0  0  0  0  0  0  0  0
   -1.1395    0.4234    2.4506 C   0  0  0  0  0  0  0  0  0  0  0  0
   -1.2624    1.6202    2.6819 O   0  0  0  0  0  0  0  0  0  0  0  0
   -0.7292   -0.4612    3.3648 N   0  0  0  0  0  0  0  0  0  0  0  0
   -0.6918   -1.4315    3.0981 H   0  0  0  0  0  0  0  0  0  0  0  0
   -0.4194   -0.1192    4.7540 C   0  0  0  0  0  0  0  0  0  0  0  0
   -1.3210    0.2379    5.2563 H   0  0  0  0  0  0  0  0  0  0  0  0
   -0.0391   -0.9929    5.2848 H   0  0  0  0  0  0  0  0  0  0  0  0
    0.3299    0.6749    4.7850 H   0  0  0  0  0  0  0  0  0  0  0  0
  5  6  2  0  0  0  0
  5  7  1  0  0  0  0
  2  3  1  0  0  0  0
  2  4  1  0  0  0  0
  2  5  1  0  0  0  0
  1  2  1  0  0  0  0
 29 30  2  0  0  0  0
 29 31  1  0  0  0  0
 26 27  1  0  0  0  0
 26 28  1  0  0  0  0
 23 24  1  0  0  0  0
 23 25  1  0  0  0  0
 22 23  1  0  0  0  0
 22 26  1  0  0  0  0
 20 21  1  0  0  0  0
 20 22  2  0  0  0  0
 17 18  1  0  0  0  0
 17 19  1  0  0  0  0
 17 20  1  0  0  0  0
 14 15  1  0  0  0  0
 14 16  1  0  0  0  0
 14 17  1  0  0  0  0
 11 12  1  0  0  0  0
 11 13  1  0  0  0  0
 11 14  1  0  0  0  0
  9 10  1  0  0  0  0
  9 11  1  0  0  0  0
  9 29  1  0  0  0  0
  7  8  1  0  0  0  0
  7  9  1  0  0  0  0
 33 34  1  0  0  0  0
 33 35  1  0  0  0  0
 33 36  1  0  0  0  0
 31 32  1  0  0  0  0
 31 33  1  0  0  0  0
M  CHG  1  20   1
M  END
$$$$
default_name
  -OEChem-01062215323D

 36 35  0     1  0  0  0  0  0999 V2000
   -4.2256   -3.6731    1.8584 H   0  0  0  0  0  0  0  0  0  0  0  0
   -4.2396   -2.6781    1.4144 C   0  0  0  0  0  0  0  0  0  0  0  0
   -4.9506   -2.0521    1.9514 H   0  0  0  0  0  0  0  0  0  0  0  0
   -4.5266   -2.7521    0.3674 H   0  0  0  0  0  0  0  0  0  0  0  0
   -2.8576   -2.0761    1.5184 C   0  0  0  0  0  0  0  0  0  0  0  0
   -1.9456   -2.7051    2.0404 O   0  0  0  0  0  0  0  0  0  0  0  0
   -2.6926   -0.8481    1.0174 N   0  0  0  0  0  0  0  0  0  0  0  0
   -3.4926   -0.3971    0.5954 H   0  0  0  0  0  0  0  0  0  0  0  0
   -1.4216   -0.1071    1.0434 C   0  0  1  0  0  0  0  0  0  0  0  0
   -0.6196   -0.7897    0.7577 H   0  0  0  0  0  0  0  0  0  0  0  0
   -1.4985    1.0301    0.0052 C   0  0  0  0  0  0  0  0  0  0  0  0
   -2.3954    1.6210    0.2015 H   0  0  0  0  0  0  0  0  0  0  0  0
   -0.6302    1.6818    0.1247 H   0  0  0  0  0  0  0  0  0  0  0  0
   -1.5580    0.5304   -1.4457 C   0  0  0  0  0  0  0  0  0  0  0  0
   -0.6654   -0.0547   -1.6712 H   0  0  0  0  0  0  0  0  0  0  0  0
   -2.4415   -0.0955   -1.5757 H   0  0  0  0  0  0  0  0  0  0  0  0
   -1.6325    1.7245   -2.4070 C   0  0  0  0  0  0  0  0  0  0  0  0
   -2.5141    2.3191   -2.1567 H   0  0  0  0  0  0  0  0  0  0  0  0
   -0.7407    2.3399   -2.2667 H   0  0  0  0  0  0  0  0  0  0  0  0
   -1.7155    1.2894   -3.8164 N   0  3  0  0  0  0  0  0  0  0  0  0
   -1.6674    0.2995   -3.9872 H   0  0  0  0  0  0  0  0  0  0  0  0
   -1.8469    2.0766   -4.8709 C   0  0  0  0  0  0  0  0  0  0  0  0
   -1.9187    3.3737   -4.7630 N   0  0  0  0  0  0  0  0  0  0  0  0
   -1.8741    3.7862   -3.8480 H   0  0  0  0  0  0  0  0  0  0  0  0
   -2.0179    3.9568   -5.5736 H   0  0  0  0  0  0  0  0  0  0  0  0
   -1.9082    1.5694   -6.0694 N   0  0  0  0  0  0  0  0  0  0  0  0
   -1.8573    0.5742   -6.2032 H   0  0  0  0  0  0  0  0  0  0  0  0
   -2.0080    2.1703   -6.8667 H   0  0  0  0  0  0  0  0  0  0  0  0
   -1.1395    0.4234    2.4506 C   0  0  0  0  0  0  0  0  0  0  0  0
   -1.5186    1.5463    2.7612 O   0  0  0  0  0  0  0  0  0  0  0  0
   -0.4467   -0.3699    3.2738 N   0  0  0  0  0  0  0  0  0  0  0  0
   -0.2072   -1.2922    2.9484 H   0  0  0  0  0  0  0  0  0  0  0  0
   -0.0951   -0.0148    4.6497 C   0  0  0  0  0  0  0  0  0  0  0  0
   -1.0033    0.0965    5.2459 H   0  0  0  0  0  0  0  0  0  0  0  0
    0.5295   -0.7905    5.0945 H   0  0  0  0  0  0  0  0  0  0  0  0
    0.4452    0.9343    4.6641 H   0  0  0  0  0  0  0  0  0  0  0  0
  5  6  2  0  0  0  0
  5  7  1  0  0  0  0
  2  3  1  0  0  0  0
  2  4  1  0  0  0  0
  2  5  1  0  0  0  0
  1  2  1  0  0  0  0
 29 30  2  0  0  0  0
 29 31  1  0  0  0  0
 26 27  1  0  0  0  0
 26 28  1  0  0  0  0
 23 24  1  0  0  0  0
 23 25  1  0  0  0  0
 22 23  1  0  0  0  0
 22 26  1  0  0  0  0
 20 21  1  0  0  0  0
 20 22  2  0  0  0  0
 17 18  1  0  0  0  0
 17 19  1  0  0  0  0
 17 20  1  0  0  0  0
 14 15  1  0  0  0  0
 14 16  1  0  0  0  0
 14 17  1  0  0  0  0
 11 12  1  0  0  0  0
 11 13  1  0  0  0  0
 11 14  1  0  0  0  0
  9 10  1  0  0  0  0
  9 11  1  0  0  0  0
  9 29  1  0  0  0  0
  7  8  1  0  0  0  0
  7  9  1  0  0  0  0
 33 34  1  0  0  0  0
 33 35  1  0  0  0  0
 33 36  1  0  0  0  0
 31 32  1  0  0  0  0
 31 33  1  0  0  0  0
M  CHG  1  20   1
M  END
$$$$
default_name
  -OEChem-01062215323D

 36 35  0     1  0  0  0  0  0999 V2000
   -4.2256   -3.6731    1.8584 H   0  0  0  0  0  0  0  0  0  0  0  0
   -4.2396   -2.6781    1.4144 C   0  0  0  0  0  0  0  0  0  0  0  0
   -4.9506   -2.0521    1.9514 H   0  0  0  0  0  0  0  0  0  0  0  0
   -4.5266   -2.7521    0.3674 H   0  0  0  0  0  0  0  0  0  0  0  0
   -2.8576   -2.0761    1.5184 C   0  0  0  0  0  0  0  0  0  0  0  0
   -1.9456   -2.7051    2.0404 O   0  0  0  0  0  0  0  0  0  0  0  0
   -2.6926   -0.8481    1.0174 N   0  0  0  0  0  0  0  0  0  0  0  0
   -3.4926   -0.3971    0.5954 H   0  0  0  0  0  0  0  0  0  0  0  0
   -1.4216   -0.1071    1.0434 C   0  0  1  0  0  0  0  0  0  0  0  0
   -0.6196   -0.7897    0.7577 H   0  0  0  0  0  0  0  0  0  0  0  0
   -1.4985    1.0301    0.0052 C   0  0  0  0  0  0  0  0  0  0  0  0
   -2.3954    1.6210    0.2015 H   0  0  0  0  0  0  0  0  0  0  0  0
   -0.6302    1.6818    0.1247 H   0  0  0  0  0  0  0  0  0  0  0  0
   -1.5580    0.5304   -1.4457 C   0  0  0  0  0  0  0  0  0  0  0  0
   -0.6654   -0.0547   -1.6712 H   0  0  0  0  0  0  0  0  0  0  0  0
   -2.4415   -0.0955   -1.5757 H   0  0  0  0  0  0  0  0  0  0  0  0
   -1.6325    1.7245   -2.4070 C   0  0  0  0  0  0  0  0  0  0  0  0
   -2.5141    2.3191   -2.1567 H   0  0  0  0  0  0  0  0  0  0  0  0
   -0.7407    2.3399   -2.2667 H   0  0  0  0  0  0  0  0  0  0  0  0
   -1.7155    1.2894   -3.8164 N   0  3  0  0  0  0  0  0  0  0  0  0
   -1.6674    0.2995   -3.9872 H   0  0  0  0  0  0  0  0  0  0  0  0
   -1.8469    2.0766   -4.8709 C   0  0  0  0  0  0  0  0  0  0  0  0
   -1.9187    3.3737   -4.7630 N   0  0  0  0  0  0  0  0  0  0  0  0
   -1.8741    3.7862   -3.8480 H   0  0  0  0  0  0  0  0  0  0  0  0
   -2.0179    3.9568   -5.5736 H   0  0  0  0  0  0  0  0  0  0  0  0
   -1.9082    1.5694   -6.0694 N   0  0  0  0  0  0  0  0  0  0  0  0
   -1.8573    0.5742   -6.2032 H   0  0  0  0  0  0  0  0  0  0  0  0
   -2.0080    2.1703   -6.8667 H   0  0  0  0  0  0  0  0  0  0  0  0
   -1.1395    0.4234    2.4506 C   0  0  0  0  0  0  0  0  0  0  0  0
   -1.7412    1.4101    2.8571 O   0  0  0  0  0  0  0  0  0  0  0  0
   -0.2038   -0.2100    3.1648 N   0  0  0  0  0  0  0  0  0  0  0  0
    0.2143   -1.0352    2.7670 H   0  0  0  0  0  0  0  0  0  0  0  0
    0.1839    0.1681    4.5248 C   0  0  0  0  0  0  0  0  0  0  0  0
   -0.6636    0.0360    5.2006 H   0  0  0  0  0  0  0  0  0  0  0  0
    1.0134   -0.4507    4.8694 H   0  0  0  0  0  0  0  0  0  0  0  0
    0.4840    1.2180    4.5494 H   0  0  0  0  0  0  0  0  0  0  0  0
  5  6  2  0  0  0  0
  5  7  1  0  0  0  0
  2  3  1  0  0  0  0
  2  4  1  0  0  0  0
  2  5  1  0  0  0  0
  1  2  1  0  0  0  0
 29 30  2  0  0  0  0
 29 31  1  0  0  0  0
 26 27  1  0  0  0  0
 26 28  1  0  0  0  0
 23 24  1  0  0  0  0
 23 25  1  0  0  0  0
 22 23  1  0  0  0  0
 22 26  1  0  0  0  0
 20 21  1  0  0  0  0
 20 22  2  0  0  0  0
 17 18  1  0  0  0  0
 17 19  1  0  0  0  0
 17 20  1  0  0  0  0
 14 15  1  0  0  0  0
 14 16  1  0  0  0  0
 14 17  1  0  0  0  0
 11 12  1  0  0  0  0
 11 13  1  0  0  0  0
 11 14  1  0  0  0  0
  9 10  1  0  0  0  0
  9 11  1  0  0  0  0
  9 29  1  0  0  0  0
  7  8  1  0  0  0  0
  7  9  1  0  0  0  0
 33 34  1  0  0  0  0
 33 35  1  0  0  0  0
 33 36  1  0  0  0  0
 31 32  1  0  0  0  0
 31 33  1  0  0  0  0
M  CHG  1  20   1
M  END
$$$$
default_name
  -OEChem-01062215323D

 36 35  0     1  0  0  0  0  0999 V2000
   -4.2256   -3.6731    1.8584 H   0  0  0  0  0  0  0  0  0  0  0  0
   -4.2396   -2.6781    1.4144 C   0  0  0  0  0  0  0  0  0  0  0  0
   -4.9506   -2.0521    1.9514 H   0  0  0  0  0  0  0  0  0  0  0  0
   -4.5266   -2.7521    0.3674 H   0  0  0  0  0  0  0  0  0  0  0  0
   -2.8576   -2.0761    1.5184 C   0  0  0  0  0  0  0  0  0  0  0  0
   -1.9456   -2.7051    2.0404 O   0  0  0  0  0  0  0  0  0  0  0  0
   -2.6926   -0.8481    1.0174 N   0  0  0  0  0  0  0  0  0  0  0  0
   -3.4926   -0.3971    0.5954 H   0  0  0  0  0  0  0  0  0  0  0  0
   -1.4216   -0.1071    1.0434 C   0  0  1  0  0  0  0  0  0  0  0  0
   -0.6196   -0.7897    0.7577 H   0  0  0  0  0  0  0  0  0  0  0  0
   -1.4985    1.0301    0.0052 C   0  0  0  0  0  0  0  0  0  0  0  0
   -2.3954    1.6210    0.2015 H   0  0  0  0  0  0  0  0  0  0  0  0
   -0.6302    1.6818    0.1247 H   0  0  0  0  0  0  0  0  0  0  0  0
   -1.5580    0.5304   -1.4457 C   0  0  0  0  0  0  0  0  0  0  0  0
   -0.6654   -0.0547   -1.6712 H   0  0  0  0  0  0  0  0  0  0  0  0
   -2.4415   -0.0955   -1.5757 H   0  0  0  0  0  0  0  0  0  0  0  0
   -1.6325    1.7245   -2.4070 C   0  0  0  0  0  0  0  0  0  0  0  0
   -2.5141    2.3191   -2.1567 H   0  0  0  0  0  0  0  0  0  0  0  0
   -0.7407    2.3399   -2.2667 H   0  0  0  0  0  0  0  0  0  0  0  0
   -1.7155    1.2894   -3.8164 N   0  3  0  0  0  0  0  0  0  0  0  0
   -1.6674    0.2995   -3.9872 H   0  0  0  0  0  0  0  0  0  0  0  0
   -1.8469    2.0766   -4.8709 C   0  0  0  0  0  0  0  0  0  0  0  0
   -1.9187    3.3737   -4.7630 N   0  0  0  0  0  0  0  0  0  0  0  0
   -1.8741    3.7862   -3.8480 H   0  0  0  0  0  0  0  0  0  0  0  0
   -2.0179    3.9568   -5.5736 H   0  0  0  0  0  0  0  0  0  0  0  0
   -1.9082    1.5694   -6.0694 N   0  0  0  0  0  0  0  0  0  0  0  0
   -1.8573    0.5742   -6.2032 H   0  0  0  0  0  0  0  0  0  0  0  0
   -2.0080    2.1703   -6.8667 H   0  0  0  0  0  0  0  0  0  0  0  0
   -1.1395    0.4234    2.4506 C   0  0  0  0  0  0  0  0  0  0  0  0
   -1.9153    1.2210    2.9633 O   0  0  0  0  0  0  0  0  0  0  0  0
   -0.0170    0.0074    3.0454 N   0  0  0  0  0  0  0  0  0  0  0  0
    0.5439   -0.6779    2.5663 H   0  0  0  0  0  0  0  0  0  0  0  0
    0.3987    0.4172    4.3878 C   0  0  0  0  0  0  0  0  0  0  0  0
   -0.3253    0.0605    5.1235 H   0  0  0  0  0  0  0  0  0  0  0  0
    1.3797    0.0035    4.6247 H   0  0  0  0  0  0  0  0  0  0  0  0
    0.4436    1.5068    4.4486 H   0  0  0  0  0  0  0  0  0  0  0  0
  5  6  2  0  0  0  0
  5  7  1  0  0  0  0
  2  3  1  0  0  0  0
  2  4  1  0  0  0  0
  2  5  1  0  0  0  0
  1  2  1  0  0  0  0
 29 30  2  0  0  0  0
 29 31  1  0  0  0  0
 26 27  1  0  0  0  0
 26 28  1  0  0  0  0
 23 24  1  0  0  0  0
 23 25  1  0  0  0  0
 22 23  1  0  0  0  0
 22 26  1  0  0  0  0
 20 21  1  0  0  0  0
 20 22  2  0  0  0  0
 17 18  1  0  0  0  0
 17 19  1  0  0  0  0
 17 20  1  0  0  0  0
 14 15  1  0  0  0  0
 14 16  1  0  0  0  0
 14 17  1  0  0  0  0
 11 12  1  0  0  0  0
 11 13  1  0  0  0  0
 11 14  1  0  0  0  0
  9 10  1  0  0  0  0
  9 11  1  0  0  0  0
  9 29  1  0  0  0  0
  7  8  1  0  0  0  0
  7  9  1  0  0  0  0
 33 34  1  0  0  0  0
 33 35  1  0  0  0  0
 33 36  1  0  0  0  0
 31 32  1  0  0  0  0
 31 33  1  0  0  0  0
M  CHG  1  20   1
M  END
$$$$
default_name
  -OEChem-01062215323D

 36 35  0     1  0  0  0  0  0999 V2000
   -4.2256   -3.6731    1.8584 H   0  0  0  0  0  0  0  0  0  0  0  0
   -4.2396   -2.6781    1.4144 C   0  0  0  0  0  0  0  0  0  0  0  0
   -4.9506   -2.0521    1.9514 H   0  0  0  0  0  0  0  0  0  0  0  0
   -4.5266   -2.7521    0.3674 H   0  0  0  0  0  0  0  0  0  0  0  0
   -2.8576   -2.0761    1.5184 C   0  0  0  0  0  0  0  0  0  0  0  0
   -1.9456   -2.7051    2.0404 O   0  0  0  0  0  0  0  0  0  0  0  0
   -2.6926   -0.8481    1.0174 N   0  0  0  0  0  0  0  0  0  0  0  0
   -3.4926   -0.3971    0.5954 H   0  0  0  0  0  0  0  0  0  0  0  0
   -1.4216   -0.1071    1.0434 C   0  0  1  0  0  0  0  0  0  0  0  0
   -0.6196   -0.7897    0.7577 H   0  0  0  0  0  0  0  0  0  0  0  0
   -1.4985    1.0301    0.0052 C   0  0  0  0  0  0  0  0  0  0  0  0
   -2.3954    1.6210    0.2015 H   0  0  0  0  0  0  0  0  0  0  0  0
   -0.6302    1.6818    0.1247 H   0  0  0  0  0  0  0  0  0  0  0  0
   -1.5580    0.5304   -1.4457 C   0  0  0  0  0  0  0  0  0  0  0  0
   -0.6654   -0.0547   -1.6712 H   0  0  0  0  0  0  0  0  0  0  0  0
   -2.4415   -0.0955   -1.5757 H   0  0  0  0  0  0  0  0  0  0  0  0
   -1.6325    1.7245   -2.4070 C   0  0  0  0  0  0  0  0  0  0  0  0
   -2.5141    2.3191   -2.1567 H   0  0  0  0  0  0  0  0  0  0  0  0
   -0.7407    2.3399   -2.2667 H   0  0  0  0  0  0  0  0  0  0  0  0
   -1.7155    1.2894   -3.8164 N   0  3  0  0  0  0  0  0  0  0  0  0
   -1.6674    0.2995   -3.9872 H   0  0  0  0  0  0  0  0  0  0  0  0
   -1.8469    2.0766   -4.8709 C   0  0  0  0  0  0  0  0  0  0  0  0
   -1.9187    3.3737   -4.7630 N   0  0  0  0  0  0  0  0  0  0  0  0
   -1.8741    3.7862   -3.8480 H   0  0  0  0  0  0  0  0  0  0  0  0
   -2.0179    3.9568   -5.5736 H   0  0  0  0  0  0  0  0  0  0  0  0
   -1.9082    1.5694   -6.0694 N   0  0  0  0  0  0  0  0  0  0  0  0
   -1.8573    0.5742   -6.2032 H   0  0  0  0  0  0  0  0  0  0  0  0
   -2.0080    2.1703   -6.8667 H   0  0  0  0  0  0  0  0  0  0  0  0
   -1.1395    0.4234    2.4506 C   0  0  0  0  0  0  0  0  0  0  0  0
   -2.0289    0.9918    3.0725 O   0  0  0  0  0  0  0  0  0  0  0  0
    0.1010    0.2676    2.9236 N   0  0  0  0  0  0  0  0  0  0  0  0
    0.7593   -0.2448    2.3598 H   0  0  0  0  0  0  0  0  0  0  0  0
    0.5345    0.7155    4.2481 C   0  0  0  0  0  0  0  0  0  0  0  0
   -0.0112    0.1685    5.0199 H   0  0  0  0  0  0  0  0  0  0  0  0
    1.6035    0.5411    4.3772 H   0  0  0  0  0  0  0  0  0  0  0  0
    0.3268    1.7810    4.3686 H   0  0  0  0  0  0  0  0  0  0  0  0
  5  6  2  0  0  0  0
  5  7  1  0  0  0  0
  2  3  1  0  0  0  0
  2  4  1  0  0  0  0
  2  5  1  0  0  0  0
  1  2  1  0  0  0  0
 29 30  2  0  0  0  0
 29 31  1  0  0  0  0
 26 27  1  0  0  0  0
 26 28  1  0  0  0  0
 23 24  1  0  0  0  0
 23 25  1  0  0  0  0
 22 23  1  0  0  0  0
 22 26  1  0  0  0  0
 20 21  1  0  0  0  0
 20 22  2  0  0  0  0
 17 18  1  0  0  0  0
 17 19  1  0  0  0  0
 17 20  1  0  0  0  0
 14 15  1  0  0  0  0
 14 16  1  0  0  0  0
 14 17  1  0  0  0  0
 11 12  1  0  0  0  0
 11 13  1  0  0  0  0
 11 14  1  0  0  0  0
  9 10  1  0  0  0  0
  9 11  1  0  0  0  0
  9 29  1  0  0  0  0
  7  8  1  0  0  0  0
  7  9  1  0  0  0  0
 33 34  1  0  0  0  0
 33 35  1  0  0  0  0
 33 36  1  0  0  0  0
 31 32  1  0  0  0  0
 31 33  1  0  0  0  0
M  CHG  1  20   1
M  END
$$$$
default_name
  -OEChem-01062215323D

 36 35  0     1  0  0  0  0  0999 V2000
   -4.2256   -3.6731    1.8584 H   0  0  0  0  0  0  0  0  0  0  0  0
   -4.2396   -2.6781    1.4144 C   0  0  0  0  0  0  0  0  0  0  0  0
   -4.9506   -2.0521    1.9514 H   0  0  0  0  0  0  0  0  0  0  0  0
   -4.5266   -2.7521    0.3674 H   0  0  0  0  0  0  0  0  0  0  0  0
   -2.8576   -2.0761    1.5184 C   0  0  0  0  0  0  0  0  0  0  0  0
   -1.9456   -2.7051    2.0404 O   0  0  0  0  0  0  0  0  0  0  0  0
   -2.6926   -0.8481    1.0174 N   0  0  0  0  0  0  0  0  0  0  0  0
   -3.4926   -0.3971    0.5954 H   0  0  0  0  0  0  0  0  0  0  0  0
   -1.4216   -0.1071    1.0434 C   0  0  1  0  0  0  0  0  0  0  0  0
   -0.6196   -0.7897    0.7577 H   0  0  0  0  0  0  0  0  0  0  0  0
   -1.4985    1.0301    0.0052 C   0  0  0  0  0  0  0  0  0  0  0  0
   -2.3954    1.6210    0.2015 H   0  0  0  0  0  0  0  0  0  0  0  0
   -0.6302    1.6818    0.1247 H   0  0  0  0  0  0  0  0  0  0  0  0
   -1.5580    0.5304   -1.4457 C   0  0  0  0  0  0  0  0  0  0  0  0
   -0.6654   -0.0547   -1.6712 H   0  0  0  0  0  0  0  0  0  0  0  0
   -2.4415   -0.0955   -1.5757 H   0  0  0  0  0  0  0  0  0  0  0  0
   -1.6325    1.7245   -2.4070 C   0  0  0  0  0  0  0  0  0  0  0  0
   -2.5141    2.3191   -2.1567 H   0  0  0  0  0  0  0  0  0  0  0  0
   -0.7407    2.3399   -2.2667 H   0  0  0  0  0  0  0  0  0  0  0  0
   -1.7155    1.2894   -3.8164 N   0  3  0  0  0  0  0  0  0  0  0  0
   -1.6674    0.2995   -3.9872 H   0  0  0  0  0  0  0  0  0  0  0  0
   -1.8469    2.0766   -4.8709 C   0  0  0  0  0  0  0  0  0  0  0  0
   -1.9187    3.3737   -4.7630 N   0  0  0  0  0  0  0  0  0  0  0  0
   -1.8741    3.7862   -3.8480 H   0  0  0  0  0  0  0  0  0  0  0  0
   -2.0179    3.9568   -5.5736 H   0  0  0  0  0  0  0  0  0  0  0  0
   -1.9082    1.5694   -6.0694 N   0  0  0  0  0  0  0  0  0  0  0  0
   -1.8573    0.5742   -6.2032 H   0  0  0  0  0  0  0  0  0  0  0  0
   -2.0080    2.1703   -6.8667 H   0  0  0  0  0  0  0  0  0  0  0  0
   -1.1395    0.4234    2.4506 C   0  0  0  0  0  0  0  0  0  0  0  0
   -2.0743    0.7382    3.1772 O   0  0  0  0  0  0  0  0  0  0  0  0
    0.1421    0.5528    2.8079 N   0  0  0  0  0  0  0  0  0  0  0  0
    0.8457    0.2347    2.1617 H   0  0  0  0  0  0  0  0  0  0  0  0
    0.5822    1.0426    4.1152 C   0  0  0  0  0  0  0  0  0  0  0  0
    0.2572    0.3525    4.8967 H   0  0  0  0  0  0  0  0  0  0  0  0
    1.6695    1.1254    4.1437 H   0  0  0  0  0  0  0  0  0  0  0  0
    0.1416    2.0218    4.3150 H   0  0  0  0  0  0  0  0  0  0  0  0
  5  6  2  0  0  0  0
  5  7  1  0  0  0  0
  2  3  1  0  0  0  0
  2  4  1  0  0  0  0
  2  5  1  0  0  0  0
  1  2  1  0  0  0  0
 29 30  2  0  0  0  0
 29 31  1  0  0  0  0
 26 27  1  0  0  0  0
 26 28  1  0  0  0  0
 23 24  1  0  0  0  0
 23 25  1  0  0  0  0
 22 23  1  0  0  0  0
 22 26  1  0  0  0  0
 20 21  1  0  0  0  0
 20 22  2  0  0  0  0
 17 18  1  0  0  0  0
 17 19  1  0  0  0  0
 17 20  1  0  0  0  0
 14 15  1  0  0  0  0
 14 16  1  0  0  0  0
 14 17  1  0  0  0  0
 11 12  1  0  0  0  0
 11 13  1  0  0  0  0
 11 14  1  0  0  0  0
  9 10  1  0  0  0  0
  9 11  1  0  0  0  0
  9 29  1  0  0  0  0
  7  8  1  0  0  0  0
  7  9  1  0  0  0  0
 33 34  1  0  0  0  0
 33 35  1  0  0  0  0
 33 36  1  0  0  0  0
 31 32  1  0  0  0  0
 31 33  1  0  0  0  0
M  CHG  1  20   1
M  END
$$$$
default_name
  -OEChem-01062215323D

 36 35  0     1  0  0  0  0  0999 V2000
   -4.2256   -3.6731    1.8584 H   0  0  0  0  0  0  0  0  0  0  0  0
   -4.2396   -2.6781    1.4144 C   0  0  0  0  0  0  0  0  0  0  0  0
   -4.9506   -2.0521    1.9514 H   0  0  0  0  0  0  0  0  0  0  0  0
   -4.5266   -2.7521    0.3674 H   0  0  0  0  0  0  0  0  0  0  0  0
   -2.8576   -2.0761    1.5184 C   0  0  0  0  0  0  0  0  0  0  0  0
   -1.9456   -2.7051    2.0404 O   0  0  0  0  0  0  0  0  0  0  0  0
   -2.6926   -0.8481    1.0174 N   0  0  0  0  0  0  0  0  0  0  0  0
   -3.4926   -0.3971    0.5954 H   0  0  0  0  0  0  0  0  0  0  0  0
   -1.4216   -0.1071    1.0434 C   0  0  1  0  0  0  0  0  0  0  0  0
   -0.6196   -0.7897    0.7577 H   0  0  0  0  0  0  0  0  0  0  0  0
   -1.4985    1.0301    0.0052 C   0  0  0  0  0  0  0  0  0  0  0  0
   -2.3954    1.6210    0.2015 H   0  0  0  0  0  0  0  0  0  0  0  0
   -0.6302    1.6818    0.1247 H   0  0  0  0  0  0  0  0  0  0  0  0
   -1.5580    0.5304   -1.4457 C   0  0  0  0  0  0  0  0  0  0  0  0
   -0.6654   -0.0547   -1.6712 H   0  0  0  0  0  0  0  0  0  0  0  0
   -2.4415   -0.0955   -1.5757 H   0  0  0  0  0  0  0  0  0  0  0  0
   -1.6325    1.7245   -2.4070 C   0  0  0  0  0  0  0  0  0  0  0  0
   -2.5141    2.3191   -2.1567 H   0  0  0  0  0  0  0  0  0  0  0  0
   -0.7407    2.3399   -2.2667 H   0  0  0  0  0  0  0  0  0  0  0  0
   -1.7155    1.2894   -3.8164 N   0  3  0  0  0  0  0  0  0  0  0  0
   -1.6674    0.2995   -3.9872 H   0  0  0  0  0  0  0  0  0  0  0  0
   -1.8469    2.0766   -4.8709 C   0  0  0  0  0  0  0  0  0  0  0  0
   -1.9187    3.3737   -4.7630 N   0  0  0  0  0  0  0  0  0  0  0  0
   -1.8741    3.7862   -3.8480 H   0  0  0  0  0  0  0  0  0  0  0  0
   -2.0179    3.9568   -5.5736 H   0  0  0  0  0  0  0  0  0  0  0  0
   -1.9082    1.5694   -6.0694 N   0  0  0  0  0  0  0  0  0  0  0  0
   -1.8573    0.5742   -6.2032 H   0  0  0  0  0  0  0  0  0  0  0  0
   -2.0080    2.1703   -6.8667 H   0  0  0  0  0  0  0  0  0  0  0  0
   -1.1395    0.4234    2.4506 C   0  0  0  0  0  0  0  0  0  0  0  0
   -2.0484    0.4775    3.2704 O   0  0  0  0  0  0  0  0  0  0  0  0
    0.1035    0.8436    2.7060 N   0  0  0  0  0  0  0  0  0  0  0  0
    0.7973    0.7278    1.9855 H   0  0  0  0  0  0  0  0  0  0  0  0
    0.5385    1.3763    3.9982 C   0  0  0  0  0  0  0  0  0  0  0  0
    0.4616    0.6000    4.7624 H   0  0  0  0  0  0  0  0  0  0  0  0
    1.5731    1.7167    3.9400 H   0  0  0  0  0  0  0  0  0  0  0  0
   -0.0995    2.2129    4.2912 H   0  0  0  0  0  0  0  0  0  0  0  0
  5  6  2  0  0  0  0
  5  7  1  0  0  0  0
  2  3  1  0  0  0  0
  2  4  1  0  0  0  0
  2  5  1  0  0  0  0
  1  2  1  0  0  0  0
 29 30  2  0  0  0  0
 29 31  1  0  0  0  0
 26 27  1  0  0  0  0
 26 28  1  0  0  0  0
 23 24  1  0  0  0  0
 23 25  1  0  0  0  0
 22 23  1  0  0  0  0
 22 26  1  0  0  0  0
 20 21  1  0  0  0  0
 20 22  2  0  0  0  0
 17 18  1  0  0  0  0
 17 19  1  0  0  0  0
 17 20  1  0  0  0  0
 14 15  1  0  0  0  0
 14 16  1  0  0  0  0
 14 17  1  0  0  0  0
 11 12  1  0  0  0  0
 11 13  1  0  0  0  0
 11 14  1  0  0  0  0
  9 10  1  0  0  0  0
  9 11  1  0  0  0  0
  9 29  1  0  0  0  0
  7  8  1  0  0  0  0
  7  9  1  0  0  0  0
 33 34  1  0  0  0  0
 33 35  1  0  0  0  0
 33 36  1  0  0  0  0
 31 32  1  0  0  0  0
 31 33  1  0  0  0  0
M  CHG  1  20   1
M  END
$$$$
default_name
  -OEChem-01062215323D

 36 35  0     1  0  0  0  0  0999 V2000
   -4.2256   -3.6731    1.8584 H   0  0  0  0  0  0  0  0  0  0  0  0
   -4.2396   -2.6781    1.4144 C   0  0  0  0  0  0  0  0  0  0  0  0
   -4.9506   -2.0521    1.9514 H   0  0  0  0  0  0  0  0  0  0  0  0
   -4.5266   -2.7521    0.3674 H   0  0  0  0  0  0  0  0  0  0  0  0
   -2.8576   -2.0761    1.5184 C   0  0  0  0  0  0  0  0  0  0  0  0
   -1.9456   -2.7051    2.0404 O   0  0  0  0  0  0  0  0  0  0  0  0
   -2.6926   -0.8481    1.0174 N   0  0  0  0  0  0  0  0  0  0  0  0
   -3.4926   -0.3971    0.5954 H   0  0  0  0  0  0  0  0  0  0  0  0
   -1.4216   -0.1071    1.0434 C   0  0  1  0  0  0  0  0  0  0  0  0
   -0.6709   -0.6930    0.5106 H   0  0  0  0  0  0  0  0  0  0  0  0
   -1.6221    1.2315    0.3051 C   0  0  0  0  0  0  0  0  0  0  0  0
   -2.4795    1.7461    0.7435 H   0  0  0  0  0  0  0  0  0  0  0  0
   -0.7390    1.8568    0.4537 H   0  0  0  0  0  0  0  0  0  0  0  0
   -1.8760    1.0672   -1.2004 C   0  0  0  0  0  0  0  0  0  0  0  0
   -1.0266    0.5647   -1.6652 H   0  0  0  0  0  0  0  0  0  0  0  0
   -2.7753    0.4692   -1.3515 H   0  0  0  0  0  0  0  0  0  0  0  0
   -2.0634    2.4441   -1.8520 C   0  0  0  0  0  0  0  0  0  0  0  0
   -2.8986    2.9506   -1.3627 H   0  0  0  0  0  0  0  0  0  0  0  0
   -1.1547    3.0298   -1.6945 H   0  0  0  0  0  0  0  0  0  0  0  0
   -2.3346    2.3331   -3.3001 N   0  3  0  0  0  0  0  0  0  0  0  0
   -2.3194    1.4075   -3.6929 H   0  0  0  0  0  0  0  0  0  0  0  0
   -2.5947    3.3332   -4.1254 C   0  0  0  0  0  0  0  0  0  0  0  0
   -2.6385    4.5718   -3.7214 N   0  0  0  0  0  0  0  0  0  0  0  0
   -2.4703    4.7704   -2.7510 H   0  0  0  0  0  0  0  0  0  0  0  0
   -2.8370    5.3191   -4.3610 H   0  0  0  0  0  0  0  0  0  0  0  0
   -2.8176    3.1054   -5.3886 N   0  0  0  0  0  0  0  0  0  0  0  0
   -2.7948    2.1663   -5.7472 H   0  0  0  0  0  0  0  0  0  0  0  0
   -3.0146    3.8669   -6.0113 H   0  0  0  0  0  0  0  0  0  0  0  0
   -0.9523    0.1012    2.4848 C   0  0  0  0  0  0  0  0  0  0  0  0
   -1.6437   -0.3055    3.4110 O   0  0  0  0  0  0  0  0  0  0  0  0
    0.1952    0.7632    2.6628 N   0  0  0  0  0  0  0  0  0  0  0  0
    0.7177    1.0288    1.8441 H   0  0  0  0  0  0  0  0  0  0  0  0
    0.7835    1.0445    3.9734 C   0  0  0  0  0  0  0  0  0  0  0  0
    1.0498    0.1077    4.4674 H   0  0  0  0  0  0  0  0  0  0  0  0
    1.6799    1.6563    3.8641 H   0  0  0  0  0  0  0  0  0  0  0  0
    0.0621    1.5723    4.6011 H   0  0  0  0  0  0  0  0  0  0  0  0
  5  6  2  0  0  0  0
  5  7  1  0  0  0  0
  2  3  1  0  0  0  0
  2  4  1  0  0  0  0
  2  5  1  0  0  0  0
  1  2  1  0  0  0  0
 29 30  2  0  0  0  0
 29 31  1  0  0  0  0
 26 27  1  0  0  0  0
 26 28  1  0  0  0  0
 23 24  1  0  0  0  0
 23 25  1  0  0  0  0
 22 23  1  0  0  0  0
 22 26  1  0  0  0  0
 20 21  1  0  0  0  0
 20 22  2  0  0  0  0
 17 18  1  0  0  0  0
 17 19  1  0  0  0  0
 17 20  1  0  0  0  0
 14 15  1  0  0  0  0
 14 16  1  0  0  0  0
 14 17  1  0  0  0  0
 11 12  1  0  0  0  0
 11 13  1  0  0  0  0
 11 14  1  0  0  0  0
  9 10  1  0  0  0  0
  9 11  1  0  0  0  0
  9 29  1  0  0  0  0
  7  8  1  0  0  0  0
  7  9  1  0  0  0  0
 33 34  1  0  0  0  0
 33 35  1  0  0  0  0
 33 36  1  0  0  0  0
 31 32  1  0  0  0  0
 31 33  1  0  0  0  0
M  CHG  1  20   1
M  END
$$$$
default_name
  -OEChem-01062215323D

 36 35  0     1  0  0  0  0  0999 V2000
   -4.2256   -3.6731    1.8584 H   0  0  0  0  0  0  0  0  0  0  0  0
   -4.2396   -2.6781    1.4144 C   0  0  0  0  0  0  0  0  0  0  0  0
   -4.9506   -2.0521    1.9514 H   0  0  0  0  0  0  0  0  0  0  0  0
   -4.5266   -2.7521    0.3674 H   0  0  0  0  0  0  0  0  0  0  0  0
   -2.8576   -2.0761    1.5184 C   0  0  0  0  0  0  0  0  0  0  0  0
   -1.9456   -2.7051    2.0404 O   0  0  0  0  0  0  0  0  0  0  0  0
   -2.6926   -0.8481    1.0174 N   0  0  0  0  0  0  0  0  0  0  0  0
   -3.4926   -0.3971    0.5954 H   0  0  0  0  0  0  0  0  0  0  0  0
   -1.4216   -0.1071    1.0434 C   0  0  1  0  0  0  0  0  0  0  0  0
   -0.6709   -0.6930    0.5106 H   0  0  0  0  0  0  0  0  0  0  0  0
   -1.6221    1.2315    0.3051 C   0  0  0  0  0  0  0  0  0  0  0  0
   -2.4795    1.7461    0.7435 H   0  0  0  0  0  0  0  0  0  0  0  0
   -0.7390    1.8568    0.4537 H   0  0  0  0  0  0  0  0  0  0  0  0
   -1.8760    1.0672   -1.2004 C   0  0  0  0  0  0  0  0  0  0  0  0
   -1.0266    0.5647   -1.6652 H   0  0  0  0  0  0  0  0  0  0  0  0
   -2.7753    0.4692   -1.3515 H   0  0  0  0  0  0  0  0  0  0  0  0
   -2.0634    2.4441   -1.8520 C   0  0  0  0  0  0  0  0  0  0  0  0
   -2.8986    2.9506   -1.3627 H   0  0  0  0  0  0  0  0  0  0  0  0
   -1.1547    3.0298   -1.6945 H   0  0  0  0  0  0  0  0  0  0  0  0
   -2.3346    2.3331   -3.3001 N   0  3  0  0  0  0  0  0  0  0  0  0
   -2.3194    1.4075   -3.6929 H   0  0  0  0  0  0  0  0  0  0  0  0
   -2.5947    3.3332   -4.1254 C   0  0  0  0  0  0  0  0  0  0  0  0
   -2.6385    4.5718   -3.7214 N   0  0  0  0  0  0  0  0  0  0  0  0
   -2.4703    4.7704   -2.7510 H   0  0  0  0  0  0  0  0  0  0  0  0
   -2.8370    5.3191   -4.3610 H   0  0  0  0  0  0  0  0  0  0  0  0
   -2.8176    3.1054   -5.3886 N   0  0  0  0  0  0  0  0  0  0  0  0
   -2.7948    2.1663   -5.7472 H   0  0  0  0  0  0  0  0  0  0  0  0
   -3.0146    3.8669   -6.0113 H   0  0  0  0  0  0  0  0  0  0  0  0
   -0.9523    0.1012    2.4848 C   0  0  0  0  0  0  0  0  0  0  0  0
   -1.4820   -0.5309    3.3909 O   0  0  0  0  0  0  0  0  0  0  0  0
    0.0073    1.0091    2.6884 N   0  0  0  0  0  0  0  0  0  0  0  0
    0.4124    1.4554    1.8818 H   0  0  0  0  0  0  0  0  0  0  0  0
    0.5683    1.3270    4.0026 C   0  0  0  0  0  0  0  0  0  0  0  0
    1.0758    0.4498    4.4095 H   0  0  0  0  0  0  0  0  0  0  0  0
    1.2839    2.1463    3.9222 H   0  0  0  0  0  0  0  0  0  0  0  0
   -0.2304    1.6132    4.6904 H   0  0  0  0  0  0  0  0  0  0  0  0
  5  6  2  0  0  0  0
  5  7  1  0  0  0  0
  2  3  1  0  0  0  0
  2  4  1  0  0  0  0
  2  5  1  0  0  0  0
  1  2  1  0  0  0  0
 29 30  2  0  0  0  0
 29 31  1  0  0  0  0
 26 27  1  0  0  0  0
 26 28  1  0  0  0  0
 23 24  1  0  0  0  0
 23 25  1  0  0  0  0
 22 23  1  0  0  0  0
 22 26  1  0  0  0  0
 20 21  1  0  0  0  0
 20 22  2  0  0  0  0
 17 18  1  0  0  0  0
 17 19  1  0  0  0  0
 17 20  1  0  0  0  0
 14 15  1  0  0  0  0
 14 16  1  0  0  0  0
 14 17  1  0  0  0  0
 11 12  1  0  0  0  0
 11 13  1  0  0  0  0
 11 14  1  0  0  0  0
  9 10  1  0  0  0  0
  9 11  1  0  0  0  0
  9 29  1  0  0  0  0
  7  8  1  0  0  0  0
  7  9  1  0  0  0  0
 33 34  1  0  0  0  0
 33 35  1  0  0  0  0
 33 36  1  0  0  0  0
 31 32  1  0  0  0  0
 31 33  1  0  0  0  0
M  CHG  1  20   1
M  END
$$$$
default_name
  -OEChem-01062215323D

 36 35  0     1  0  0  0  0  0999 V2000
   -4.2256   -3.6731    1.8584 H   0  0  0  0  0  0  0  0  0  0  0  0
   -4.2396   -2.6781    1.4144 C   0  0  0  0  0  0  0  0  0  0  0  0
   -4.9506   -2.0521    1.9514 H   0  0  0  0  0  0  0  0  0  0  0  0
   -4.5266   -2.7521    0.3674 H   0  0  0  0  0  0  0  0  0  0  0  0
   -2.8576   -2.0761    1.5184 C   0  0  0  0  0  0  0  0  0  0  0  0
   -1.9456   -2.7051    2.0404 O   0  0  0  0  0  0  0  0  0  0  0  0
   -2.6926   -0.8481    1.0174 N   0  0  0  0  0  0  0  0  0  0  0  0
   -3.4926   -0.3971    0.5954 H   0  0  0  0  0  0  0  0  0  0  0  0
   -1.4216   -0.1071    1.0434 C   0  0  1  0  0  0  0  0  0  0  0  0
   -0.6709   -0.6930    0.5106 H   0  0  0  0  0  0  0  0  0  0  0  0
   -1.6221    1.2315    0.3051 C   0  0  0  0  0  0  0  0  0  0  0  0
   -2.4795    1.7461    0.7435 H   0  0  0  0  0  0  0  0  0  0  0  0
   -0.7390    1.8568    0.4537 H   0  0  0  0  0  0  0  0  0  0  0  0
   -1.8760    1.0672   -1.2004 C   0  0  0  0  0  0  0  0  0  0  0  0
   -1.0266    0.5647   -1.6652 H   0  0  0  0  0  0  0  0  0  0  0  0
   -2.7753    0.4692   -1.3515 H   0  0  0  0  0  0  0  0  0  0  0  0
   -2.0634    2.4441   -1.8520 C   0  0  0  0  0  0  0  0  0  0  0  0
   -2.8986    2.9506   -1.3627 H   0  0  0  0  0  0  0  0  0  0  0  0
   -1.1547    3.0298   -1.6945 H   0  0  0  0  0  0  0  0  0  0  0  0
   -2.3346    2.3331   -3.3001 N   0  3  0  0  0  0  0  0  0  0  0  0
   -2.3194    1.4075   -3.6929 H   0  0  0  0  0  0  0  0  0  0  0  0
   -2.5947    3.3332   -4.1254 C   0  0  0  0  0  0  0  0  0  0  0  0
   -2.6385    4.5718   -3.7214 N   0  0  0  0  0  0  0  0  0  0  0  0
   -2.4703    4.7704   -2.7510 H   0  0  0  0  0  0  0  0  0  0  0  0
   -2.8370    5.3191   -4.3610 H   0  0  0  0  0  0  0  0  0  0  0  0
   -2.8176    3.1054   -5.3886 N   0  0  0  0  0  0  0  0  0  0  0  0
   -2.7948    2.1663   -5.7472 H   0  0  0  0  0  0  0  0  0  0  0  0
   -3.0146    3.8669   -6.0113 H   0  0  0  0  0  0  0  0  0  0  0  0
   -0.9523    0.1012    2.4848 C   0  0  0  0  0  0  0  0  0  0  0  0
   -1.2716   -0.7076    3.3480 O   0  0  0  0  0  0  0  0  0  0  0  0
   -0.2332    1.1988    2.7393 N   0  0  0  0  0  0  0  0  0  0  0  0
    0.0149    1.7900    1.9628 H   0  0  0  0  0  0  0  0  0  0  0  0
    0.2927    1.5451    4.0608 C   0  0  0  0  0  0  0  0  0  0  0  0
    1.0155    0.7912    4.3798 H   0  0  0  0  0  0  0  0  0  0  0  0
    0.7840    2.5185    4.0312 H   0  0  0  0  0  0  0  0  0  0  0  0
   -0.5197    1.5742    4.7902 H   0  0  0  0  0  0  0  0  0  0  0  0
  5  6  2  0  0  0  0
  5  7  1  0  0  0  0
  2  3  1  0  0  0  0
  2  4  1  0  0  0  0
  2  5  1  0  0  0  0
  1  2  1  0  0  0  0
 29 30  2  0  0  0  0
 29 31  1  0  0  0  0
 26 27  1  0  0  0  0
 26 28  1  0  0  0  0
 23 24  1  0  0  0  0
 23 25  1  0  0  0  0
 22 23  1  0  0  0  0
 22 26  1  0  0  0  0
 20 21  1  0  0  0  0
 20 22  2  0  0  0  0
 17 18  1  0  0  0  0
 17 19  1  0  0  0  0
 17 20  1  0  0  0  0
 14 15  1  0  0  0  0
 14 16  1  0  0  0  0
 14 17  1  0  0  0  0
 11 12  1  0  0  0  0
 11 13  1  0  0  0  0
 11 14  1  0  0  0  0
  9 10  1  0  0  0  0
  9 11  1  0  0  0  0
  9 29  1  0  0  0  0
  7  8  1  0  0  0  0
  7  9  1  0  0  0  0
 33 34  1  0  0  0  0
 33 35  1  0  0  0  0
 33 36  1  0  0  0  0
 31 32  1  0  0  0  0
 31 33  1  0  0  0  0
M  CHG  1  20   1
M  END
$$$$
default_name
  -OEChem-01062215323D

 36 35  0     1  0  0  0  0  0999 V2000
   -4.2256   -3.6731    1.8584 H   0  0  0  0  0  0  0  0  0  0  0  0
   -4.2396   -2.6781    1.4144 C   0  0  0  0  0  0  0  0  0  0  0  0
   -4.9506   -2.0521    1.9514 H   0  0  0  0  0  0  0  0  0  0  0  0
   -4.5266   -2.7521    0.3674 H   0  0  0  0  0  0  0  0  0  0  0  0
   -2.8576   -2.0761    1.5184 C   0  0  0  0  0  0  0  0  0  0  0  0
   -1.9456   -2.7051    2.0404 O   0  0  0  0  0  0  0  0  0  0  0  0
   -2.6926   -0.8481    1.0174 N   0  0  0  0  0  0  0  0  0  0  0  0
   -3.4926   -0.3971    0.5954 H   0  0  0  0  0  0  0  0  0  0  0  0
   -1.4216   -0.1071    1.0434 C   0  0  1  0  0  0  0  0  0  0  0  0
   -0.6709   -0.6930    0.5106 H   0  0  0  0  0  0  0  0  0  0  0  0
   -1.6221    1.2315    0.3051 C   0  0  0  0  0  0  0  0  0  0  0  0
   -2.4795    1.7461    0.7435 H   0  0  0  0  0  0  0  0  0  0  0  0
   -0.7390    1.8568    0.4537 H   0  0  0  0  0  0  0  0  0  0  0  0
   -1.8760    1.0672   -1.2004 C   0  0  0  0  0  0  0  0  0  0  0  0
   -1.0266    0.5647   -1.6652 H   0  0  0  0  0  0  0  0  0  0  0  0
   -2.7753    0.4692   -1.3515 H   0  0  0  0  0  0  0  0  0  0  0  0
   -2.0634    2.4441   -1.8520 C   0  0  0  0  0  0  0  0  0  0  0  0
   -2.8986    2.9506   -1.3627 H   0  0  0  0  0  0  0  0  0  0  0  0
   -1.1547    3.0298   -1.6945 H   0  0  0  0  0  0  0  0  0  0  0  0
   -2.3346    2.3331   -3.3001 N   0  3  0  0  0  0  0  0  0  0  0  0
   -2.3194    1.4075   -3.6929 H   0  0  0  0  0  0  0  0  0  0  0  0
   -2.5947    3.3332   -4.1254 C   0  0  0  0  0  0  0  0  0  0  0  0
   -2.6385    4.5718   -3.7214 N   0  0  0  0  0  0  0  0  0  0  0  0
   -2.4703    4.7704   -2.7510 H   0  0  0  0  0  0  0  0  0  0  0  0
   -2.8370    5.3191   -4.3610 H   0  0  0  0  0  0  0  0  0  0  0  0
   -2.8176    3.1054   -5.3886 N   0  0  0  0  0  0  0  0  0  0  0  0
   -2.7948    2.1663   -5.7472 H   0  0  0  0  0  0  0  0  0  0  0  0
   -3.0146    3.8669   -6.0113 H   0  0  0  0  0  0  0  0  0  0  0  0
   -0.9523    0.1012    2.4848 C   0  0  0  0  0  0  0  0  0  0  0  0
   -1.0268   -0.8236    3.2850 O   0  0  0  0  0  0  0  0  0  0  0  0
   -0.5100    1.3194    2.8119 N   0  0  0  0  0  0  0  0  0  0  0  0
   -0.4479    2.0099    2.0817 H   0  0  0  0  0  0  0  0  0  0  0  0
   -0.0247    1.6840    4.1440 C   0  0  0  0  0  0  0  0  0  0  0  0
    0.8729    1.1085    4.3803 H   0  0  0  0  0  0  0  0  0  0  0  0
    0.2141    2.7475    4.1836 H   0  0  0  0  0  0  0  0  0  0  0  0
   -0.7862    1.4582    4.8937 H   0  0  0  0  0  0  0  0  0  0  0  0
  5  6  2  0  0  0  0
  5  7  1  0  0  0  0
  2  3  1  0  0  0  0
  2  4  1  0  0  0  0
  2  5  1  0  0  0  0
  1  2  1  0  0  0  0
 29 30  2  0  0  0  0
 29 31  1  0  0  0  0
 26 27  1  0  0  0  0
 26 28  1  0  0  0  0
 23 24  1  0  0  0  0
 23 25  1  0  0  0  0
 22 23  1  0  0  0  0
 22 26  1  0  0  0  0
 20 21  1  0  0  0  0
 20 22  2  0  0  0  0
 17 18  1  0  0  0  0
 17 19  1  0  0  0  0
 17 20  1  0  0  0  0
 14 15  1  0  0  0  0
 14 16  1  0  0  0  0
 14 17  1  0  0  0  0
 11 12  1  0  0  0  0
 11 13  1  0  0  0  0
 11 14  1  0  0  0  0
  9 10  1  0  0  0  0
  9 11  1  0  0  0  0
  9 29  1  0  0  0  0
  7  8  1  0  0  0  0
  7  9  1  0  0  0  0
 33 34  1  0  0  0  0
 33 35  1  0  0  0  0
 33 36  1  0  0  0  0
 31 32  1  0  0  0  0
 31 33  1  0  0  0  0
M  CHG  1  20   1
M  END
$$$$
default_name
  -OEChem-01062215323D

 36 35  0     1  0  0  0  0  0999 V2000
   -4.2256   -3.6731    1.8584 H   0  0  0  0  0  0  0  0  0  0  0  0
   -4.2396   -2.6781    1.4144 C   0  0  0  0  0  0  0  0  0  0  0  0
   -4.9506   -2.0521    1.9514 H   0  0  0  0  0  0  0  0  0  0  0  0
   -4.5266   -2.7521    0.3674 H   0  0  0  0  0  0  0  0  0  0  0  0
   -2.8576   -2.0761    1.5184 C   0  0  0  0  0  0  0  0  0  0  0  0
   -1.9456   -2.7051    2.0404 O   0  0  0  0  0  0  0  0  0  0  0  0
   -2.6926   -0.8481    1.0174 N   0  0  0  0  0  0  0  0  0  0  0  0
   -3.4926   -0.3971    0.5954 H   0  0  0  0  0  0  0  0  0  0  0  0
   -1.4216   -0.1071    1.0434 C   0  0  1  0  0  0  0  0  0  0  0  0
   -0.6709   -0.6930    0.5106 H   0  0  0  0  0  0  0  0  0  0  0  0
   -1.6221    1.2315    0.3051 C   0  0  0  0  0  0  0  0  0  0  0  0
   -2.4795    1.7461    0.7435 H   0  0  0  0  0  0  0  0  0  0  0  0
   -0.7390    1.8568    0.4537 H   0  0  0  0  0  0  0  0  0  0  0  0
   -1.8760    1.0672   -1.2004 C   0  0  0  0  0  0  0  0  0  0  0  0
   -1.0266    0.5647   -1.6652 H   0  0  0  0  0  0  0  0  0  0  0  0
   -2.7753    0.4692   -1.3515 H   0  0  0  0  0  0  0  0  0  0  0  0
   -2.0634    2.4441   -1.8520 C   0  0  0  0  0  0  0  0  0  0  0  0
   -2.8986    2.9506   -1.3627 H   0  0  0  0  0  0  0  0  0  0  0  0
   -1.1547    3.0298   -1.6945 H   0  0  0  0  0  0  0  0  0  0  0  0
   -2.3346    2.3331   -3.3001 N   0  3  0  0  0  0  0  0  0  0  0  0
   -2.3194    1.4075   -3.6929 H   0  0  0  0  0  0  0  0  0  0  0  0
   -2.5947    3.3332   -4.1254 C   0  0  0  0  0  0  0  0  0  0  0  0
   -2.6385    4.5718   -3.7214 N   0  0  0  0  0  0  0  0  0  0  0  0
   -2.4703    4.7704   -2.7510 H   0  0  0  0  0  0  0  0  0  0  0  0
   -2.8370    5.3191   -4.3610 H   0  0  0  0  0  0  0  0  0  0  0  0
   -2.8176    3.1054   -5.3886 N   0  0  0  0  0  0  0  0  0  0  0  0
   -2.7948    2.1663   -5.7472 H   0  0  0  0  0  0  0  0  0  0  0  0
   -3.0146    3.8669   -6.0113 H   0  0  0  0  0  0  0  0  0  0  0  0
   -0.9523    0.1012    2.4848 C   0  0  0  0  0  0  0  0  0  0  0  0
   -0.7642   -0.8709    3.2064 O   0  0  0  0  0  0  0  0  0  0  0  0
   -0.8042    1.3626    2.9015 N   0  0  0  0  0  0  0  0  0  0  0  0
   -0.9443    2.1000    2.2303 H   0  0  0  0  0  0  0  0  0  0  0  0
   -0.3622    1.7341    4.2466 C   0  0  0  0  0  0  0  0  0  0  0  0
    0.6579    1.3803    4.4110 H   0  0  0  0  0  0  0  0  0  0  0  0
   -0.3867    2.8177    4.3690 H   0  0  0  0  0  0  0  0  0  0  0  0
   -1.0116    1.2729    4.9939 H   0  0  0  0  0  0  0  0  0  0  0  0
  5  6  2  0  0  0  0
  5  7  1  0  0  0  0
  2  3  1  0  0  0  0
  2  4  1  0  0  0  0
  2  5  1  0  0  0  0
  1  2  1  0  0  0  0
 29 30  2  0  0  0  0
 29 31  1  0  0  0  0
 26 27  1  0  0  0  0
 26 28  1  0  0  0  0
 23 24  1  0  0  0  0
 23 25  1  0  0  0  0
 22 23  1  0  0  0  0
 22 26  1  0  0  0  0
 20 21  1  0  0  0  0
 20 22  2  0  0  0  0
 17 18  1  0  0  0  0
 17 19  1  0  0  0  0
 17 20  1  0  0  0  0
 14 15  1  0  0  0  0
 14 16  1  0  0  0  0
 14 17  1  0  0  0  0
 11 12  1  0  0  0  0
 11 13  1  0  0  0  0
 11 14  1  0  0  0  0
  9 10  1  0  0  0  0
  9 11  1  0  0  0  0
  9 29  1  0  0  0  0
  7  8  1  0  0  0  0
  7  9  1  0  0  0  0
 33 34  1  0  0  0  0
 33 35  1  0  0  0  0
 33 36  1  0  0  0  0
 31 32  1  0  0  0  0
 31 33  1  0  0  0  0
M  CHG  1  20   1
M  END
$$$$
default_name
  -OEChem-01062215323D

 36 35  0     1  0  0  0  0  0999 V2000
   -4.2256   -3.6731    1.8584 H   0  0  0  0  0  0  0  0  0  0  0  0
   -4.2396   -2.6781    1.4144 C   0  0  0  0  0  0  0  0  0  0  0  0
   -4.9506   -2.0521    1.9514 H   0  0  0  0  0  0  0  0  0  0  0  0
   -4.5266   -2.7521    0.3674 H   0  0  0  0  0  0  0  0  0  0  0  0
   -2.8576   -2.0761    1.5184 C   0  0  0  0  0  0  0  0  0  0  0  0
   -1.9456   -2.7051    2.0404 O   0  0  0  0  0  0  0  0  0  0  0  0
   -2.6926   -0.8481    1.0174 N   0  0  0  0  0  0  0  0  0  0  0  0
   -3.4926   -0.3971    0.5954 H   0  0  0  0  0  0  0  0  0  0  0  0
   -1.4216   -0.1071    1.0434 C   0  0  1  0  0  0  0  0  0  0  0  0
   -0.6709   -0.6930    0.5106 H   0  0  0  0  0  0  0  0  0  0  0  0
   -1.6221    1.2315    0.3051 C   0  0  0  0  0  0  0  0  0  0  0  0
   -2.4795    1.7461    0.7435 H   0  0  0  0  0  0  0  0  0  0  0  0
   -0.7390    1.8568    0.4537 H   0  0  0  0  0  0  0  0  0  0  0  0
   -1.8760    1.0672   -1.2004 C   0  0  0  0  0  0  0  0  0  0  0  0
   -1.0266    0.5647   -1.6652 H   0  0  0  0  0  0  0  0  0  0  0  0
   -2.7753    0.4692   -1.3515 H   0  0  0  0  0  0  0  0  0  0  0  0
   -2.0634    2.4441   -1.8520 C   0  0  0  0  0  0  0  0  0  0  0  0
   -2.8986    2.9506   -1.3627 H   0  0  0  0  0  0  0  0  0  0  0  0
   -1.1547    3.0298   -1.6945 H   0  0  0  0  0  0  0  0  0  0  0  0
   -2.3346    2.3331   -3.3001 N   0  3  0  0  0  0  0  0  0  0  0  0
   -2.3194    1.4075   -3.6929 H   0  0  0  0  0  0  0  0  0  0  0  0
   -2.5947    3.3332   -4.1254 C   0  0  0  0  0  0  0  0  0  0  0  0
   -2.6385    4.5718   -3.7214 N   0  0  0  0  0  0  0  0  0  0  0  0
   -2.4703    4.7704   -2.7510 H   0  0  0  0  0  0  0  0  0  0  0  0
   -2.8370    5.3191   -4.3610 H   0  0  0  0  0  0  0  0  0  0  0  0
   -2.8176    3.1054   -5.3886 N   0  0  0  0  0  0  0  0  0  0  0  0
   -2.7948    2.1663   -5.7472 H   0  0  0  0  0  0  0  0  0  0  0  0
   -3.0146    3.8669   -6.0113 H   0  0  0  0  0  0  0  0  0  0  0  0
   -0.9523    0.1012    2.4848 C   0  0  0  0  0  0  0  0  0  0  0  0
   -0.5019   -0.8464    3.1175 O   0  0  0  0  0  0  0  0  0  0  0  0
   -1.0957    1.3255    3.0017 N   0  0  0  0  0  0  0  0  0  0  0  0
   -1.4405    2.0542    2.3984 H   0  0  0  0  0  0  0  0  0  0  0  0
   -0.6967    1.6921    4.3616 C   0  0  0  0  0  0  0  0  0  0  0  0
    0.3850    1.5880    4.4699 H   0  0  0  0  0  0  0  0  0  0  0  0
   -0.9777    2.7242    4.5749 H   0  0  0  0  0  0  0  0  0  0  0  0
   -1.1806    1.0310    5.0839 H   0  0  0  0  0  0  0  0  0  0  0  0
  5  6  2  0  0  0  0
  5  7  1  0  0  0  0
  2  3  1  0  0  0  0
  2  4  1  0  0  0  0
  2  5  1  0  0  0  0
  1  2  1  0  0  0  0
 29 30  2  0  0  0  0
 29 31  1  0  0  0  0
 26 27  1  0  0  0  0
 26 28  1  0  0  0  0
 23 24  1  0  0  0  0
 23 25  1  0  0  0  0
 22 23  1  0  0  0  0
 22 26  1  0  0  0  0
 20 21  1  0  0  0  0
 20 22  2  0  0  0  0
 17 18  1  0  0  0  0
 17 19  1  0  0  0  0
 17 20  1  0  0  0  0
 14 15  1  0  0  0  0
 14 16  1  0  0  0  0
 14 17  1  0  0  0  0
 11 12  1  0  0  0  0
 11 13  1  0  0  0  0
 11 14  1  0  0  0  0
  9 10  1  0  0  0  0
  9 11  1  0  0  0  0
  9 29  1  0  0  0  0
  7  8  1  0  0  0  0
  7  9  1  0  0  0  0
 33 34  1  0  0  0  0
 33 35  1  0  0  0  0
 33 36  1  0  0  0  0
 31 32  1  0  0  0  0
 31 33  1  0  0  0  0
M  CHG  1  20   1
M  END
$$$$
default_name
  -OEChem-01062215323D

 36 35  0     1  0  0  0  0  0999 V2000
   -4.2256   -3.6731    1.8584 H   0  0  0  0  0  0  0  0  0  0  0  0
   -4.2396   -2.6781    1.4144 C   0  0  0  0  0  0  0  0  0  0  0  0
   -4.9506   -2.0521    1.9514 H   0  0  0  0  0  0  0  0  0  0  0  0
   -4.5266   -2.7521    0.3674 H   0  0  0  0  0  0  0  0  0  0  0  0
   -2.8576   -2.0761    1.5184 C   0  0  0  0  0  0  0  0  0  0  0  0
   -1.9456   -2.7051    2.0404 O   0  0  0  0  0  0  0  0  0  0  0  0
   -2.6926   -0.8481    1.0174 N   0  0  0  0  0  0  0  0  0  0  0  0
   -3.4926   -0.3971    0.5954 H   0  0  0  0  0  0  0  0  0  0  0  0
   -1.4216   -0.1071    1.0434 C   0  0  1  0  0  0  0  0  0  0  0  0
   -0.6709   -0.6930    0.5106 H   0  0  0  0  0  0  0  0  0  0  0  0
   -1.6221    1.2315    0.3051 C   0  0  0  0  0  0  0  0  0  0  0  0
   -2.4795    1.7461    0.7435 H   0  0  0  0  0  0  0  0  0  0  0  0
   -0.7390    1.8568    0.4537 H   0  0  0  0  0  0  0  0  0  0  0  0
   -1.8760    1.0672   -1.2004 C   0  0  0  0  0  0  0  0  0  0  0  0
   -1.0266    0.5647   -1.6652 H   0  0  0  0  0  0  0  0  0  0  0  0
   -2.7753    0.4692   -1.3515 H   0  0  0  0  0  0  0  0  0  0  0  0
   -2.0634    2.4441   -1.8520 C   0  0  0  0  0  0  0  0  0  0  0  0
   -2.8986    2.9506   -1.3627 H   0  0  0  0  0  0  0  0  0  0  0  0
   -1.1547    3.0298   -1.6945 H   0  0  0  0  0  0  0  0  0  0  0  0
   -2.3346    2.3331   -3.3001 N   0  3  0  0  0  0  0  0  0  0  0  0
   -2.3194    1.4075   -3.6929 H   0  0  0  0  0  0  0  0  0  0  0  0
   -2.5947    3.3332   -4.1254 C   0  0  0  0  0  0  0  0  0  0  0  0
   -2.6385    4.5718   -3.7214 N   0  0  0  0  0  0  0  0  0  0  0  0
   -2.4703    4.7704   -2.7510 H   0  0  0  0  0  0  0  0  0  0  0  0
   -2.8370    5.3191   -4.3610 H   0  0  0  0  0  0  0  0  0  0  0  0
   -2.8176    3.1054   -5.3886 N   0  0  0  0  0  0  0  0  0  0  0  0
   -2.7948    2.1663   -5.7472 H   0  0  0  0  0  0  0  0  0  0  0  0
   -3.0146    3.8669   -6.0113 H   0  0  0  0  0  0  0  0  0  0  0  0
   -0.9523    0.1012    2.4848 C   0  0  0  0  0  0  0  0  0  0  0  0
   -0.2576   -0.7517    3.0242 O   0  0  0  0  0  0  0  0  0  0  0  0
   -1.3647    1.2107    3.1059 N   0  0  0  0  0  0  0  0  0  0  0  0
   -1.9027    1.8757    2.5747 H   0  0  0  0  0  0  0  0  0  0  0  0
   -1.0056    1.5608    4.4812 C   0  0  0  0  0  0  0  0  0  0  0  0
    0.0728    1.7173    4.5528 H   0  0  0  0  0  0  0  0  0  0  0  0
   -1.5185    2.4735    4.7872 H   0  0  0  0  0  0  0  0  0  0  0  0
   -1.2818    0.7490    5.1576 H   0  0  0  0  0  0  0  0  0  0  0  0
  5  6  2  0  0  0  0
  5  7  1  0  0  0  0
  2  3  1  0  0  0  0
  2  4  1  0  0  0  0
  2  5  1  0  0  0  0
  1  2  1  0  0  0  0
 29 30  2  0  0  0  0
 29 31  1  0  0  0  0
 26 27  1  0  0  0  0
 26 28  1  0  0  0  0
 23 24  1  0  0  0  0
 23 25  1  0  0  0  0
 22 23  1  0  0  0  0
 22 26  1  0  0  0  0
 20 21  1  0  0  0  0
 20 22  2  0  0  0  0
 17 18  1  0  0  0  0
 17 19  1  0  0  0  0
 17 20  1  0  0  0  0
 14 15  1  0  0  0  0
 14 16  1  0  0  0  0
 14 17  1  0  0  0  0
 11 12  1  0  0  0  0
 11 13  1  0  0  0  0
 11 14  1  0  0  0  0
  9 10  1  0  0  0  0
  9 11  1  0  0  0  0
  9 29  1  0  0  0  0
  7  8  1  0  0  0  0
  7  9  1  0  0  0  0
 33 34  1  0  0  0  0
 33 35  1  0  0  0  0
 33 36  1  0  0  0  0
 31 32  1  0  0  0  0
 31 33  1  0  0  0  0
M  CHG  1  20   1
M  END
$$$$
default_name
  -OEChem-01062215323D

 36 35  0     1  0  0  0  0  0999 V2000
   -4.2256   -3.6731    1.8584 H   0  0  0  0  0  0  0  0  0  0  0  0
   -4.2396   -2.6781    1.4144 C   0  0  0  0  0  0  0  0  0  0  0  0
   -4.9506   -2.0521    1.9514 H   0  0  0  0  0  0  0  0  0  0  0  0
   -4.5266   -2.7521    0.3674 H   0  0  0  0  0  0  0  0  0  0  0  0
   -2.8576   -2.0761    1.5184 C   0  0  0  0  0  0  0  0  0  0  0  0
   -1.9456   -2.7051    2.0404 O   0  0  0  0  0  0  0  0  0  0  0  0
   -2.6926   -0.8481    1.0174 N   0  0  0  0  0  0  0  0  0  0  0  0
   -3.4926   -0.3971    0.5954 H   0  0  0  0  0  0  0  0  0  0  0  0
   -1.4216   -0.1071    1.0434 C   0  0  1  0  0  0  0  0  0  0  0  0
   -0.6709   -0.6930    0.5106 H   0  0  0  0  0  0  0  0  0  0  0  0
   -1.6221    1.2315    0.3051 C   0  0  0  0  0  0  0  0  0  0  0  0
   -2.4795    1.7461    0.7435 H   0  0  0  0  0  0  0  0  0  0  0  0
   -0.7390    1.8568    0.4537 H   0  0  0  0  0  0  0  0  0  0  0  0
   -1.8760    1.0672   -1.2004 C   0  0  0  0  0  0  0  0  0  0  0  0
   -1.0266    0.5647   -1.6652 H   0  0  0  0  0  0  0  0  0  0  0  0
   -2.7753    0.4692   -1.3515 H   0  0  0  0  0  0  0  0  0  0  0  0
   -2.0634    2.4441   -1.8520 C   0  0  0  0  0  0  0  0  0  0  0  0
   -2.8986    2.9506   -1.3627 H   0  0  0  0  0  0  0  0  0  0  0  0
   -1.1547    3.0298   -1.6945 H   0  0  0  0  0  0  0  0  0  0  0  0
   -2.3346    2.3331   -3.3001 N   0  3  0  0  0  0  0  0  0  0  0  0
   -2.3194    1.4075   -3.6929 H   0  0  0  0  0  0  0  0  0  0  0  0
   -2.5947    3.3332   -4.1254 C   0  0  0  0  0  0  0  0  0  0  0  0
   -2.6385    4.5718   -3.7214 N   0  0  0  0  0  0  0  0  0  0  0  0
   -2.4703    4.7704   -2.7510 H   0  0  0  0  0  0  0  0  0  0  0  0
   -2.8370    5.3191   -4.3610 H   0  0  0  0  0  0  0  0  0  0  0  0
   -2.8176    3.1054   -5.3886 N   0  0  0  0  0  0  0  0  0  0  0  0
   -2.7948    2.1663   -5.7472 H   0  0  0  0  0  0  0  0  0  0  0  0
   -3.0146    3.8669   -6.0113 H   0  0  0  0  0  0  0  0  0  0  0  0
   -0.9523    0.1012    2.4848 C   0  0  0  0  0  0  0  0  0  0  0  0
   -0.0480   -0.5932    2.9331 O   0  0  0  0  0  0  0  0  0  0  0  0
   -1.5929    1.0258    3.2069 N   0  0  0  0  0  0  0  0  0  0  0  0
   -2.2995    1.5765    2.7471 H   0  0  0  0  0  0  0  0  0  0  0  0
   -1.2678    1.3492    4.5971 C   0  0  0  0  0  0  0  0  0  0  0  0
   -0.2573    1.7596    4.6541 H   0  0  0  0  0  0  0  0  0  0  0  0
   -1.9722    2.0827    4.9914 H   0  0  0  0  0  0  0  0  0  0  0  0
   -1.3081    0.4461    5.2099 H   0  0  0  0  0  0  0  0  0  0  0  0
  5  6  2  0  0  0  0
  5  7  1  0  0  0  0
  2  3  1  0  0  0  0
  2  4  1  0  0  0  0
  2  5  1  0  0  0  0
  1  2  1  0  0  0  0
 29 30  2  0  0  0  0
 29 31  1  0  0  0  0
 26 27  1  0  0  0  0
 26 28  1  0  0  0  0
 23 24  1  0  0  0  0
 23 25  1  0  0  0  0
 22 23  1  0  0  0  0
 22 26  1  0  0  0  0
 20 21  1  0  0  0  0
 20 22  2  0  0  0  0
 17 18  1  0  0  0  0
 17 19  1  0  0  0  0
 17 20  1  0  0  0  0
 14 15  1  0  0  0  0
 14 16  1  0  0  0  0
 14 17  1  0  0  0  0
 11 12  1  0  0  0  0
 11 13  1  0  0  0  0
 11 14  1  0  0  0  0
  9 10  1  0  0  0  0
  9 11  1  0  0  0  0
  9 29  1  0  0  0  0
  7  8  1  0  0  0  0
  7  9  1  0  0  0  0
 33 34  1  0  0  0  0
 33 35  1  0  0  0  0
 33 36  1  0  0  0  0
 31 32  1  0  0  0  0
 31 33  1  0  0  0  0
M  CHG  1  20   1
M  END
$$$$
default_name
  -OEChem-01062215323D

 36 35  0     1  0  0  0  0  0999 V2000
   -4.2256   -3.6731    1.8584 H   0  0  0  0  0  0  0  0  0  0  0  0
   -4.2396   -2.6781    1.4144 C   0  0  0  0  0  0  0  0  0  0  0  0
   -4.9506   -2.0521    1.9514 H   0  0  0  0  0  0  0  0  0  0  0  0
   -4.5266   -2.7521    0.3674 H   0  0  0  0  0  0  0  0  0  0  0  0
   -2.8576   -2.0761    1.5184 C   0  0  0  0  0  0  0  0  0  0  0  0
   -1.9456   -2.7051    2.0404 O   0  0  0  0  0  0  0  0  0  0  0  0
   -2.6926   -0.8481    1.0174 N   0  0  0  0  0  0  0  0  0  0  0  0
   -3.4926   -0.3971    0.5954 H   0  0  0  0  0  0  0  0  0  0  0  0
   -1.4216   -0.1071    1.0434 C   0  0  1  0  0  0  0  0  0  0  0  0
   -0.6709   -0.6930    0.5106 H   0  0  0  0  0  0  0  0  0  0  0  0
   -1.6221    1.2315    0.3051 C   0  0  0  0  0  0  0  0  0  0  0  0
   -2.4795    1.7461    0.7435 H   0  0  0  0  0  0  0  0  0  0  0  0
   -0.7390    1.8568    0.4537 H   0  0  0  0  0  0  0  0  0  0  0  0
   -1.8760    1.0672   -1.2004 C   0  0  0  0  0  0  0  0  0  0  0  0
   -1.0266    0.5647   -1.6652 H   0  0  0  0  0  0  0  0  0  0  0  0
   -2.7753    0.4692   -1.3515 H   0  0  0  0  0  0  0  0  0  0  0  0
   -2.0634    2.4441   -1.8520 C   0  0  0  0  0  0  0  0  0  0  0  0
   -2.8986    2.9506   -1.3627 H   0  0  0  0  0  0  0  0  0  0  0  0
   -1.1547    3.0298   -1.6945 H   0  0  0  0  0  0  0  0  0  0  0  0
   -2.3346    2.3331   -3.3001 N   0  3  0  0  0  0  0  0  0  0  0  0
   -2.3194    1.4075   -3.6929 H   0  0  0  0  0  0  0  0  0  0  0  0
   -2.5947    3.3332   -4.1254 C   0  0  0  0  0  0  0  0  0  0  0  0
   -2.6385    4.5718   -3.7214 N   0  0  0  0  0  0  0  0  0  0  0  0
   -2.4703    4.7704   -2.7510 H   0  0  0  0  0  0  0  0  0  0  0  0
   -2.8370    5.3191   -4.3610 H   0  0  0  0  0  0  0  0  0  0  0  0
   -2.8176    3.1054   -5.3886 N   0  0  0  0  0  0  0  0  0  0  0  0
   -2.7948    2.1663   -5.7472 H   0  0  0  0  0  0  0  0  0  0  0  0
   -3.0146    3.8669   -6.0113 H   0  0  0  0  0  0  0  0  0  0  0  0
   -0.9523    0.1012    2.4848 C   0  0  0  0  0  0  0  0  0  0  0  0
    0.1127   -0.3818    2.8503 O   0  0  0  0  0  0  0  0  0  0  0  0
   -1.7647    0.7837    3.2978 N   0  0  0  0  0  0  0  0  0  0  0  0
   -2.6036    1.1772    2.9039 H   0  0  0  0  0  0  0  0  0  0  0  0
   -1.4653    1.0717    4.7015 C   0  0  0  0  0  0  0  0  0  0  0  0
   -0.5829    1.7119    4.7670 H   0  0  0  0  0  0  0  0  0  0  0  0
   -2.3080    1.5783    5.1736 H   0  0  0  0  0  0  0  0  0  0  0  0
   -1.2579    0.1429    5.2374 H   0  0  0  0  0  0  0  0  0  0  0  0
  5  6  2  0  0  0  0
  5  7  1  0  0  0  0
  2  3  1  0  0  0  0
  2  4  1  0  0  0  0
  2  5  1  0  0  0  0
  1  2  1  0  0  0  0
 29 30  2  0  0  0  0
 29 31  1  0  0  0  0
 26 27  1  0  0  0  0
 26 28  1  0  0  0  0
 23 24  1  0  0  0  0
 23 25  1  0  0  0  0
 22 23  1  0  0  0  0
 22 26  1  0  0  0  0
 20 21  1  0  0  0  0
 20 22  2  0  0  0  0
 17 18  1  0  0  0  0
 17 19  1  0  0  0  0
 17 20  1  0  0  0  0
 14 15  1  0  0  0  0
 14 16  1  0  0  0  0
 14 17  1  0  0  0  0
 11 12  1  0  0  0  0
 11 13  1  0  0  0  0
 11 14  1  0  0  0  0
  9 10  1  0  0  0  0
  9 11  1  0  0  0  0
  9 29  1  0  0  0  0
  7  8  1  0  0  0  0
  7  9  1  0  0  0  0
 33 34  1  0  0  0  0
 33 35  1  0  0  0  0
 33 36  1  0  0  0  0
 31 32  1  0  0  0  0
 31 33  1  0  0  0  0
M  CHG  1  20   1
M  END
$$$$
default_name
  -OEChem-01062215323D

 36 35  0     1  0  0  0  0  0999 V2000
   -4.2256   -3.6731    1.8584 H   0  0  0  0  0  0  0  0  0  0  0  0
   -4.2396   -2.6781    1.4144 C   0  0  0  0  0  0  0  0  0  0  0  0
   -4.9506   -2.0521    1.9514 H   0  0  0  0  0  0  0  0  0  0  0  0
   -4.5266   -2.7521    0.3674 H   0  0  0  0  0  0  0  0  0  0  0  0
   -2.8576   -2.0761    1.5184 C   0  0  0  0  0  0  0  0  0  0  0  0
   -1.9456   -2.7051    2.0404 O   0  0  0  0  0  0  0  0  0  0  0  0
   -2.6926   -0.8481    1.0174 N   0  0  0  0  0  0  0  0  0  0  0  0
   -3.4926   -0.3971    0.5954 H   0  0  0  0  0  0  0  0  0  0  0  0
   -1.4216   -0.1071    1.0434 C   0  0  1  0  0  0  0  0  0  0  0  0
   -0.6709   -0.6930    0.5106 H   0  0  0  0  0  0  0  0  0  0  0  0
   -1.6221    1.2315    0.3051 C   0  0  0  0  0  0  0  0  0  0  0  0
   -2.4795    1.7461    0.7435 H   0  0  0  0  0  0  0  0  0  0  0  0
   -0.7390    1.8568    0.4537 H   0  0  0  0  0  0  0  0  0  0  0  0
   -1.8760    1.0672   -1.2004 C   0  0  0  0  0  0  0  0  0  0  0  0
   -1.0266    0.5647   -1.6652 H   0  0  0  0  0  0  0  0  0  0  0  0
   -2.7753    0.4692   -1.3515 H   0  0  0  0  0  0  0  0  0  0  0  0
   -2.0634    2.4441   -1.8520 C   0  0  0  0  0  0  0  0  0  0  0  0
   -2.8986    2.9506   -1.3627 H   0  0  0  0  0  0  0  0  0  0  0  0
   -1.1547    3.0298   -1.6945 H   0  0  0  0  0  0  0  0  0  0  0  0
   -2.3346    2.3331   -3.3001 N   0  3  0  0  0  0  0  0  0  0  0  0
   -2.3194    1.4075   -3.6929 H   0  0  0  0  0  0  0  0  0  0  0  0
   -2.5947    3.3332   -4.1254 C   0  0  0  0  0  0  0  0  0  0  0  0
   -2.6385    4.5718   -3.7214 N   0  0  0  0  0  0  0  0  0  0  0  0
   -2.4703    4.7704   -2.7510 H   0  0  0  0  0  0  0  0  0  0  0  0
   -2.8370    5.3191   -4.3610 H   0  0  0  0  0  0  0  0  0  0  0  0
   -2.8176    3.1054   -5.3886 N   0  0  0  0  0  0  0  0  0  0  0  0
   -2.7948    2.1663   -5.7472 H   0  0  0  0  0  0  0  0  0  0  0  0
   -3.0146    3.8669   -6.0113 H   0  0  0  0  0  0  0  0  0  0  0  0
   -0.9523    0.1012    2.4848 C   0  0  0  0  0  0  0  0  0  0  0  0
    0.2133   -0.1319    2.7814 O   0  0  0  0  0  0  0  0  0  0  0  0
   -1.8684    0.5006    3.3725 N   0  0  0  0  0  0  0  0  0  0  0  0
   -2.7946    0.7048    3.0343 H   0  0  0  0  0  0  0  0  0  0  0  0
   -1.5848    0.7472    4.7873 C   0  0  0  0  0  0  0  0  0  0  0  0
   -0.8819    1.5774    4.8838 H   0  0  0  0  0  0  0  0  0  0  0  0
   -2.5030    0.9948    5.3214 H   0  0  0  0  0  0  0  0  0  0  0  0
   -1.1344   -0.1399    5.2381 H   0  0  0  0  0  0  0  0  0  0  0  0
  5  6  2  0  0  0  0
  5  7  1  0  0  0  0
  2  3  1  0  0  0  0
  2  4  1  0  0  0  0
  2  5  1  0  0  0  0
  1  2  1  0  0  0  0
 29 30  2  0  0  0  0
 29 31  1  0  0  0  0
 26 27  1  0  0  0  0
 26 28  1  0  0  0  0
 23 24  1  0  0  0  0
 23 25  1  0  0  0  0
 22 23  1  0  0  0  0
 22 26  1  0  0  0  0
 20 21  1  0  0  0  0
 20 22  2  0  0  0  0
 17 18  1  0  0  0  0
 17 19  1  0  0  0  0
 17 20  1  0  0  0  0
 14 15  1  0  0  0  0
 14 16  1  0  0  0  0
 14 17  1  0  0  0  0
 11 12  1  0  0  0  0
 11 13  1  0  0  0  0
 11 14  1  0  0  0  0
  9 10  1  0  0  0  0
  9 11  1  0  0  0  0
  9 29  1  0  0  0  0
  7  8  1  0  0  0  0
  7  9  1  0  0  0  0
 33 34  1  0  0  0  0
 33 35  1  0  0  0  0
 33 36  1  0  0  0  0
 31 32  1  0  0  0  0
 31 33  1  0  0  0  0
M  CHG  1  20   1
M  END
$$$$
default_name
  -OEChem-01062215323D

 36 35  0     1  0  0  0  0  0999 V2000
   -4.2256   -3.6731    1.8584 H   0  0  0  0  0  0  0  0  0  0  0  0
   -4.2396   -2.6781    1.4144 C   0  0  0  0  0  0  0  0  0  0  0  0
   -4.9506   -2.0521    1.9514 H   0  0  0  0  0  0  0  0  0  0  0  0
   -4.5266   -2.7521    0.3674 H   0  0  0  0  0  0  0  0  0  0  0  0
   -2.8576   -2.0761    1.5184 C   0  0  0  0  0  0  0  0  0  0  0  0
   -1.9456   -2.7051    2.0404 O   0  0  0  0  0  0  0  0  0  0  0  0
   -2.6926   -0.8481    1.0174 N   0  0  0  0  0  0  0  0  0  0  0  0
   -3.4926   -0.3971    0.5954 H   0  0  0  0  0  0  0  0  0  0  0  0
   -1.4216   -0.1071    1.0434 C   0  0  1  0  0  0  0  0  0  0  0  0
   -0.6709   -0.6930    0.5106 H   0  0  0  0  0  0  0  0  0  0  0  0
   -1.6221    1.2315    0.3051 C   0  0  0  0  0  0  0  0  0  0  0  0
   -2.4795    1.7461    0.7435 H   0  0  0  0  0  0  0  0  0  0  0  0
   -0.7390    1.8568    0.4537 H   0  0  0  0  0  0  0  0  0  0  0  0
   -1.8760    1.0672   -1.2004 C   0  0  0  0  0  0  0  0  0  0  0  0
   -1.0266    0.5647   -1.6652 H   0  0  0  0  0  0  0  0  0  0  0  0
   -2.7753    0.4692   -1.3515 H   0  0  0  0  0  0  0  0  0  0  0  0
   -2.0634    2.4441   -1.8520 C   0  0  0  0  0  0  0  0  0  0  0  0
   -2.8986    2.9506   -1.3627 H   0  0  0  0  0  0  0  0  0  0  0  0
   -1.1547    3.0298   -1.6945 H   0  0  0  0  0  0  0  0  0  0  0  0
   -2.3346    2.3331   -3.3001 N   0  3  0  0  0  0  0  0  0  0  0  0
   -2.3194    1.4075   -3.6929 H   0  0  0  0  0  0  0  0  0  0  0  0
   -2.5947    3.3332   -4.1254 C   0  0  0  0  0  0  0  0  0  0  0  0
   -2.6385    4.5718   -3.7214 N   0  0  0  0  0  0  0  0  0  0  0  0
   -2.4703    4.7704   -2.7510 H   0  0  0  0  0  0  0  0  0  0  0  0
   -2.8370    5.3191   -4.3610 H   0  0  0  0  0  0  0  0  0  0  0  0
   -2.8176    3.1054   -5.3886 N   0  0  0  0  0  0  0  0  0  0  0  0
   -2.7948    2.1663   -5.7472 H   0  0  0  0  0  0  0  0  0  0  0  0
   -3.0146    3.8669   -6.0113 H   0  0  0  0  0  0  0  0  0  0  0  0
   -0.9523    0.1012    2.4848 C   0  0  0  0  0  0  0  0  0  0  0  0
    0.2472    0.1395    2.7311 O   0  0  0  0  0  0  0  0  0  0  0  0
   -1.8969    0.1960    3.4258 N   0  0  0  0  0  0  0  0  0  0  0  0
   -2.8592    0.1916    3.1295 H   0  0  0  0  0  0  0  0  0  0  0  0
   -1.6180    0.3978    4.8486 C   0  0  0  0  0  0  0  0  0  0  0  0
   -1.1337    1.3654    4.9964 H   0  0  0  0  0  0  0  0  0  0  0  0
   -2.5438    0.3719    5.4248 H   0  0  0  0  0  0  0  0  0  0  0  0
   -0.9462   -0.3830    5.2120 H   0  0  0  0  0  0  0  0  0  0  0  0
  5  6  2  0  0  0  0
  5  7  1  0  0  0  0
  2  3  1  0  0  0  0
  2  4  1  0  0  0  0
  2  5  1  0  0  0  0
  1  2  1  0  0  0  0
 29 30  2  0  0  0  0
 29 31  1  0  0  0  0
 26 27  1  0  0  0  0
 26 28  1  0  0  0  0
 23 24  1  0  0  0  0
 23 25  1  0  0  0  0
 22 23  1  0  0  0  0
 22 26  1  0  0  0  0
 20 21  1  0  0  0  0
 20 22  2  0  0  0  0
 17 18  1  0  0  0  0
 17 19  1  0  0  0  0
 17 20  1  0  0  0  0
 14 15  1  0  0  0  0
 14 16  1  0  0  0  0
 14 17  1  0  0  0  0
 11 12  1  0  0  0  0
 11 13  1  0  0  0  0
 11 14  1  0  0  0  0
  9 10  1  0  0  0  0
  9 11  1  0  0  0  0
  9 29  1  0  0  0  0
  7  8  1  0  0  0  0
  7  9  1  0  0  0  0
 33 34  1  0  0  0  0
 33 35  1  0  0  0  0
 33 36  1  0  0  0  0
 31 32  1  0  0  0  0
 31 33  1  0  0  0  0
M  CHG  1  20   1
M  END
$$$$
default_name
  -OEChem-01062215323D

 36 35  0     1  0  0  0  0  0999 V2000
   -4.2256   -3.6731    1.8584 H   0  0  0  0  0  0  0  0  0  0  0  0
   -4.2396   -2.6781    1.4144 C   0  0  0  0  0  0  0  0  0  0  0  0
   -4.9506   -2.0521    1.9514 H   0  0  0  0  0  0  0  0  0  0  0  0
   -4.5266   -2.7521    0.3674 H   0  0  0  0  0  0  0  0  0  0  0  0
   -2.8576   -2.0761    1.5184 C   0  0  0  0  0  0  0  0  0  0  0  0
   -1.9456   -2.7051    2.0404 O   0  0  0  0  0  0  0  0  0  0  0  0
   -2.6926   -0.8481    1.0174 N   0  0  0  0  0  0  0  0  0  0  0  0
   -3.4926   -0.3971    0.5954 H   0  0  0  0  0  0  0  0  0  0  0  0
   -1.4216   -0.1071    1.0434 C   0  0  1  0  0  0  0  0  0  0  0  0
   -0.6709   -0.6930    0.5106 H   0  0  0  0  0  0  0  0  0  0  0  0
   -1.6221    1.2315    0.3051 C   0  0  0  0  0  0  0  0  0  0  0  0
   -2.4795    1.7461    0.7435 H   0  0  0  0  0  0  0  0  0  0  0  0
   -0.7390    1.8568    0.4537 H   0  0  0  0  0  0  0  0  0  0  0  0
   -1.8760    1.0672   -1.2004 C   0  0  0  0  0  0  0  0  0  0  0  0
   -1.0266    0.5647   -1.6652 H   0  0  0  0  0  0  0  0  0  0  0  0
   -2.7753    0.4692   -1.3515 H   0  0  0  0  0  0  0  0  0  0  0  0
   -2.0634    2.4441   -1.8520 C   0  0  0  0  0  0  0  0  0  0  0  0
   -2.8986    2.9506   -1.3627 H   0  0  0  0  0  0  0  0  0  0  0  0
   -1.1547    3.0298   -1.6945 H   0  0  0  0  0  0  0  0  0  0  0  0
   -2.3346    2.3331   -3.3001 N   0  3  0  0  0  0  0  0  0  0  0  0
   -2.3194    1.4075   -3.6929 H   0  0  0  0  0  0  0  0  0  0  0  0
   -2.5947    3.3332   -4.1254 C   0  0  0  0  0  0  0  0  0  0  0  0
   -2.6385    4.5718   -3.7214 N   0  0  0  0  0  0  0  0  0  0  0  0
   -2.4703    4.7704   -2.7510 H   0  0  0  0  0  0  0  0  0  0  0  0
   -2.8370    5.3191   -4.3610 H   0  0  0  0  0  0  0  0  0  0  0  0
   -2.8176    3.1054   -5.3886 N   0  0  0  0  0  0  0  0  0  0  0  0
   -2.7948    2.1663   -5.7472 H   0  0  0  0  0  0  0  0  0  0  0  0
   -3.0146    3.8669   -6.0113 H   0  0  0  0  0  0  0  0  0  0  0  0
   -0.9523    0.1012    2.4848 C   0  0  0  0  0  0  0  0  0  0  0  0
    0.2120    0.4139    2.7029 O   0  0  0  0  0  0  0  0  0  0  0  0
   -1.8483   -0.1093    3.4541 N   0  0  0  0  0  0  0  0  0  0  0  0
   -2.7932   -0.3274    3.1831 H   0  0  0  0  0  0  0  0  0  0  0  0
   -1.5628    0.0473    4.8813 C   0  0  0  0  0  0  0  0  0  0  0  0
   -1.3213    1.0903    5.0972 H   0  0  0  0  0  0  0  0  0  0  0  0
   -2.4277   -0.2480    5.4766 H   0  0  0  0  0  0  0  0  0  0  0  0
   -0.7061   -0.5698    5.1608 H   0  0  0  0  0  0  0  0  0  0  0  0
  5  6  2  0  0  0  0
  5  7  1  0  0  0  0
  2  3  1  0  0  0  0
  2  4  1  0  0  0  0
  2  5  1  0  0  0  0
  1  2  1  0  0  0  0
 29 30  2  0  0  0  0
 29 31  1  0  0  0  0
 26 27  1  0  0  0  0
 26 28  1  0  0  0  0
 23 24  1  0  0  0  0
 23 25  1  0  0  0  0
 22 23  1  0  0  0  0
 22 26  1  0  0  0  0
 20 21  1  0  0  0  0
 20 22  2  0  0  0  0
 17 18  1  0  0  0  0
 17 19  1  0  0  0  0
 17 20  1  0  0  0  0
 14 15  1  0  0  0  0
 14 16  1  0  0  0  0
 14 17  1  0  0  0  0
 11 12  1  0  0  0  0
 11 13  1  0  0  0  0
 11 14  1  0  0  0  0
  9 10  1  0  0  0  0
  9 11  1  0  0  0  0
  9 29  1  0  0  0  0
  7  8  1  0  0  0  0
  7  9  1  0  0  0  0
 33 34  1  0  0  0  0
 33 35  1  0  0  0  0
 33 36  1  0  0  0  0
 31 32  1  0  0  0  0
 31 33  1  0  0  0  0
M  CHG  1  20   1
M  END
$$$$
default_name
  -OEChem-01062215323D

 36 35  0     1  0  0  0  0  0999 V2000
   -4.2256   -3.6731    1.8584 H   0  0  0  0  0  0  0  0  0  0  0  0
   -4.2396   -2.6781    1.4144 C   0  0  0  0  0  0  0  0  0  0  0  0
   -4.9506   -2.0521    1.9514 H   0  0  0  0  0  0  0  0  0  0  0  0
   -4.5266   -2.7521    0.3674 H   0  0  0  0  0  0  0  0  0  0  0  0
   -2.8576   -2.0761    1.5184 C   0  0  0  0  0  0  0  0  0  0  0  0
   -1.9456   -2.7051    2.0404 O   0  0  0  0  0  0  0  0  0  0  0  0
   -2.6926   -0.8481    1.0174 N   0  0  0  0  0  0  0  0  0  0  0  0
   -3.4926   -0.3971    0.5954 H   0  0  0  0  0  0  0  0  0  0  0  0
   -1.4216   -0.1071    1.0434 C   0  0  1  0  0  0  0  0  0  0  0  0
   -0.6709   -0.6930    0.5106 H   0  0  0  0  0  0  0  0  0  0  0  0
   -1.6221    1.2315    0.3051 C   0  0  0  0  0  0  0  0  0  0  0  0
   -2.4795    1.7461    0.7435 H   0  0  0  0  0  0  0  0  0  0  0  0
   -0.7390    1.8568    0.4537 H   0  0  0  0  0  0  0  0  0  0  0  0
   -1.8760    1.0672   -1.2004 C   0  0  0  0  0  0  0  0  0  0  0  0
   -1.0266    0.5647   -1.6652 H   0  0  0  0  0  0  0  0  0  0  0  0
   -2.7753    0.4692   -1.3515 H   0  0  0  0  0  0  0  0  0  0  0  0
   -2.0634    2.4441   -1.8520 C   0  0  0  0  0  0  0  0  0  0  0  0
   -2.8986    2.9506   -1.3627 H   0  0  0  0  0  0  0  0  0  0  0  0
   -1.1547    3.0298   -1.6945 H   0  0  0  0  0  0  0  0  0  0  0  0
   -2.3346    2.3331   -3.3001 N   0  3  0  0  0  0  0  0  0  0  0  0
   -2.3194    1.4075   -3.6929 H   0  0  0  0  0  0  0  0  0  0  0  0
   -2.5947    3.3332   -4.1254 C   0  0  0  0  0  0  0  0  0  0  0  0
   -2.6385    4.5718   -3.7214 N   0  0  0  0  0  0  0  0  0  0  0  0
   -2.4703    4.7704   -2.7510 H   0  0  0  0  0  0  0  0  0  0  0  0
   -2.8370    5.3191   -4.3610 H   0  0  0  0  0  0  0  0  0  0  0  0
   -2.8176    3.1054   -5.3886 N   0  0  0  0  0  0  0  0  0  0  0  0
   -2.7948    2.1663   -5.7472 H   0  0  0  0  0  0  0  0  0  0  0  0
   -3.0146    3.8669   -6.0113 H   0  0  0  0  0  0  0  0  0  0  0  0
   -0.9523    0.1012    2.4848 C   0  0  0  0  0  0  0  0  0  0  0  0
    0.1101    0.6727    2.6987 O   0  0  0  0  0  0  0  0  0  0  0  0
   -1.7259   -0.3947    3.4556 N   0  0  0  0  0  0  0  0  0  0  0  0
   -2.6010   -0.8169    3.1912 H   0  0  0  0  0  0  0  0  0  0  0  0
   -1.4228   -0.2803    4.8831 C   0  0  0  0  0  0  0  0  0  0  0  0
   -1.4319    0.7708    5.1794 H   0  0  0  0  0  0  0  0  0  0  0  0
   -2.1627   -0.8225    5.4733 H   0  0  0  0  0  0  0  0  0  0  0  0
   -0.4304   -0.6877    5.0881 H   0  0  0  0  0  0  0  0  0  0  0  0
  5  6  2  0  0  0  0
  5  7  1  0  0  0  0
  2  3  1  0  0  0  0
  2  4  1  0  0  0  0
  2  5  1  0  0  0  0
  1  2  1  0  0  0  0
 29 30  2  0  0  0  0
 29 31  1  0  0  0  0
 26 27  1  0  0  0  0
 26 28  1  0  0  0  0
 23 24  1  0  0  0  0
 23 25  1  0  0  0  0
 22 23  1  0  0  0  0
 22 26  1  0  0  0  0
 20 21  1  0  0  0  0
 20 22  2  0  0  0  0
 17 18  1  0  0  0  0
 17 19  1  0  0  0  0
 17 20  1  0  0  0  0
 14 15  1  0  0  0  0
 14 16  1  0  0  0  0
 14 17  1  0  0  0  0
 11 12  1  0  0  0  0
 11 13  1  0  0  0  0
 11 14  1  0  0  0  0
  9 10  1  0  0  0  0
  9 11  1  0  0  0  0
  9 29  1  0  0  0  0
  7  8  1  0  0  0  0
  7  9  1  0  0  0  0
 33 34  1  0  0  0  0
 33 35  1  0  0  0  0
 33 36  1  0  0  0  0
 31 32  1  0  0  0  0
 31 33  1  0  0  0  0
M  CHG  1  20   1
M  END
$$$$
default_name
  -OEChem-01062215323D

 36 35  0     1  0  0  0  0  0999 V2000
   -4.2256   -3.6731    1.8584 H   0  0  0  0  0  0  0  0  0  0  0  0
   -4.2396   -2.6781    1.4144 C   0  0  0  0  0  0  0  0  0  0  0  0
   -4.9506   -2.0521    1.9514 H   0  0  0  0  0  0  0  0  0  0  0  0
   -4.5266   -2.7521    0.3674 H   0  0  0  0  0  0  0  0  0  0  0  0
   -2.8576   -2.0761    1.5184 C   0  0  0  0  0  0  0  0  0  0  0  0
   -1.9456   -2.7051    2.0404 O   0  0  0  0  0  0  0  0  0  0  0  0
   -2.6926   -0.8481    1.0174 N   0  0  0  0  0  0  0  0  0  0  0  0
   -3.4926   -0.3971    0.5954 H   0  0  0  0  0  0  0  0  0  0  0  0
   -1.4216   -0.1071    1.0434 C   0  0  1  0  0  0  0  0  0  0  0  0
   -0.6709   -0.6930    0.5106 H   0  0  0  0  0  0  0  0  0  0  0  0
   -1.6221    1.2315    0.3051 C   0  0  0  0  0  0  0  0  0  0  0  0
   -2.4795    1.7461    0.7435 H   0  0  0  0  0  0  0  0  0  0  0  0
   -0.7390    1.8568    0.4537 H   0  0  0  0  0  0  0  0  0  0  0  0
   -1.8760    1.0672   -1.2004 C   0  0  0  0  0  0  0  0  0  0  0  0
   -1.0266    0.5647   -1.6652 H   0  0  0  0  0  0  0  0  0  0  0  0
   -2.7753    0.4692   -1.3515 H   0  0  0  0  0  0  0  0  0  0  0  0
   -2.0634    2.4441   -1.8520 C   0  0  0  0  0  0  0  0  0  0  0  0
   -2.8986    2.9506   -1.3627 H   0  0  0  0  0  0  0  0  0  0  0  0
   -1.1547    3.0298   -1.6945 H   0  0  0  0  0  0  0  0  0  0  0  0
   -2.3346    2.3331   -3.3001 N   0  3  0  0  0  0  0  0  0  0  0  0
   -2.3194    1.4075   -3.6929 H   0  0  0  0  0  0  0  0  0  0  0  0
   -2.5947    3.3332   -4.1254 C   0  0  0  0  0  0  0  0  0  0  0  0
   -2.6385    4.5718   -3.7214 N   0  0  0  0  0  0  0  0  0  0  0  0
   -2.4703    4.7704   -2.7510 H   0  0  0  0  0  0  0  0  0  0  0  0
   -2.8370    5.3191   -4.3610 H   0  0  0  0  0  0  0  0  0  0  0  0
   -2.8176    3.1054   -5.3886 N   0  0  0  0  0  0  0  0  0  0  0  0
   -2.7948    2.1663   -5.7472 H   0  0  0  0  0  0  0  0  0  0  0  0
   -3.0146    3.8669   -6.0113 H   0  0  0  0  0  0  0  0  0  0  0  0
   -0.9523    0.1012    2.4848 C   0  0  0  0  0  0  0  0  0  0  0  0
   -0.0516    0.8981    2.7187 O   0  0  0  0  0  0  0  0  0  0  0  0
   -1.5381   -0.6407    3.4299 N   0  0  0  0  0  0  0  0  0  0  0  0
   -2.2957   -1.2435    3.1535 H   0  0  0  0  0  0  0  0  0  0  0  0
   -1.2077   -0.5628    4.8539 C   0  0  0  0  0  0  0  0  0  0  0  0
   -1.4579    0.4287    5.2373 H   0  0  0  0  0  0  0  0  0  0  0  0
   -1.7667   -1.3126    5.4153 H   0  0  0  0  0  0  0  0  0  0  0  0
   -0.1379   -0.7286    4.9988 H   0  0  0  0  0  0  0  0  0  0  0  0
  5  6  2  0  0  0  0
  5  7  1  0  0  0  0
  2  3  1  0  0  0  0
  2  4  1  0  0  0  0
  2  5  1  0  0  0  0
  1  2  1  0  0  0  0
 29 30  2  0  0  0  0
 29 31  1  0  0  0  0
 26 27  1  0  0  0  0
 26 28  1  0  0  0  0
 23 24  1  0  0  0  0
 23 25  1  0  0  0  0
 22 23  1  0  0  0  0
 22 26  1  0  0  0  0
 20 21  1  0  0  0  0
 20 22  2  0  0  0  0
 17 18  1  0  0  0  0
 17 19  1  0  0  0  0
 17 20  1  0  0  0  0
 14 15  1  0  0  0  0
 14 16  1  0  0  0  0
 14 17  1  0  0  0  0
 11 12  1  0  0  0  0
 11 13  1  0  0  0  0
 11 14  1  0  0  0  0
  9 10  1  0  0  0  0
  9 11  1  0  0  0  0
  9 29  1  0  0  0  0
  7  8  1  0  0  0  0
  7  9  1  0  0  0  0
 33 34  1  0  0  0  0
 33 35  1  0  0  0  0
 33 36  1  0  0  0  0
 31 32  1  0  0  0  0
 31 33  1  0  0  0  0
M  CHG  1  20   1
M  END
$$$$
default_name
  -OEChem-01062215323D

 36 35  0     1  0  0  0  0  0999 V2000
   -4.2256   -3.6731    1.8584 H   0  0  0  0  0  0  0  0  0  0  0  0
   -4.2396   -2.6781    1.4144 C   0  0  0  0  0  0  0  0  0  0  0  0
   -4.9506   -2.0521    1.9514 H   0  0  0  0  0  0  0  0  0  0  0  0
   -4.5266   -2.7521    0.3674 H   0  0  0  0  0  0  0  0  0  0  0  0
   -2.8576   -2.0761    1.5184 C   0  0  0  0  0  0  0  0  0  0  0  0
   -1.9456   -2.7051    2.0404 O   0  0  0  0  0  0  0  0  0  0  0  0
   -2.6926   -0.8481    1.0174 N   0  0  0  0  0  0  0  0  0  0  0  0
   -3.4926   -0.3971    0.5954 H   0  0  0  0  0  0  0  0  0  0  0  0
   -1.4216   -0.1071    1.0434 C   0  0  1  0  0  0  0  0  0  0  0  0
   -0.6709   -0.6930    0.5106 H   0  0  0  0  0  0  0  0  0  0  0  0
   -1.6221    1.2315    0.3051 C   0  0  0  0  0  0  0  0  0  0  0  0
   -2.4795    1.7461    0.7435 H   0  0  0  0  0  0  0  0  0  0  0  0
   -0.7390    1.8568    0.4537 H   0  0  0  0  0  0  0  0  0  0  0  0
   -1.8760    1.0672   -1.2004 C   0  0  0  0  0  0  0  0  0  0  0  0
   -1.0266    0.5647   -1.6652 H   0  0  0  0  0  0  0  0  0  0  0  0
   -2.7753    0.4692   -1.3515 H   0  0  0  0  0  0  0  0  0  0  0  0
   -2.0634    2.4441   -1.8520 C   0  0  0  0  0  0  0  0  0  0  0  0
   -2.8986    2.9506   -1.3627 H   0  0  0  0  0  0  0  0  0  0  0  0
   -1.1547    3.0298   -1.6945 H   0  0  0  0  0  0  0  0  0  0  0  0
   -2.3346    2.3331   -3.3001 N   0  3  0  0  0  0  0  0  0  0  0  0
   -2.3194    1.4075   -3.6929 H   0  0  0  0  0  0  0  0  0  0  0  0
   -2.5947    3.3332   -4.1254 C   0  0  0  0  0  0  0  0  0  0  0  0
   -2.6385    4.5718   -3.7214 N   0  0  0  0  0  0  0  0  0  0  0  0
   -2.4703    4.7704   -2.7510 H   0  0  0  0  0  0  0  0  0  0  0  0
   -2.8370    5.3191   -4.3610 H   0  0  0  0  0  0  0  0  0  0  0  0
   -2.8176    3.1054   -5.3886 N   0  0  0  0  0  0  0  0  0  0  0  0
   -2.7948    2.1663   -5.7472 H   0  0  0  0  0  0  0  0  0  0  0  0
   -3.0146    3.8669   -6.0113 H   0  0  0  0  0  0  0  0  0  0  0  0
   -0.9523    0.1012    2.4848 C   0  0  0  0  0  0  0  0  0  0  0  0
   -0.2620    1.0748    2.7617 O   0  0  0  0  0  0  0  0  0  0  0  0
   -1.2975   -0.8304    3.3791 N   0  0  0  0  0  0  0  0  0  0  0  0
   -1.8982   -1.5781    3.0725 H   0  0  0  0  0  0  0  0  0  0  0  0
   -0.9321   -0.7809    4.7957 C   0  0  0  0  0  0  0  0  0  0  0  0
   -1.3975    0.0873    5.2670 H   0  0  0  0  0  0  0  0  0  0  0  0
   -1.2667   -1.6848    5.3063 H   0  0  0  0  0  0  0  0  0  0  0  0
    0.1514   -0.6896    4.8990 H   0  0  0  0  0  0  0  0  0  0  0  0
  5  6  2  0  0  0  0
  5  7  1  0  0  0  0
  2  3  1  0  0  0  0
  2  4  1  0  0  0  0
  2  5  1  0  0  0  0
  1  2  1  0  0  0  0
 29 30  2  0  0  0  0
 29 31  1  0  0  0  0
 26 27  1  0  0  0  0
 26 28  1  0  0  0  0
 23 24  1  0  0  0  0
 23 25  1  0  0  0  0
 22 23  1  0  0  0  0
 22 26  1  0  0  0  0
 20 21  1  0  0  0  0
 20 22  2  0  0  0  0
 17 18  1  0  0  0  0
 17 19  1  0  0  0  0
 17 20  1  0  0  0  0
 14 15  1  0  0  0  0
 14 16  1  0  0  0  0
 14 17  1  0  0  0  0
 11 12  1  0  0  0  0
 11 13  1  0  0  0  0
 11 14  1  0  0  0  0
  9 10  1  0  0  0  0
  9 11  1  0  0  0  0
  9 29  1  0  0  0  0
  7  8  1  0  0  0  0
  7  9  1  0  0  0  0
 33 34  1  0  0  0  0
 33 35  1  0  0  0  0
 33 36  1  0  0  0  0
 31 32  1  0  0  0  0
 31 33  1  0  0  0  0
M  CHG  1  20   1
M  END
$$$$
default_name
  -OEChem-01062215323D

 36 35  0     1  0  0  0  0  0999 V2000
   -4.2256   -3.6731    1.8584 H   0  0  0  0  0  0  0  0  0  0  0  0
   -4.2396   -2.6781    1.4144 C   0  0  0  0  0  0  0  0  0  0  0  0
   -4.9506   -2.0521    1.9514 H   0  0  0  0  0  0  0  0  0  0  0  0
   -4.5266   -2.7521    0.3674 H   0  0  0  0  0  0  0  0  0  0  0  0
   -2.8576   -2.0761    1.5184 C   0  0  0  0  0  0  0  0  0  0  0  0
   -1.9456   -2.7051    2.0404 O   0  0  0  0  0  0  0  0  0  0  0  0
   -2.6926   -0.8481    1.0174 N   0  0  0  0  0  0  0  0  0  0  0  0
   -3.4926   -0.3971    0.5954 H   0  0  0  0  0  0  0  0  0  0  0  0
   -1.4216   -0.1071    1.0434 C   0  0  1  0  0  0  0  0  0  0  0  0
   -0.6709   -0.6930    0.5106 H   0  0  0  0  0  0  0  0  0  0  0  0
   -1.6221    1.2315    0.3051 C   0  0  0  0  0  0  0  0  0  0  0  0
   -2.4795    1.7461    0.7435 H   0  0  0  0  0  0  0  0  0  0  0  0
   -0.7390    1.8568    0.4537 H   0  0  0  0  0  0  0  0  0  0  0  0
   -1.8760    1.0672   -1.2004 C   0  0  0  0  0  0  0  0  0  0  0  0
   -1.0266    0.5647   -1.6652 H   0  0  0  0  0  0  0  0  0  0  0  0
   -2.7753    0.4692   -1.3515 H   0  0  0  0  0  0  0  0  0  0  0  0
   -2.0634    2.4441   -1.8520 C   0  0  0  0  0  0  0  0  0  0  0  0
   -2.8986    2.9506   -1.3627 H   0  0  0  0  0  0  0  0  0  0  0  0
   -1.1547    3.0298   -1.6945 H   0  0  0  0  0  0  0  0  0  0  0  0
   -2.3346    2.3331   -3.3001 N   0  3  0  0  0  0  0  0  0  0  0  0
   -2.3194    1.4075   -3.6929 H   0  0  0  0  0  0  0  0  0  0  0  0
   -2.5947    3.3332   -4.1254 C   0  0  0  0  0  0  0  0  0  0  0  0
   -2.6385    4.5718   -3.7214 N   0  0  0  0  0  0  0  0  0  0  0  0
   -2.4703    4.7704   -2.7510 H   0  0  0  0  0  0  0  0  0  0  0  0
   -2.8370    5.3191   -4.3610 H   0  0  0  0  0  0  0  0  0  0  0  0
   -2.8176    3.1054   -5.3886 N   0  0  0  0  0  0  0  0  0  0  0  0
   -2.7948    2.1663   -5.7472 H   0  0  0  0  0  0  0  0  0  0  0  0
   -3.0146    3.8669   -6.0113 H   0  0  0  0  0  0  0  0  0  0  0  0
   -0.9523    0.1012    2.4848 C   0  0  0  0  0  0  0  0  0  0  0  0
   -0.5068    1.1908    2.8246 O   0  0  0  0  0  0  0  0  0  0  0  0
   -1.0208   -0.9510    3.3064 N   0  0  0  0  0  0  0  0  0  0  0  0
   -1.4354   -1.7980    2.9536 H   0  0  0  0  0  0  0  0  0  0  0  0
   -0.6147   -0.9197    4.7124 C   0  0  0  0  0  0  0  0  0  0  0  0
   -1.2550   -0.2300    5.2665 H   0  0  0  0  0  0  0  0  0  0  0  0
   -0.6969   -1.9137    5.1539 H   0  0  0  0  0  0  0  0  0  0  0  0
    0.4179   -0.5736    4.7954 H   0  0  0  0  0  0  0  0  0  0  0  0
  5  6  2  0  0  0  0
  5  7  1  0  0  0  0
  2  3  1  0  0  0  0
  2  4  1  0  0  0  0
  2  5  1  0  0  0  0
  1  2  1  0  0  0  0
 29 30  2  0  0  0  0
 29 31  1  0  0  0  0
 26 27  1  0  0  0  0
 26 28  1  0  0  0  0
 23 24  1  0  0  0  0
 23 25  1  0  0  0  0
 22 23  1  0  0  0  0
 22 26  1  0  0  0  0
 20 21  1  0  0  0  0
 20 22  2  0  0  0  0
 17 18  1  0  0  0  0
 17 19  1  0  0  0  0
 17 20  1  0  0  0  0
 14 15  1  0  0  0  0
 14 16  1  0  0  0  0
 14 17  1  0  0  0  0
 11 12  1  0  0  0  0
 11 13  1  0  0  0  0
 11 14  1  0  0  0  0
  9 10  1  0  0  0  0
  9 11  1  0  0  0  0
  9 29  1  0  0  0  0
  7  8  1  0  0  0  0
  7  9  1  0  0  0  0
 33 34  1  0  0  0  0
 33 35  1  0  0  0  0
 33 36  1  0  0  0  0
 31 32  1  0  0  0  0
 31 33  1  0  0  0  0
M  CHG  1  20   1
M  END
$$$$
default_name
  -OEChem-01062215323D

 36 35  0     1  0  0  0  0  0999 V2000
   -4.2256   -3.6731    1.8584 H   0  0  0  0  0  0  0  0  0  0  0  0
   -4.2396   -2.6781    1.4144 C   0  0  0  0  0  0  0  0  0  0  0  0
   -4.9506   -2.0521    1.9514 H   0  0  0  0  0  0  0  0  0  0  0  0
   -4.5266   -2.7521    0.3674 H   0  0  0  0  0  0  0  0  0  0  0  0
   -2.8576   -2.0761    1.5184 C   0  0  0  0  0  0  0  0  0  0  0  0
   -1.9456   -2.7051    2.0404 O   0  0  0  0  0  0  0  0  0  0  0  0
   -2.6926   -0.8481    1.0174 N   0  0  0  0  0  0  0  0  0  0  0  0
   -3.4926   -0.3971    0.5954 H   0  0  0  0  0  0  0  0  0  0  0  0
   -1.4216   -0.1071    1.0434 C   0  0  1  0  0  0  0  0  0  0  0  0
   -0.6709   -0.6930    0.5106 H   0  0  0  0  0  0  0  0  0  0  0  0
   -1.6221    1.2315    0.3051 C   0  0  0  0  0  0  0  0  0  0  0  0
   -2.4795    1.7461    0.7435 H   0  0  0  0  0  0  0  0  0  0  0  0
   -0.7390    1.8568    0.4537 H   0  0  0  0  0  0  0  0  0  0  0  0
   -1.8760    1.0672   -1.2004 C   0  0  0  0  0  0  0  0  0  0  0  0
   -1.0266    0.5647   -1.6652 H   0  0  0  0  0  0  0  0  0  0  0  0
   -2.7753    0.4692   -1.3515 H   0  0  0  0  0  0  0  0  0  0  0  0
   -2.0634    2.4441   -1.8520 C   0  0  0  0  0  0  0  0  0  0  0  0
   -2.8986    2.9506   -1.3627 H   0  0  0  0  0  0  0  0  0  0  0  0
   -1.1547    3.0298   -1.6945 H   0  0  0  0  0  0  0  0  0  0  0  0
   -2.3346    2.3331   -3.3001 N   0  3  0  0  0  0  0  0  0  0  0  0
   -2.3194    1.4075   -3.6929 H   0  0  0  0  0  0  0  0  0  0  0  0
   -2.5947    3.3332   -4.1254 C   0  0  0  0  0  0  0  0  0  0  0  0
   -2.6385    4.5718   -3.7214 N   0  0  0  0  0  0  0  0  0  0  0  0
   -2.4703    4.7704   -2.7510 H   0  0  0  0  0  0  0  0  0  0  0  0
   -2.8370    5.3191   -4.3610 H   0  0  0  0  0  0  0  0  0  0  0  0
   -2.8176    3.1054   -5.3886 N   0  0  0  0  0  0  0  0  0  0  0  0
   -2.7948    2.1663   -5.7472 H   0  0  0  0  0  0  0  0  0  0  0  0
   -3.0146    3.8669   -6.0113 H   0  0  0  0  0  0  0  0  0  0  0  0
   -0.9523    0.1012    2.4848 C   0  0  0  0  0  0  0  0  0  0  0  0
   -0.7693    1.2381    2.9032 O   0  0  0  0  0  0  0  0  0  0  0  0
   -0.7266   -0.9942    3.2169 N   0  0  0  0  0  0  0  0  0  0  0  0
   -0.9390   -1.8881    2.8050 H   0  0  0  0  0  0  0  0  0  0  0  0
   -0.2772   -0.9699    4.6098 C   0  0  0  0  0  0  0  0  0  0  0  0
   -1.0399   -0.5018    5.2358 H   0  0  0  0  0  0  0  0  0  0  0  0
   -0.0960   -1.9839    4.9685 H   0  0  0  0  0  0  0  0  0  0  0  0
    0.6433   -0.3883    4.6953 H   0  0  0  0  0  0  0  0  0  0  0  0
  5  6  2  0  0  0  0
  5  7  1  0  0  0  0
  2  3  1  0  0  0  0
  2  4  1  0  0  0  0
  2  5  1  0  0  0  0
  1  2  1  0  0  0  0
 29 30  2  0  0  0  0
 29 31  1  0  0  0  0
 26 27  1  0  0  0  0
 26 28  1  0  0  0  0
 23 24  1  0  0  0  0
 23 25  1  0  0  0  0
 22 23  1  0  0  0  0
 22 26  1  0  0  0  0
 20 21  1  0  0  0  0
 20 22  2  0  0  0  0
 17 18  1  0  0  0  0
 17 19  1  0  0  0  0
 17 20  1  0  0  0  0
 14 15  1  0  0  0  0
 14 16  1  0  0  0  0
 14 17  1  0  0  0  0
 11 12  1  0  0  0  0
 11 13  1  0  0  0  0
 11 14  1  0  0  0  0
  9 10  1  0  0  0  0
  9 11  1  0  0  0  0
  9 29  1  0  0  0  0
  7  8  1  0  0  0  0
  7  9  1  0  0  0  0
 33 34  1  0  0  0  0
 33 35  1  0  0  0  0
 33 36  1  0  0  0  0
 31 32  1  0  0  0  0
 31 33  1  0  0  0  0
M  CHG  1  20   1
M  END
$$$$
default_name
  -OEChem-01062215323D

 36 35  0     1  0  0  0  0  0999 V2000
   -4.2256   -3.6731    1.8584 H   0  0  0  0  0  0  0  0  0  0  0  0
   -4.2396   -2.6781    1.4144 C   0  0  0  0  0  0  0  0  0  0  0  0
   -4.9506   -2.0521    1.9514 H   0  0  0  0  0  0  0  0  0  0  0  0
   -4.5266   -2.7521    0.3674 H   0  0  0  0  0  0  0  0  0  0  0  0
   -2.8576   -2.0761    1.5184 C   0  0  0  0  0  0  0  0  0  0  0  0
   -1.9456   -2.7051    2.0404 O   0  0  0  0  0  0  0  0  0  0  0  0
   -2.6926   -0.8481    1.0174 N   0  0  0  0  0  0  0  0  0  0  0  0
   -3.4926   -0.3971    0.5954 H   0  0  0  0  0  0  0  0  0  0  0  0
   -1.4216   -0.1071    1.0434 C   0  0  1  0  0  0  0  0  0  0  0  0
   -0.6709   -0.6930    0.5106 H   0  0  0  0  0  0  0  0  0  0  0  0
   -1.6221    1.2315    0.3051 C   0  0  0  0  0  0  0  0  0  0  0  0
   -2.4795    1.7461    0.7435 H   0  0  0  0  0  0  0  0  0  0  0  0
   -0.7390    1.8568    0.4537 H   0  0  0  0  0  0  0  0  0  0  0  0
   -1.8760    1.0672   -1.2004 C   0  0  0  0  0  0  0  0  0  0  0  0
   -1.0266    0.5647   -1.6652 H   0  0  0  0  0  0  0  0  0  0  0  0
   -2.7753    0.4692   -1.3515 H   0  0  0  0  0  0  0  0  0  0  0  0
   -2.0634    2.4441   -1.8520 C   0  0  0  0  0  0  0  0  0  0  0  0
   -2.8986    2.9506   -1.3627 H   0  0  0  0  0  0  0  0  0  0  0  0
   -1.1547    3.0298   -1.6945 H   0  0  0  0  0  0  0  0  0  0  0  0
   -2.3346    2.3331   -3.3001 N   0  3  0  0  0  0  0  0  0  0  0  0
   -2.3194    1.4075   -3.6929 H   0  0  0  0  0  0  0  0  0  0  0  0
   -2.5947    3.3332   -4.1254 C   0  0  0  0  0  0  0  0  0  0  0  0
   -2.6385    4.5718   -3.7214 N   0  0  0  0  0  0  0  0  0  0  0  0
   -2.4703    4.7704   -2.7510 H   0  0  0  0  0  0  0  0  0  0  0  0
   -2.8370    5.3191   -4.3610 H   0  0  0  0  0  0  0  0  0  0  0  0
   -2.8176    3.1054   -5.3886 N   0  0  0  0  0  0  0  0  0  0  0  0
   -2.7948    2.1663   -5.7472 H   0  0  0  0  0  0  0  0  0  0  0  0
   -3.0146    3.8669   -6.0113 H   0  0  0  0  0  0  0  0  0  0  0  0
   -0.9523    0.1012    2.4848 C   0  0  0  0  0  0  0  0  0  0  0  0
   -1.0317    1.2136    2.9922 O   0  0  0  0  0  0  0  0  0  0  0  0
   -0.4350   -0.9571    3.1166 N   0  0  0  0  0  0  0  0  0  0  0  0
   -0.4428   -1.8423    2.6369 H   0  0  0  0  0  0  0  0  0  0  0  0
    0.0574   -0.9278    4.4948 C   0  0  0  0  0  0  0  0  0  0  0  0
   -0.7670   -0.7095    5.1770 H   0  0  0  0  0  0  0  0  0  0  0  0
    0.4949   -1.8904    4.7626 H   0  0  0  0  0  0  0  0  0  0  0  0
    0.8124   -0.1464    4.6053 H   0  0  0  0  0  0  0  0  0  0  0  0
  5  6  2  0  0  0  0
  5  7  1  0  0  0  0
  2  3  1  0  0  0  0
  2  4  1  0  0  0  0
  2  5  1  0  0  0  0
  1  2  1  0  0  0  0
 29 30  2  0  0  0  0
 29 31  1  0  0  0  0
 26 27  1  0  0  0  0
 26 28  1  0  0  0  0
 23 24  1  0  0  0  0
 23 25  1  0  0  0  0
 22 23  1  0  0  0  0
 22 26  1  0  0  0  0
 20 21  1  0  0  0  0
 20 22  2  0  0  0  0
 17 18  1  0  0  0  0
 17 19  1  0  0  0  0
 17 20  1  0  0  0  0
 14 15  1  0  0  0  0
 14 16  1  0  0  0  0
 14 17  1  0  0  0  0
 11 12  1  0  0  0  0
 11 13  1  0  0  0  0
 11 14  1  0  0  0  0
  9 10  1  0  0  0  0
  9 11  1  0  0  0  0
  9 29  1  0  0  0  0
  7  8  1  0  0  0  0
  7  9  1  0  0  0  0
 33 34  1  0  0  0  0
 33 35  1  0  0  0  0
 33 36  1  0  0  0  0
 31 32  1  0  0  0  0
 31 33  1  0  0  0  0
M  CHG  1  20   1
M  END
$$$$
default_name
  -OEChem-01062215323D

 36 35  0     1  0  0  0  0  0999 V2000
   -4.2256   -3.6731    1.8584 H   0  0  0  0  0  0  0  0  0  0  0  0
   -4.2396   -2.6781    1.4144 C   0  0  0  0  0  0  0  0  0  0  0  0
   -4.9506   -2.0521    1.9514 H   0  0  0  0  0  0  0  0  0  0  0  0
   -4.5266   -2.7521    0.3674 H   0  0  0  0  0  0  0  0  0  0  0  0
   -2.8576   -2.0761    1.5184 C   0  0  0  0  0  0  0  0  0  0  0  0
   -1.9456   -2.7051    2.0404 O   0  0  0  0  0  0  0  0  0  0  0  0
   -2.6926   -0.8481    1.0174 N   0  0  0  0  0  0  0  0  0  0  0  0
   -3.4926   -0.3971    0.5954 H   0  0  0  0  0  0  0  0  0  0  0  0
   -1.4216   -0.1071    1.0434 C   0  0  1  0  0  0  0  0  0  0  0  0
   -0.6709   -0.6930    0.5106 H   0  0  0  0  0  0  0  0  0  0  0  0
   -1.6221    1.2315    0.3051 C   0  0  0  0  0  0  0  0  0  0  0  0
   -2.4795    1.7461    0.7435 H   0  0  0  0  0  0  0  0  0  0  0  0
   -0.7390    1.8568    0.4537 H   0  0  0  0  0  0  0  0  0  0  0  0
   -1.8760    1.0672   -1.2004 C   0  0  0  0  0  0  0  0  0  0  0  0
   -1.0266    0.5647   -1.6652 H   0  0  0  0  0  0  0  0  0  0  0  0
   -2.7753    0.4692   -1.3515 H   0  0  0  0  0  0  0  0  0  0  0  0
   -2.0634    2.4441   -1.8520 C   0  0  0  0  0  0  0  0  0  0  0  0
   -2.8986    2.9506   -1.3627 H   0  0  0  0  0  0  0  0  0  0  0  0
   -1.1547    3.0298   -1.6945 H   0  0  0  0  0  0  0  0  0  0  0  0
   -2.3346    2.3331   -3.3001 N   0  3  0  0  0  0  0  0  0  0  0  0
   -2.3194    1.4075   -3.6929 H   0  0  0  0  0  0  0  0  0  0  0  0
   -2.5947    3.3332   -4.1254 C   0  0  0  0  0  0  0  0  0  0  0  0
   -2.6385    4.5718   -3.7214 N   0  0  0  0  0  0  0  0  0  0  0  0
   -2.4703    4.7704   -2.7510 H   0  0  0  0  0  0  0  0  0  0  0  0
   -2.8370    5.3191   -4.3610 H   0  0  0  0  0  0  0  0  0  0  0  0
   -2.8176    3.1054   -5.3886 N   0  0  0  0  0  0  0  0  0  0  0  0
   -2.7948    2.1663   -5.7472 H   0  0  0  0  0  0  0  0  0  0  0  0
   -3.0146    3.8669   -6.0113 H   0  0  0  0  0  0  0  0  0  0  0  0
   -0.9523    0.1012    2.4848 C   0  0  0  0  0  0  0  0  0  0  0  0
   -1.2760    1.1189    3.0854 O   0  0  0  0  0  0  0  0  0  0  0  0
   -0.1660   -0.8422    3.0124 N   0  0  0  0  0  0  0  0  0  0  0  0
    0.0194   -1.6638    2.4606 H   0  0  0  0  0  0  0  0  0  0  0  0
    0.3663   -0.7966    4.3753 C   0  0  0  0  0  0  0  0  0  0  0  0
   -0.4549   -0.8388    5.0940 H   0  0  0  0  0  0  0  0  0  0  0  0
    1.0357   -1.6398    4.5503 H   0  0  0  0  0  0  0  0  0  0  0  0
    0.9135    0.1356    4.5316 H   0  0  0  0  0  0  0  0  0  0  0  0
  5  6  2  0  0  0  0
  5  7  1  0  0  0  0
  2  3  1  0  0  0  0
  2  4  1  0  0  0  0
  2  5  1  0  0  0  0
  1  2  1  0  0  0  0
 29 30  2  0  0  0  0
 29 31  1  0  0  0  0
 26 27  1  0  0  0  0
 26 28  1  0  0  0  0
 23 24  1  0  0  0  0
 23 25  1  0  0  0  0
 22 23  1  0  0  0  0
 22 26  1  0  0  0  0
 20 21  1  0  0  0  0
 20 22  2  0  0  0  0
 17 18  1  0  0  0  0
 17 19  1  0  0  0  0
 17 20  1  0  0  0  0
 14 15  1  0  0  0  0
 14 16  1  0  0  0  0
 14 17  1  0  0  0  0
 11 12  1  0  0  0  0
 11 13  1  0  0  0  0
 11 14  1  0  0  0  0
  9 10  1  0  0  0  0
  9 11  1  0  0  0  0
  9 29  1  0  0  0  0
  7  8  1  0  0  0  0
  7  9  1  0  0  0  0
 33 34  1  0  0  0  0
 33 35  1  0  0  0  0
 33 36  1  0  0  0  0
 31 32  1  0  0  0  0
 31 33  1  0  0  0  0
M  CHG  1  20   1
M  END
$$$$
default_name
  -OEChem-01062215323D

 36 35  0     1  0  0  0  0  0999 V2000
   -4.2256   -3.6731    1.8584 H   0  0  0  0  0  0  0  0  0  0  0  0
   -4.2396   -2.6781    1.4144 C   0  0  0  0  0  0  0  0  0  0  0  0
   -4.9506   -2.0521    1.9514 H   0  0  0  0  0  0  0  0  0  0  0  0
   -4.5266   -2.7521    0.3674 H   0  0  0  0  0  0  0  0  0  0  0  0
   -2.8576   -2.0761    1.5184 C   0  0  0  0  0  0  0  0  0  0  0  0
   -1.9456   -2.7051    2.0404 O   0  0  0  0  0  0  0  0  0  0  0  0
   -2.6926   -0.8481    1.0174 N   0  0  0  0  0  0  0  0  0  0  0  0
   -3.4926   -0.3971    0.5954 H   0  0  0  0  0  0  0  0  0  0  0  0
   -1.4216   -0.1071    1.0434 C   0  0  1  0  0  0  0  0  0  0  0  0
   -0.6709   -0.6930    0.5106 H   0  0  0  0  0  0  0  0  0  0  0  0
   -1.6221    1.2315    0.3051 C   0  0  0  0  0  0  0  0  0  0  0  0
   -2.4795    1.7461    0.7435 H   0  0  0  0  0  0  0  0  0  0  0  0
   -0.7390    1.8568    0.4537 H   0  0  0  0  0  0  0  0  0  0  0  0
   -1.8760    1.0672   -1.2004 C   0  0  0  0  0  0  0  0  0  0  0  0
   -1.0266    0.5647   -1.6652 H   0  0  0  0  0  0  0  0  0  0  0  0
   -2.7753    0.4692   -1.3515 H   0  0  0  0  0  0  0  0  0  0  0  0
   -2.0634    2.4441   -1.8520 C   0  0  0  0  0  0  0  0  0  0  0  0
   -2.8986    2.9506   -1.3627 H   0  0  0  0  0  0  0  0  0  0  0  0
   -1.1547    3.0298   -1.6945 H   0  0  0  0  0  0  0  0  0  0  0  0
   -2.3346    2.3331   -3.3001 N   0  3  0  0  0  0  0  0  0  0  0  0
   -2.3194    1.4075   -3.6929 H   0  0  0  0  0  0  0  0  0  0  0  0
   -2.5947    3.3332   -4.1254 C   0  0  0  0  0  0  0  0  0  0  0  0
   -2.6385    4.5718   -3.7214 N   0  0  0  0  0  0  0  0  0  0  0  0
   -2.4703    4.7704   -2.7510 H   0  0  0  0  0  0  0  0  0  0  0  0
   -2.8370    5.3191   -4.3610 H   0  0  0  0  0  0  0  0  0  0  0  0
   -2.8176    3.1054   -5.3886 N   0  0  0  0  0  0  0  0  0  0  0  0
   -2.7948    2.1663   -5.7472 H   0  0  0  0  0  0  0  0  0  0  0  0
   -3.0146    3.8669   -6.0113 H   0  0  0  0  0  0  0  0  0  0  0  0
   -0.9523    0.1012    2.4848 C   0  0  0  0  0  0  0  0  0  0  0  0
   -1.4856    0.9604    3.1765 O   0  0  0  0  0  0  0  0  0  0  0  0
    0.0622   -0.6574    2.9114 N   0  0  0  0  0  0  0  0  0  0  0  0
    0.4162   -1.3646    2.2882 H   0  0  0  0  0  0  0  0  0  0  0  0
    0.6284   -0.5850    4.2594 C   0  0  0  0  0  0  0  0  0  0  0  0
   -0.1247   -0.8811    4.9927 H   0  0  0  0  0  0  0  0  0  0  0  0
    1.4894   -1.2489    4.3461 H   0  0  0  0  0  0  0  0  0  0  0  0
    0.9398    0.4385    4.4792 H   0  0  0  0  0  0  0  0  0  0  0  0
  5  6  2  0  0  0  0
  5  7  1  0  0  0  0
  2  3  1  0  0  0  0
  2  4  1  0  0  0  0
  2  5  1  0  0  0  0
  1  2  1  0  0  0  0
 29 30  2  0  0  0  0
 29 31  1  0  0  0  0
 26 27  1  0  0  0  0
 26 28  1  0  0  0  0
 23 24  1  0  0  0  0
 23 25  1  0  0  0  0
 22 23  1  0  0  0  0
 22 26  1  0  0  0  0
 20 21  1  0  0  0  0
 20 22  2  0  0  0  0
 17 18  1  0  0  0  0
 17 19  1  0  0  0  0
 17 20  1  0  0  0  0
 14 15  1  0  0  0  0
 14 16  1  0  0  0  0
 14 17  1  0  0  0  0
 11 12  1  0  0  0  0
 11 13  1  0  0  0  0
 11 14  1  0  0  0  0
  9 10  1  0  0  0  0
  9 11  1  0  0  0  0
  9 29  1  0  0  0  0
  7  8  1  0  0  0  0
  7  9  1  0  0  0  0
 33 34  1  0  0  0  0
 33 35  1  0  0  0  0
 33 36  1  0  0  0  0
 31 32  1  0  0  0  0
 31 33  1  0  0  0  0
M  CHG  1  20   1
M  END
$$$$
default_name
  -OEChem-01062215323D

 36 35  0     1  0  0  0  0  0999 V2000
   -4.2256   -3.6731    1.8584 H   0  0  0  0  0  0  0  0  0  0  0  0
   -4.2396   -2.6781    1.4144 C   0  0  0  0  0  0  0  0  0  0  0  0
   -4.9506   -2.0521    1.9514 H   0  0  0  0  0  0  0  0  0  0  0  0
   -4.5266   -2.7521    0.3674 H   0  0  0  0  0  0  0  0  0  0  0  0
   -2.8576   -2.0761    1.5184 C   0  0  0  0  0  0  0  0  0  0  0  0
   -1.9456   -2.7051    2.0404 O   0  0  0  0  0  0  0  0  0  0  0  0
   -2.6926   -0.8481    1.0174 N   0  0  0  0  0  0  0  0  0  0  0  0
   -3.4926   -0.3971    0.5954 H   0  0  0  0  0  0  0  0  0  0  0  0
   -1.4216   -0.1071    1.0434 C   0  0  1  0  0  0  0  0  0  0  0  0
   -0.6709   -0.6930    0.5106 H   0  0  0  0  0  0  0  0  0  0  0  0
   -1.6221    1.2315    0.3051 C   0  0  0  0  0  0  0  0  0  0  0  0
   -2.4795    1.7461    0.7435 H   0  0  0  0  0  0  0  0  0  0  0  0
   -0.7390    1.8568    0.4537 H   0  0  0  0  0  0  0  0  0  0  0  0
   -1.8760    1.0672   -1.2004 C   0  0  0  0  0  0  0  0  0  0  0  0
   -1.0266    0.5647   -1.6652 H   0  0  0  0  0  0  0  0  0  0  0  0
   -2.7753    0.4692   -1.3515 H   0  0  0  0  0  0  0  0  0  0  0  0
   -2.0634    2.4441   -1.8520 C   0  0  0  0  0  0  0  0  0  0  0  0
   -2.8986    2.9506   -1.3627 H   0  0  0  0  0  0  0  0  0  0  0  0
   -1.1547    3.0298   -1.6945 H   0  0  0  0  0  0  0  0  0  0  0  0
   -2.3346    2.3331   -3.3001 N   0  3  0  0  0  0  0  0  0  0  0  0
   -2.3194    1.4075   -3.6929 H   0  0  0  0  0  0  0  0  0  0  0  0
   -2.5947    3.3332   -4.1254 C   0  0  0  0  0  0  0  0  0  0  0  0
   -2.6385    4.5718   -3.7214 N   0  0  0  0  0  0  0  0  0  0  0  0
   -2.4703    4.7704   -2.7510 H   0  0  0  0  0  0  0  0  0  0  0  0
   -2.8370    5.3191   -4.3610 H   0  0  0  0  0  0  0  0  0  0  0  0
   -2.8176    3.1054   -5.3886 N   0  0  0  0  0  0  0  0  0  0  0  0
   -2.7948    2.1663   -5.7472 H   0  0  0  0  0  0  0  0  0  0  0  0
   -3.0146    3.8669   -6.0113 H   0  0  0  0  0  0  0  0  0  0  0  0
   -0.9523    0.1012    2.4848 C   0  0  0  0  0  0  0  0  0  0  0  0
   -1.6462    0.7490    3.2594 O   0  0  0  0  0  0  0  0  0  0  0  0
    0.2340   -0.4152    2.8205 N   0  0  0  0  0  0  0  0  0  0  0  0
    0.7204   -0.9653    2.1315 H   0  0  0  0  0  0  0  0  0  0  0  0
    0.8259   -0.3074    4.1550 C   0  0  0  0  0  0  0  0  0  0  0  0
    0.2009   -0.8334    4.8798 H   0  0  0  0  0  0  0  0  0  0  0  0
    1.8252   -0.7445    4.1639 H   0  0  0  0  0  0  0  0  0  0  0  0
    0.8896    0.7417    4.4518 H   0  0  0  0  0  0  0  0  0  0  0  0
  5  6  2  0  0  0  0
  5  7  1  0  0  0  0
  2  3  1  0  0  0  0
  2  4  1  0  0  0  0
  2  5  1  0  0  0  0
  1  2  1  0  0  0  0
 29 30  2  0  0  0  0
 29 31  1  0  0  0  0
 26 27  1  0  0  0  0
 26 28  1  0  0  0  0
 23 24  1  0  0  0  0
 23 25  1  0  0  0  0
 22 23  1  0  0  0  0
 22 26  1  0  0  0  0
 20 21  1  0  0  0  0
 20 22  2  0  0  0  0
 17 18  1  0  0  0  0
 17 19  1  0  0  0  0
 17 20  1  0  0  0  0
 14 15  1  0  0  0  0
 14 16  1  0  0  0  0
 14 17  1  0  0  0  0
 11 12  1  0  0  0  0
 11 13  1  0  0  0  0
 11 14  1  0  0  0  0
  9 10  1  0  0  0  0
  9 11  1  0  0  0  0
  9 29  1  0  0  0  0
  7  8  1  0  0  0  0
  7  9  1  0  0  0  0
 33 34  1  0  0  0  0
 33 35  1  0  0  0  0
 33 36  1  0  0  0  0
 31 32  1  0  0  0  0
 31 33  1  0  0  0  0
M  CHG  1  20   1
M  END
$$$$
default_name
  -OEChem-01062215323D

 36 35  0     1  0  0  0  0  0999 V2000
   -4.2256   -3.6731    1.8584 H   0  0  0  0  0  0  0  0  0  0  0  0
   -4.2396   -2.6781    1.4144 C   0  0  0  0  0  0  0  0  0  0  0  0
   -4.9506   -2.0521    1.9514 H   0  0  0  0  0  0  0  0  0  0  0  0
   -4.5266   -2.7521    0.3674 H   0  0  0  0  0  0  0  0  0  0  0  0
   -2.8576   -2.0761    1.5184 C   0  0  0  0  0  0  0  0  0  0  0  0
   -1.9456   -2.7051    2.0404 O   0  0  0  0  0  0  0  0  0  0  0  0
   -2.6926   -0.8481    1.0174 N   0  0  0  0  0  0  0  0  0  0  0  0
   -3.4926   -0.3971    0.5954 H   0  0  0  0  0  0  0  0  0  0  0  0
   -1.4216   -0.1071    1.0434 C   0  0  1  0  0  0  0  0  0  0  0  0
   -0.6709   -0.6930    0.5106 H   0  0  0  0  0  0  0  0  0  0  0  0
   -1.6221    1.2315    0.3051 C   0  0  0  0  0  0  0  0  0  0  0  0
   -2.4795    1.7461    0.7435 H   0  0  0  0  0  0  0  0  0  0  0  0
   -0.7390    1.8568    0.4537 H   0  0  0  0  0  0  0  0  0  0  0  0
   -1.8760    1.0672   -1.2004 C   0  0  0  0  0  0  0  0  0  0  0  0
   -1.0266    0.5647   -1.6652 H   0  0  0  0  0  0  0  0  0  0  0  0
   -2.7753    0.4692   -1.3515 H   0  0  0  0  0  0  0  0  0  0  0  0
   -2.0634    2.4441   -1.8520 C   0  0  0  0  0  0  0  0  0  0  0  0
   -2.8986    2.9506   -1.3627 H   0  0  0  0  0  0  0  0  0  0  0  0
   -1.1547    3.0298   -1.6945 H   0  0  0  0  0  0  0  0  0  0  0  0
   -2.3346    2.3331   -3.3001 N   0  3  0  0  0  0  0  0  0  0  0  0
   -2.3194    1.4075   -3.6929 H   0  0  0  0  0  0  0  0  0  0  0  0
   -2.5947    3.3332   -4.1254 C   0  0  0  0  0  0  0  0  0  0  0  0
   -2.6385    4.5718   -3.7214 N   0  0  0  0  0  0  0  0  0  0  0  0
   -2.4703    4.7704   -2.7510 H   0  0  0  0  0  0  0  0  0  0  0  0
   -2.8370    5.3191   -4.3610 H   0  0  0  0  0  0  0  0  0  0  0  0
   -2.8176    3.1054   -5.3886 N   0  0  0  0  0  0  0  0  0  0  0  0
   -2.7948    2.1663   -5.7472 H   0  0  0  0  0  0  0  0  0  0  0  0
   -3.0146    3.8669   -6.0113 H   0  0  0  0  0  0  0  0  0  0  0  0
   -0.9523    0.1012    2.4848 C   0  0  0  0  0  0  0  0  0  0  0  0
   -1.7469    0.4991    3.3283 O   0  0  0  0  0  0  0  0  0  0  0  0
    0.3377   -0.1322    2.7458 N   0  0  0  0  0  0  0  0  0  0  0  0
    0.9113   -0.4929    2.0010 H   0  0  0  0  0  0  0  0  0  0  0  0
    0.9454    0.0171    4.0692 C   0  0  0  0  0  0  0  0  0  0  0  0
    0.4998   -0.6989    4.7630 H   0  0  0  0  0  0  0  0  0  0  0  0
    2.0202   -0.1610    4.0160 H   0  0  0  0  0  0  0  0  0  0  0  0
    0.7661    1.0245    4.4511 H   0  0  0  0  0  0  0  0  0  0  0  0
  5  6  2  0  0  0  0
  5  7  1  0  0  0  0
  2  3  1  0  0  0  0
  2  4  1  0  0  0  0
  2  5  1  0  0  0  0
  1  2  1  0  0  0  0
 29 30  2  0  0  0  0
 29 31  1  0  0  0  0
 26 27  1  0  0  0  0
 26 28  1  0  0  0  0
 23 24  1  0  0  0  0
 23 25  1  0  0  0  0
 22 23  1  0  0  0  0
 22 26  1  0  0  0  0
 20 21  1  0  0  0  0
 20 22  2  0  0  0  0
 17 18  1  0  0  0  0
 17 19  1  0  0  0  0
 17 20  1  0  0  0  0
 14 15  1  0  0  0  0
 14 16  1  0  0  0  0
 14 17  1  0  0  0  0
 11 12  1  0  0  0  0
 11 13  1  0  0  0  0
 11 14  1  0  0  0  0
  9 10  1  0  0  0  0
  9 11  1  0  0  0  0
  9 29  1  0  0  0  0
  7  8  1  0  0  0  0
  7  9  1  0  0  0  0
 33 34  1  0  0  0  0
 33 35  1  0  0  0  0
 33 36  1  0  0  0  0
 31 32  1  0  0  0  0
 31 33  1  0  0  0  0
M  CHG  1  20   1
M  END
$$$$
default_name
  -OEChem-01062215323D

 36 35  0     1  0  0  0  0  0999 V2000
   -4.2256   -3.6731    1.8584 H   0  0  0  0  0  0  0  0  0  0  0  0
   -4.2396   -2.6781    1.4144 C   0  0  0  0  0  0  0  0  0  0  0  0
   -4.9506   -2.0521    1.9514 H   0  0  0  0  0  0  0  0  0  0  0  0
   -4.5266   -2.7521    0.3674 H   0  0  0  0  0  0  0  0  0  0  0  0
   -2.8576   -2.0761    1.5184 C   0  0  0  0  0  0  0  0  0  0  0  0
   -1.9456   -2.7051    2.0404 O   0  0  0  0  0  0  0  0  0  0  0  0
   -2.6926   -0.8481    1.0174 N   0  0  0  0  0  0  0  0  0  0  0  0
   -3.4926   -0.3971    0.5954 H   0  0  0  0  0  0  0  0  0  0  0  0
   -1.4216   -0.1071    1.0434 C   0  0  1  0  0  0  0  0  0  0  0  0
   -0.6709   -0.6930    0.5106 H   0  0  0  0  0  0  0  0  0  0  0  0
   -1.6221    1.2315    0.3051 C   0  0  0  0  0  0  0  0  0  0  0  0
   -2.4795    1.7461    0.7435 H   0  0  0  0  0  0  0  0  0  0  0  0
   -0.7390    1.8568    0.4537 H   0  0  0  0  0  0  0  0  0  0  0  0
   -1.8760    1.0672   -1.2004 C   0  0  0  0  0  0  0  0  0  0  0  0
   -1.0266    0.5647   -1.6652 H   0  0  0  0  0  0  0  0  0  0  0  0
   -2.7753    0.4692   -1.3515 H   0  0  0  0  0  0  0  0  0  0  0  0
   -2.0634    2.4441   -1.8520 C   0  0  0  0  0  0  0  0  0  0  0  0
   -2.8986    2.9506   -1.3627 H   0  0  0  0  0  0  0  0  0  0  0  0
   -1.1547    3.0298   -1.6945 H   0  0  0  0  0  0  0  0  0  0  0  0
   -2.3346    2.3331   -3.3001 N   0  3  0  0  0  0  0  0  0  0  0  0
   -2.3194    1.4075   -3.6929 H   0  0  0  0  0  0  0  0  0  0  0  0
   -2.5947    3.3332   -4.1254 C   0  0  0  0  0  0  0  0  0  0  0  0
   -2.6385    4.5718   -3.7214 N   0  0  0  0  0  0  0  0  0  0  0  0
   -2.4703    4.7704   -2.7510 H   0  0  0  0  0  0  0  0  0  0  0  0
   -2.8370    5.3191   -4.3610 H   0  0  0  0  0  0  0  0  0  0  0  0
   -2.8176    3.1054   -5.3886 N   0  0  0  0  0  0  0  0  0  0  0  0
   -2.7948    2.1663   -5.7472 H   0  0  0  0  0  0  0  0  0  0  0  0
   -3.0146    3.8669   -6.0113 H   0  0  0  0  0  0  0  0  0  0  0  0
   -0.9523    0.1012    2.4848 C   0  0  0  0  0  0  0  0  0  0  0  0
   -1.7808    0.2277    3.3785 O   0  0  0  0  0  0  0  0  0  0  0  0
    0.3662    0.1724    2.6925 N   0  0  0  0  0  0  0  0  0  0  0  0
    0.9760    0.0203    1.9058 H   0  0  0  0  0  0  0  0  0  0  0  0
    0.9786    0.3664    4.0078 C   0  0  0  0  0  0  0  0  0  0  0  0
    0.7516   -0.4869    4.6504 H   0  0  0  0  0  0  0  0  0  0  0  0
    2.0610    0.4619    3.9127 H   0  0  0  0  0  0  0  0  0  0  0  0
    0.5780    1.2676    4.4772 H   0  0  0  0  0  0  0  0  0  0  0  0
  5  6  2  0  0  0  0
  5  7  1  0  0  0  0
  2  3  1  0  0  0  0
  2  4  1  0  0  0  0
  2  5  1  0  0  0  0
  1  2  1  0  0  0  0
 29 30  2  0  0  0  0
 29 31  1  0  0  0  0
 26 27  1  0  0  0  0
 26 28  1  0  0  0  0
 23 24  1  0  0  0  0
 23 25  1  0  0  0  0
 22 23  1  0  0  0  0
 22 26  1  0  0  0  0
 20 21  1  0  0  0  0
 20 22  2  0  0  0  0
 17 18  1  0  0  0  0
 17 19  1  0  0  0  0
 17 20  1  0  0  0  0
 14 15  1  0  0  0  0
 14 16  1  0  0  0  0
 14 17  1  0  0  0  0
 11 12  1  0  0  0  0
 11 13  1  0  0  0  0
 11 14  1  0  0  0  0
  9 10  1  0  0  0  0
  9 11  1  0  0  0  0
  9 29  1  0  0  0  0
  7  8  1  0  0  0  0
  7  9  1  0  0  0  0
 33 34  1  0  0  0  0
 33 35  1  0  0  0  0
 33 36  1  0  0  0  0
 31 32  1  0  0  0  0
 31 33  1  0  0  0  0
M  CHG  1  20   1
M  END
$$$$
default_name
  -OEChem-01062215323D

 36 35  0     1  0  0  0  0  0999 V2000
   -4.2256   -3.6731    1.8584 H   0  0  0  0  0  0  0  0  0  0  0  0
   -4.2396   -2.6781    1.4144 C   0  0  0  0  0  0  0  0  0  0  0  0
   -4.9506   -2.0521    1.9514 H   0  0  0  0  0  0  0  0  0  0  0  0
   -4.5266   -2.7521    0.3674 H   0  0  0  0  0  0  0  0  0  0  0  0
   -2.8576   -2.0761    1.5184 C   0  0  0  0  0  0  0  0  0  0  0  0
   -1.9456   -2.7051    2.0404 O   0  0  0  0  0  0  0  0  0  0  0  0
   -2.6926   -0.8481    1.0174 N   0  0  0  0  0  0  0  0  0  0  0  0
   -3.4926   -0.3971    0.5954 H   0  0  0  0  0  0  0  0  0  0  0  0
   -1.4216   -0.1071    1.0434 C   0  0  1  0  0  0  0  0  0  0  0  0
   -0.6709   -0.6930    0.5106 H   0  0  0  0  0  0  0  0  0  0  0  0
   -1.6221    1.2315    0.3051 C   0  0  0  0  0  0  0  0  0  0  0  0
   -2.4795    1.7461    0.7435 H   0  0  0  0  0  0  0  0  0  0  0  0
   -0.7390    1.8568    0.4537 H   0  0  0  0  0  0  0  0  0  0  0  0
   -1.8760    1.0672   -1.2004 C   0  0  0  0  0  0  0  0  0  0  0  0
   -1.0266    0.5647   -1.6652 H   0  0  0  0  0  0  0  0  0  0  0  0
   -2.7753    0.4692   -1.3515 H   0  0  0  0  0  0  0  0  0  0  0  0
   -2.0634    2.4441   -1.8520 C   0  0  0  0  0  0  0  0  0  0  0  0
   -2.8986    2.9506   -1.3627 H   0  0  0  0  0  0  0  0  0  0  0  0
   -1.1547    3.0298   -1.6945 H   0  0  0  0  0  0  0  0  0  0  0  0
   -2.3346    2.3331   -3.3001 N   0  3  0  0  0  0  0  0  0  0  0  0
   -2.3194    1.4075   -3.6929 H   0  0  0  0  0  0  0  0  0  0  0  0
   -2.5947    3.3332   -4.1254 C   0  0  0  0  0  0  0  0  0  0  0  0
   -2.6385    4.5718   -3.7214 N   0  0  0  0  0  0  0  0  0  0  0  0
   -2.4703    4.7704   -2.7510 H   0  0  0  0  0  0  0  0  0  0  0  0
   -2.8370    5.3191   -4.3610 H   0  0  0  0  0  0  0  0  0  0  0  0
   -2.8176    3.1054   -5.3886 N   0  0  0  0  0  0  0  0  0  0  0  0
   -2.7948    2.1663   -5.7472 H   0  0  0  0  0  0  0  0  0  0  0  0
   -3.0146    3.8669   -6.0113 H   0  0  0  0  0  0  0  0  0  0  0  0
   -0.9523    0.1012    2.4848 C   0  0  0  0  0  0  0  0  0  0  0  0
   -1.7456   -0.0467    3.4067 O   0  0  0  0  0  0  0  0  0  0  0  0
    0.3176    0.4778    2.6642 N   0  0  0  0  0  0  0  0  0  0  0  0
    0.9099    0.5393    1.8523 H   0  0  0  0  0  0  0  0  0  0  0  0
    0.9234    0.7169    3.9752 C   0  0  0  0  0  0  0  0  0  0  0  0
    0.9392   -0.2118    4.5496 H   0  0  0  0  0  0  0  0  0  0  0  0
    1.9450    1.0817    3.8609 H   0  0  0  0  0  0  0  0  0  0  0  0
    0.3378    1.4544    4.5284 H   0  0  0  0  0  0  0  0  0  0  0  0
  5  6  2  0  0  0  0
  5  7  1  0  0  0  0
  2  3  1  0  0  0  0
  2  4  1  0  0  0  0
  2  5  1  0  0  0  0
  1  2  1  0  0  0  0
 29 30  2  0  0  0  0
 29 31  1  0  0  0  0
 26 27  1  0  0  0  0
 26 28  1  0  0  0  0
 23 24  1  0  0  0  0
 23 25  1  0  0  0  0
 22 23  1  0  0  0  0
 22 26  1  0  0  0  0
 20 21  1  0  0  0  0
 20 22  2  0  0  0  0
 17 18  1  0  0  0  0
 17 19  1  0  0  0  0
 17 20  1  0  0  0  0
 14 15  1  0  0  0  0
 14 16  1  0  0  0  0
 14 17  1  0  0  0  0
 11 12  1  0  0  0  0
 11 13  1  0  0  0  0
 11 14  1  0  0  0  0
  9 10  1  0  0  0  0
  9 11  1  0  0  0  0
  9 29  1  0  0  0  0
  7  8  1  0  0  0  0
  7  9  1  0  0  0  0
 33 34  1  0  0  0  0
 33 35  1  0  0  0  0
 33 36  1  0  0  0  0
 31 32  1  0  0  0  0
 31 33  1  0  0  0  0
M  CHG  1  20   1
M  END
$$$$
default_name
  -OEChem-01062215323D

 36 35  0     1  0  0  0  0  0999 V2000
   -4.2256   -3.6731    1.8584 H   0  0  0  0  0  0  0  0  0  0  0  0
   -4.2396   -2.6781    1.4144 C   0  0  0  0  0  0  0  0  0  0  0  0
   -4.9506   -2.0521    1.9514 H   0  0  0  0  0  0  0  0  0  0  0  0
   -4.5266   -2.7521    0.3674 H   0  0  0  0  0  0  0  0  0  0  0  0
   -2.8576   -2.0761    1.5184 C   0  0  0  0  0  0  0  0  0  0  0  0
   -1.9456   -2.7051    2.0404 O   0  0  0  0  0  0  0  0  0  0  0  0
   -2.6926   -0.8481    1.0174 N   0  0  0  0  0  0  0  0  0  0  0  0
   -3.4926   -0.3971    0.5954 H   0  0  0  0  0  0  0  0  0  0  0  0
   -1.4216   -0.1071    1.0434 C   0  0  1  0  0  0  0  0  0  0  0  0
   -0.7531   -0.5446    0.3001 H   0  0  0  0  0  0  0  0  0  0  0  0
   -1.7032    1.3584    0.6560 C   0  0  0  0  0  0  0  0  0  0  0  0
   -2.4906    1.7455    1.3059 H   0  0  0  0  0  0  0  0  0  0  0  0
   -0.8019    1.9518    0.8248 H   0  0  0  0  0  0  0  0  0  0  0  0
   -2.1537    1.5295   -0.8021 C   0  0  0  0  0  0  0  0  0  0  0  0
   -1.3776    1.1600   -1.4738 H   0  0  0  0  0  0  0  0  0  0  0  0
   -3.0710    0.9629   -0.9651 H   0  0  0  0  0  0  0  0  0  0  0  0
   -2.4106    3.0132   -1.0989 C   0  0  0  0  0  0  0  0  0  0  0  0
   -3.1693    3.3814   -0.4045 H   0  0  0  0  0  0  0  0  0  0  0  0
   -1.4832    3.5665   -0.9336 H   0  0  0  0  0  0  0  0  0  0  0  0
   -2.8700    3.2231   -2.4873 N   0  3  0  0  0  0  0  0  0  0  0  0
   -2.9159    2.4090   -3.0759 H   0  0  0  0  0  0  0  0  0  0  0  0
   -3.2257    4.3770   -3.0269 C   0  0  0  0  0  0  0  0  0  0  0  0
   -3.2036    5.4930   -2.3537 N   0  0  0  0  0  0  0  0  0  0  0  0
   -2.9078    5.4732   -1.3937 H   0  0  0  0  0  0  0  0  0  0  0  0
   -3.4764    6.3602   -2.7784 H   0  0  0  0  0  0  0  0  0  0  0  0
   -3.6142    4.4326   -4.2692 N   0  0  0  0  0  0  0  0  0  0  0  0
   -3.6482    3.5979   -4.8287 H   0  0  0  0  0  0  0  0  0  0  0  0
   -3.8833    5.3100   -4.6745 H   0  0  0  0  0  0  0  0  0  0  0  0
   -0.7656   -0.2168    2.4214 C   0  0  0  0  0  0  0  0  0  0  0  0
   -1.3340   -0.8333    3.3148 O   0  0  0  0  0  0  0  0  0  0  0  0
    0.4020    0.4109    2.5926 N   0  0  0  0  0  0  0  0  0  0  0  0
    0.8156    0.8627    1.7934 H   0  0  0  0  0  0  0  0  0  0  0  0
    1.1596    0.4039    3.8451 C   0  0  0  0  0  0  0  0  0  0  0  0
    1.4787   -0.6142    4.0780 H   0  0  0  0  0  0  0  0  0  0  0  0
    2.0402    1.0418    3.7602 H   0  0  0  0  0  0  0  0  0  0  0  0
    0.5320    0.7641    4.6632 H   0  0  0  0  0  0  0  0  0  0  0  0
  5  6  2  0  0  0  0
  5  7  1  0  0  0  0
  2  3  1  0  0  0  0
  2  4  1  0  0  0  0
  2  5  1  0  0  0  0
  1  2  1  0  0  0  0
 29 30  2  0  0  0  0
 29 31  1  0  0  0  0
 26 27  1  0  0  0  0
 26 28  1  0  0  0  0
 23 24  1  0  0  0  0
 23 25  1  0  0  0  0
 22 23  1  0  0  0  0
 22 26  1  0  0  0  0
 20 21  1  0  0  0  0
 20 22  2  0  0  0  0
 17 18  1  0  0  0  0
 17 19  1  0  0  0  0
 17 20  1  0  0  0  0
 14 15  1  0  0  0  0
 14 16  1  0  0  0  0
 14 17  1  0  0  0  0
 11 12  1  0  0  0  0
 11 13  1  0  0  0  0
 11 14  1  0  0  0  0
  9 10  1  0  0  0  0
  9 11  1  0  0  0  0
  9 29  1  0  0  0  0
  7  8  1  0  0  0  0
  7  9  1  0  0  0  0
 33 34  1  0  0  0  0
 33 35  1  0  0  0  0
 33 36  1  0  0  0  0
 31 32  1  0  0  0  0
 31 33  1  0  0  0  0
M  CHG  1  20   1
M  END
$$$$
default_name
  -OEChem-01062215323D

 36 35  0     1  0  0  0  0  0999 V2000
   -4.2256   -3.6731    1.8584 H   0  0  0  0  0  0  0  0  0  0  0  0
   -4.2396   -2.6781    1.4144 C   0  0  0  0  0  0  0  0  0  0  0  0
   -4.9506   -2.0521    1.9514 H   0  0  0  0  0  0  0  0  0  0  0  0
   -4.5266   -2.7521    0.3674 H   0  0  0  0  0  0  0  0  0  0  0  0
   -2.8576   -2.0761    1.5184 C   0  0  0  0  0  0  0  0  0  0  0  0
   -1.9456   -2.7051    2.0404 O   0  0  0  0  0  0  0  0  0  0  0  0
   -2.6926   -0.8481    1.0174 N   0  0  0  0  0  0  0  0  0  0  0  0
   -3.4926   -0.3971    0.5954 H   0  0  0  0  0  0  0  0  0  0  0  0
   -1.4216   -0.1071    1.0434 C   0  0  1  0  0  0  0  0  0  0  0  0
   -0.7531   -0.5446    0.3001 H   0  0  0  0  0  0  0  0  0  0  0  0
   -1.7032    1.3584    0.6560 C   0  0  0  0  0  0  0  0  0  0  0  0
   -2.4906    1.7455    1.3059 H   0  0  0  0  0  0  0  0  0  0  0  0
   -0.8019    1.9518    0.8248 H   0  0  0  0  0  0  0  0  0  0  0  0
   -2.1537    1.5295   -0.8021 C   0  0  0  0  0  0  0  0  0  0  0  0
   -1.3776    1.1600   -1.4738 H   0  0  0  0  0  0  0  0  0  0  0  0
   -3.0710    0.9629   -0.9651 H   0  0  0  0  0  0  0  0  0  0  0  0
   -2.4106    3.0132   -1.0989 C   0  0  0  0  0  0  0  0  0  0  0  0
   -3.1693    3.3814   -0.4045 H   0  0  0  0  0  0  0  0  0  0  0  0
   -1.4832    3.5665   -0.9336 H   0  0  0  0  0  0  0  0  0  0  0  0
   -2.8700    3.2231   -2.4873 N   0  3  0  0  0  0  0  0  0  0  0  0
   -2.9159    2.4090   -3.0759 H   0  0  0  0  0  0  0  0  0  0  0  0
   -3.2257    4.3770   -3.0269 C   0  0  0  0  0  0  0  0  0  0  0  0
   -3.2036    5.4930   -2.3537 N   0  0  0  0  0  0  0  0  0  0  0  0
   -2.9078    5.4732   -1.3937 H   0  0  0  0  0  0  0  0  0  0  0  0
   -3.4764    6.3602   -2.7784 H   0  0  0  0  0  0  0  0  0  0  0  0
   -3.6142    4.4326   -4.2692 N   0  0  0  0  0  0  0  0  0  0  0  0
   -3.6482    3.5979   -4.8287 H   0  0  0  0  0  0  0  0  0  0  0  0
   -3.8833    5.3100   -4.6745 H   0  0  0  0  0  0  0  0  0  0  0  0
   -0.7656   -0.2168    2.4214 C   0  0  0  0  0  0  0  0  0  0  0  0
   -1.1786   -1.0454    3.2239 O   0  0  0  0  0  0  0  0  0  0  0  0
    0.2217    0.6412    2.6967 N   0  0  0  0  0  0  0  0  0  0  0  0
    0.5223    1.2641    1.9649 H   0  0  0  0  0  0  0  0  0  0  0  0
    0.9530    0.6685    3.9645 C   0  0  0  0  0  0  0  0  0  0  0  0
    1.5004   -0.2674    4.0953 H   0  0  0  0  0  0  0  0  0  0  0  0
    1.6603    1.4988    3.9774 H   0  0  0  0  0  0  0  0  0  0  0  0
    0.2542    0.7783    4.7966 H   0  0  0  0  0  0  0  0  0  0  0  0
  5  6  2  0  0  0  0
  5  7  1  0  0  0  0
  2  3  1  0  0  0  0
  2  4  1  0  0  0  0
  2  5  1  0  0  0  0
  1  2  1  0  0  0  0
 29 30  2  0  0  0  0
 29 31  1  0  0  0  0
 26 27  1  0  0  0  0
 26 28  1  0  0  0  0
 23 24  1  0  0  0  0
 23 25  1  0  0  0  0
 22 23  1  0  0  0  0
 22 26  1  0  0  0  0
 20 21  1  0  0  0  0
 20 22  2  0  0  0  0
 17 18  1  0  0  0  0
 17 19  1  0  0  0  0
 17 20  1  0  0  0  0
 14 15  1  0  0  0  0
 14 16  1  0  0  0  0
 14 17  1  0  0  0  0
 11 12  1  0  0  0  0
 11 13  1  0  0  0  0
 11 14  1  0  0  0  0
  9 10  1  0  0  0  0
  9 11  1  0  0  0  0
  9 29  1  0  0  0  0
  7  8  1  0  0  0  0
  7  9  1  0  0  0  0
 33 34  1  0  0  0  0
 33 35  1  0  0  0  0
 33 36  1  0  0  0  0
 31 32  1  0  0  0  0
 31 33  1  0  0  0  0
M  CHG  1  20   1
M  END
$$$$
default_name
  -OEChem-01062215323D

 36 35  0     1  0  0  0  0  0999 V2000
   -4.2256   -3.6731    1.8584 H   0  0  0  0  0  0  0  0  0  0  0  0
   -4.2396   -2.6781    1.4144 C   0  0  0  0  0  0  0  0  0  0  0  0
   -4.9506   -2.0521    1.9514 H   0  0  0  0  0  0  0  0  0  0  0  0
   -4.5266   -2.7521    0.3674 H   0  0  0  0  0  0  0  0  0  0  0  0
   -2.8576   -2.0761    1.5184 C   0  0  0  0  0  0  0  0  0  0  0  0
   -1.9456   -2.7051    2.0404 O   0  0  0  0  0  0  0  0  0  0  0  0
   -2.6926   -0.8481    1.0174 N   0  0  0  0  0  0  0  0  0  0  0  0
   -3.4926   -0.3971    0.5954 H   0  0  0  0  0  0  0  0  0  0  0  0
   -1.4216   -0.1071    1.0434 C   0  0  1  0  0  0  0  0  0  0  0  0
   -0.7531   -0.5446    0.3001 H   0  0  0  0  0  0  0  0  0  0  0  0
   -1.7032    1.3584    0.6560 C   0  0  0  0  0  0  0  0  0  0  0  0
   -2.4906    1.7455    1.3059 H   0  0  0  0  0  0  0  0  0  0  0  0
   -0.8019    1.9518    0.8248 H   0  0  0  0  0  0  0  0  0  0  0  0
   -2.1537    1.5295   -0.8021 C   0  0  0  0  0  0  0  0  0  0  0  0
   -1.3776    1.1600   -1.4738 H   0  0  0  0  0  0  0  0  0  0  0  0
   -3.0710    0.9629   -0.9651 H   0  0  0  0  0  0  0  0  0  0  0  0
   -2.4106    3.0132   -1.0989 C   0  0  0  0  0  0  0  0  0  0  0  0
   -3.1693    3.3814   -0.4045 H   0  0  0  0  0  0  0  0  0  0  0  0
   -1.4832    3.5665   -0.9336 H   0  0  0  0  0  0  0  0  0  0  0  0
   -2.8700    3.2231   -2.4873 N   0  3  0  0  0  0  0  0  0  0  0  0
   -2.9159    2.4090   -3.0759 H   0  0  0  0  0  0  0  0  0  0  0  0
   -3.2257    4.3770   -3.0269 C   0  0  0  0  0  0  0  0  0  0  0  0
   -3.2036    5.4930   -2.3537 N   0  0  0  0  0  0  0  0  0  0  0  0
   -2.9078    5.4732   -1.3937 H   0  0  0  0  0  0  0  0  0  0  0  0
   -3.4764    6.3602   -2.7784 H   0  0  0  0  0  0  0  0  0  0  0  0
   -3.6142    4.4326   -4.2692 N   0  0  0  0  0  0  0  0  0  0  0  0
   -3.6482    3.5979   -4.8287 H   0  0  0  0  0  0  0  0  0  0  0  0
   -3.8833    5.3100   -4.6745 H   0  0  0  0  0  0  0  0  0  0  0  0
   -0.7656   -0.2168    2.4214 C   0  0  0  0  0  0  0  0  0  0  0  0
   -0.9775   -1.2039    3.1156 O   0  0  0  0  0  0  0  0  0  0  0  0
   -0.0082    0.8101    2.8196 N   0  0  0  0  0  0  0  0  0  0  0  0
    0.1422    1.5644    2.1698 H   0  0  0  0  0  0  0  0  0  0  0  0
    0.6896    0.8627    4.1053 C   0  0  0  0  0  0  0  0  0  0  0  0
    1.4402    0.0707    4.1509 H   0  0  0  0  0  0  0  0  0  0  0  0
    1.1827    1.8275    4.2309 H   0  0  0  0  0  0  0  0  0  0  0  0
   -0.0200    0.7125    4.9219 H   0  0  0  0  0  0  0  0  0  0  0  0
  5  6  2  0  0  0  0
  5  7  1  0  0  0  0
  2  3  1  0  0  0  0
  2  4  1  0  0  0  0
  2  5  1  0  0  0  0
  1  2  1  0  0  0  0
 29 30  2  0  0  0  0
 29 31  1  0  0  0  0
 26 27  1  0  0  0  0
 26 28  1  0  0  0  0
 23 24  1  0  0  0  0
 23 25  1  0  0  0  0
 22 23  1  0  0  0  0
 22 26  1  0  0  0  0
 20 21  1  0  0  0  0
 20 22  2  0  0  0  0
 17 18  1  0  0  0  0
 17 19  1  0  0  0  0
 17 20  1  0  0  0  0
 14 15  1  0  0  0  0
 14 16  1  0  0  0  0
 14 17  1  0  0  0  0
 11 12  1  0  0  0  0
 11 13  1  0  0  0  0
 11 14  1  0  0  0  0
  9 10  1  0  0  0  0
  9 11  1  0  0  0  0
  9 29  1  0  0  0  0
  7  8  1  0  0  0  0
  7  9  1  0  0  0  0
 33 34  1  0  0  0  0
 33 35  1  0  0  0  0
 33 36  1  0  0  0  0
 31 32  1  0  0  0  0
 31 33  1  0  0  0  0
M  CHG  1  20   1
M  END
$$$$
default_name
  -OEChem-01062215323D

 36 35  0     1  0  0  0  0  0999 V2000
   -4.2256   -3.6731    1.8584 H   0  0  0  0  0  0  0  0  0  0  0  0
   -4.2396   -2.6781    1.4144 C   0  0  0  0  0  0  0  0  0  0  0  0
   -4.9506   -2.0521    1.9514 H   0  0  0  0  0  0  0  0  0  0  0  0
   -4.5266   -2.7521    0.3674 H   0  0  0  0  0  0  0  0  0  0  0  0
   -2.8576   -2.0761    1.5184 C   0  0  0  0  0  0  0  0  0  0  0  0
   -1.9456   -2.7051    2.0404 O   0  0  0  0  0  0  0  0  0  0  0  0
   -2.6926   -0.8481    1.0174 N   0  0  0  0  0  0  0  0  0  0  0  0
   -3.4926   -0.3971    0.5954 H   0  0  0  0  0  0  0  0  0  0  0  0
   -1.4216   -0.1071    1.0434 C   0  0  1  0  0  0  0  0  0  0  0  0
   -0.7531   -0.5446    0.3001 H   0  0  0  0  0  0  0  0  0  0  0  0
   -1.7032    1.3584    0.6560 C   0  0  0  0  0  0  0  0  0  0  0  0
   -2.4906    1.7455    1.3059 H   0  0  0  0  0  0  0  0  0  0  0  0
   -0.8019    1.9518    0.8248 H   0  0  0  0  0  0  0  0  0  0  0  0
   -2.1537    1.5295   -0.8021 C   0  0  0  0  0  0  0  0  0  0  0  0
   -1.3776    1.1600   -1.4738 H   0  0  0  0  0  0  0  0  0  0  0  0
   -3.0710    0.9629   -0.9651 H   0  0  0  0  0  0  0  0  0  0  0  0
   -2.4106    3.0132   -1.0989 C   0  0  0  0  0  0  0  0  0  0  0  0
   -3.1693    3.3814   -0.4045 H   0  0  0  0  0  0  0  0  0  0  0  0
   -1.4832    3.5665   -0.9336 H   0  0  0  0  0  0  0  0  0  0  0  0
   -2.8700    3.2231   -2.4873 N   0  3  0  0  0  0  0  0  0  0  0  0
   -2.9159    2.4090   -3.0759 H   0  0  0  0  0  0  0  0  0  0  0  0
   -3.2257    4.3770   -3.0269 C   0  0  0  0  0  0  0  0  0  0  0  0
   -3.2036    5.4930   -2.3537 N   0  0  0  0  0  0  0  0  0  0  0  0
   -2.9078    5.4732   -1.3937 H   0  0  0  0  0  0  0  0  0  0  0  0
   -3.4764    6.3602   -2.7784 H   0  0  0  0  0  0  0  0  0  0  0  0
   -3.6142    4.4326   -4.2692 N   0  0  0  0  0  0  0  0  0  0  0  0
   -3.6482    3.5979   -4.8287 H   0  0  0  0  0  0  0  0  0  0  0  0
   -3.8833    5.3100   -4.6745 H   0  0  0  0  0  0  0  0  0  0  0  0
   -0.7656   -0.2168    2.4214 C   0  0  0  0  0  0  0  0  0  0  0  0
   -0.7442   -1.2981    2.9970 O   0  0  0  0  0  0  0  0  0  0  0  0
   -0.2718    0.9060    2.9527 N   0  0  0  0  0  0  0  0  0  0  0  0
   -0.2987    1.7432    2.3939 H   0  0  0  0  0  0  0  0  0  0  0  0
    0.3873    0.9733    4.2580 C   0  0  0  0  0  0  0  0  0  0  0  0
    1.3022    0.3771    4.2409 H   0  0  0  0  0  0  0  0  0  0  0  0
    0.6401    2.0056    4.5033 H   0  0  0  0  0  0  0  0  0  0  0  0
   -0.2718    0.5711    5.0305 H   0  0  0  0  0  0  0  0  0  0  0  0
  5  6  2  0  0  0  0
  5  7  1  0  0  0  0
  2  3  1  0  0  0  0
  2  4  1  0  0  0  0
  2  5  1  0  0  0  0
  1  2  1  0  0  0  0
 29 30  2  0  0  0  0
 29 31  1  0  0  0  0
 26 27  1  0  0  0  0
 26 28  1  0  0  0  0
 23 24  1  0  0  0  0
 23 25  1  0  0  0  0
 22 23  1  0  0  0  0
 22 26  1  0  0  0  0
 20 21  1  0  0  0  0
 20 22  2  0  0  0  0
 17 18  1  0  0  0  0
 17 19  1  0  0  0  0
 17 20  1  0  0  0  0
 14 15  1  0  0  0  0
 14 16  1  0  0  0  0
 14 17  1  0  0  0  0
 11 12  1  0  0  0  0
 11 13  1  0  0  0  0
 11 14  1  0  0  0  0
  9 10  1  0  0  0  0
  9 11  1  0  0  0  0
  9 29  1  0  0  0  0
  7  8  1  0  0  0  0
  7  9  1  0  0  0  0
 33 34  1  0  0  0  0
 33 35  1  0  0  0  0
 33 36  1  0  0  0  0
 31 32  1  0  0  0  0
 31 33  1  0  0  0  0
M  CHG  1  20   1
M  END
$$$$
default_name
  -OEChem-01062215323D

 36 35  0     1  0  0  0  0  0999 V2000
   -4.2256   -3.6731    1.8584 H   0  0  0  0  0  0  0  0  0  0  0  0
   -4.2396   -2.6781    1.4144 C   0  0  0  0  0  0  0  0  0  0  0  0
   -4.9506   -2.0521    1.9514 H   0  0  0  0  0  0  0  0  0  0  0  0
   -4.5266   -2.7521    0.3674 H   0  0  0  0  0  0  0  0  0  0  0  0
   -2.8576   -2.0761    1.5184 C   0  0  0  0  0  0  0  0  0  0  0  0
   -1.9456   -2.7051    2.0404 O   0  0  0  0  0  0  0  0  0  0  0  0
   -2.6926   -0.8481    1.0174 N   0  0  0  0  0  0  0  0  0  0  0  0
   -3.4926   -0.3971    0.5954 H   0  0  0  0  0  0  0  0  0  0  0  0
   -1.4216   -0.1071    1.0434 C   0  0  1  0  0  0  0  0  0  0  0  0
   -0.7531   -0.5446    0.3001 H   0  0  0  0  0  0  0  0  0  0  0  0
   -1.7032    1.3584    0.6560 C   0  0  0  0  0  0  0  0  0  0  0  0
   -2.4906    1.7455    1.3059 H   0  0  0  0  0  0  0  0  0  0  0  0
   -0.8019    1.9518    0.8248 H   0  0  0  0  0  0  0  0  0  0  0  0
   -2.1537    1.5295   -0.8021 C   0  0  0  0  0  0  0  0  0  0  0  0
   -1.3776    1.1600   -1.4738 H   0  0  0  0  0  0  0  0  0  0  0  0
   -3.0710    0.9629   -0.9651 H   0  0  0  0  0  0  0  0  0  0  0  0
   -2.4106    3.0132   -1.0989 C   0  0  0  0  0  0  0  0  0  0  0  0
   -3.1693    3.3814   -0.4045 H   0  0  0  0  0  0  0  0  0  0  0  0
   -1.4832    3.5665   -0.9336 H   0  0  0  0  0  0  0  0  0  0  0  0
   -2.8700    3.2231   -2.4873 N   0  3  0  0  0  0  0  0  0  0  0  0
   -2.9159    2.4090   -3.0759 H   0  0  0  0  0  0  0  0  0  0  0  0
   -3.2257    4.3770   -3.0269 C   0  0  0  0  0  0  0  0  0  0  0  0
   -3.2036    5.4930   -2.3537 N   0  0  0  0  0  0  0  0  0  0  0  0
   -2.9078    5.4732   -1.3937 H   0  0  0  0  0  0  0  0  0  0  0  0
   -3.4764    6.3602   -2.7784 H   0  0  0  0  0  0  0  0  0  0  0  0
   -3.6142    4.4326   -4.2692 N   0  0  0  0  0  0  0  0  0  0  0  0
   -3.6482    3.5979   -4.8287 H   0  0  0  0  0  0  0  0  0  0  0  0
   -3.8833    5.3100   -4.6745 H   0  0  0  0  0  0  0  0  0  0  0  0
   -0.7656   -0.2168    2.4214 C   0  0  0  0  0  0  0  0  0  0  0  0
   -0.4947   -1.3216    2.8764 O   0  0  0  0  0  0  0  0  0  0  0  0
   -0.5513    0.9224    3.0870 N   0  0  0  0  0  0  0  0  0  0  0  0
   -0.7705    1.7882    2.6220 H   0  0  0  0  0  0  0  0  0  0  0  0
    0.0667    0.9927    4.4122 C   0  0  0  0  0  0  0  0  0  0  0  0
    1.0958    0.6310    4.3594 H   0  0  0  0  0  0  0  0  0  0  0  0
    0.0695    2.0209    4.7762 H   0  0  0  0  0  0  0  0  0  0  0  0
   -0.4841    0.3638    5.1150 H   0  0  0  0  0  0  0  0  0  0  0  0
  5  6  2  0  0  0  0
  5  7  1  0  0  0  0
  2  3  1  0  0  0  0
  2  4  1  0  0  0  0
  2  5  1  0  0  0  0
  1  2  1  0  0  0  0
 29 30  2  0  0  0  0
 29 31  1  0  0  0  0
 26 27  1  0  0  0  0
 26 28  1  0  0  0  0
 23 24  1  0  0  0  0
 23 25  1  0  0  0  0
 22 23  1  0  0  0  0
 22 26  1  0  0  0  0
 20 21  1  0  0  0  0
 20 22  2  0  0  0  0
 17 18  1  0  0  0  0
 17 19  1  0  0  0  0
 17 20  1  0  0  0  0
 14 15  1  0  0  0  0
 14 16  1  0  0  0  0
 14 17  1  0  0  0  0
 11 12  1  0  0  0  0
 11 13  1  0  0  0  0
 11 14  1  0  0  0  0
  9 10  1  0  0  0  0
  9 11  1  0  0  0  0
  9 29  1  0  0  0  0
  7  8  1  0  0  0  0
  7  9  1  0  0  0  0
 33 34  1  0  0  0  0
 33 35  1  0  0  0  0
 33 36  1  0  0  0  0
 31 32  1  0  0  0  0
 31 33  1  0  0  0  0
M  CHG  1  20   1
M  END
$$$$
default_name
  -OEChem-01062215323D

 36 35  0     1  0  0  0  0  0999 V2000
   -4.2256   -3.6731    1.8584 H   0  0  0  0  0  0  0  0  0  0  0  0
   -4.2396   -2.6781    1.4144 C   0  0  0  0  0  0  0  0  0  0  0  0
   -4.9506   -2.0521    1.9514 H   0  0  0  0  0  0  0  0  0  0  0  0
   -4.5266   -2.7521    0.3674 H   0  0  0  0  0  0  0  0  0  0  0  0
   -2.8576   -2.0761    1.5184 C   0  0  0  0  0  0  0  0  0  0  0  0
   -1.9456   -2.7051    2.0404 O   0  0  0  0  0  0  0  0  0  0  0  0
   -2.6926   -0.8481    1.0174 N   0  0  0  0  0  0  0  0  0  0  0  0
   -3.4926   -0.3971    0.5954 H   0  0  0  0  0  0  0  0  0  0  0  0
   -1.4216   -0.1071    1.0434 C   0  0  1  0  0  0  0  0  0  0  0  0
   -0.7531   -0.5446    0.3001 H   0  0  0  0  0  0  0  0  0  0  0  0
   -1.7032    1.3584    0.6560 C   0  0  0  0  0  0  0  0  0  0  0  0
   -2.4906    1.7455    1.3059 H   0  0  0  0  0  0  0  0  0  0  0  0
   -0.8019    1.9518    0.8248 H   0  0  0  0  0  0  0  0  0  0  0  0
   -2.1537    1.5295   -0.8021 C   0  0  0  0  0  0  0  0  0  0  0  0
   -1.3776    1.1600   -1.4738 H   0  0  0  0  0  0  0  0  0  0  0  0
   -3.0710    0.9629   -0.9651 H   0  0  0  0  0  0  0  0  0  0  0  0
   -2.4106    3.0132   -1.0989 C   0  0  0  0  0  0  0  0  0  0  0  0
   -3.1693    3.3814   -0.4045 H   0  0  0  0  0  0  0  0  0  0  0  0
   -1.4832    3.5665   -0.9336 H   0  0  0  0  0  0  0  0  0  0  0  0
   -2.8700    3.2231   -2.4873 N   0  3  0  0  0  0  0  0  0  0  0  0
   -2.9159    2.4090   -3.0759 H   0  0  0  0  0  0  0  0  0  0  0  0
   -3.2257    4.3770   -3.0269 C   0  0  0  0  0  0  0  0  0  0  0  0
   -3.2036    5.4930   -2.3537 N   0  0  0  0  0  0  0  0  0  0  0  0
   -2.9078    5.4732   -1.3937 H   0  0  0  0  0  0  0  0  0  0  0  0
   -3.4764    6.3602   -2.7784 H   0  0  0  0  0  0  0  0  0  0  0  0
   -3.6142    4.4326   -4.2692 N   0  0  0  0  0  0  0  0  0  0  0  0
   -3.6482    3.5979   -4.8287 H   0  0  0  0  0  0  0  0  0  0  0  0
   -3.8833    5.3100   -4.6745 H   0  0  0  0  0  0  0  0  0  0  0  0
   -0.7656   -0.2168    2.4214 C   0  0  0  0  0  0  0  0  0  0  0  0
   -0.2460   -1.2728    2.7619 O   0  0  0  0  0  0  0  0  0  0  0  0
   -0.8276    0.8582    3.2134 N   0  0  0  0  0  0  0  0  0  0  0  0
   -1.2409    1.6964    2.8386 H   0  0  0  0  0  0  0  0  0  0  0  0
   -0.2504    0.9196    4.5573 C   0  0  0  0  0  0  0  0  0  0  0  0
    0.8351    0.8149    4.4981 H   0  0  0  0  0  0  0  0  0  0  0  0
   -0.4904    1.8724    5.0308 H   0  0  0  0  0  0  0  0  0  0  0  0
   -0.6423    0.1047    5.1698 H   0  0  0  0  0  0  0  0  0  0  0  0
  5  6  2  0  0  0  0
  5  7  1  0  0  0  0
  2  3  1  0  0  0  0
  2  4  1  0  0  0  0
  2  5  1  0  0  0  0
  1  2  1  0  0  0  0
 29 30  2  0  0  0  0
 29 31  1  0  0  0  0
 26 27  1  0  0  0  0
 26 28  1  0  0  0  0
 23 24  1  0  0  0  0
 23 25  1  0  0  0  0
 22 23  1  0  0  0  0
 22 26  1  0  0  0  0
 20 21  1  0  0  0  0
 20 22  2  0  0  0  0
 17 18  1  0  0  0  0
 17 19  1  0  0  0  0
 17 20  1  0  0  0  0
 14 15  1  0  0  0  0
 14 16  1  0  0  0  0
 14 17  1  0  0  0  0
 11 12  1  0  0  0  0
 11 13  1  0  0  0  0
 11 14  1  0  0  0  0
  9 10  1  0  0  0  0
  9 11  1  0  0  0  0
  9 29  1  0  0  0  0
  7  8  1  0  0  0  0
  7  9  1  0  0  0  0
 33 34  1  0  0  0  0
 33 35  1  0  0  0  0
 33 36  1  0  0  0  0
 31 32  1  0  0  0  0
 31 33  1  0  0  0  0
M  CHG  1  20   1
M  END
$$$$
default_name
  -OEChem-01062215323D

 36 35  0     1  0  0  0  0  0999 V2000
   -4.2256   -3.6731    1.8584 H   0  0  0  0  0  0  0  0  0  0  0  0
   -4.2396   -2.6781    1.4144 C   0  0  0  0  0  0  0  0  0  0  0  0
   -4.9506   -2.0521    1.9514 H   0  0  0  0  0  0  0  0  0  0  0  0
   -4.5266   -2.7521    0.3674 H   0  0  0  0  0  0  0  0  0  0  0  0
   -2.8576   -2.0761    1.5184 C   0  0  0  0  0  0  0  0  0  0  0  0
   -1.9456   -2.7051    2.0404 O   0  0  0  0  0  0  0  0  0  0  0  0
   -2.6926   -0.8481    1.0174 N   0  0  0  0  0  0  0  0  0  0  0  0
   -3.4926   -0.3971    0.5954 H   0  0  0  0  0  0  0  0  0  0  0  0
   -1.4216   -0.1071    1.0434 C   0  0  1  0  0  0  0  0  0  0  0  0
   -0.7531   -0.5446    0.3001 H   0  0  0  0  0  0  0  0  0  0  0  0
   -1.7032    1.3584    0.6560 C   0  0  0  0  0  0  0  0  0  0  0  0
   -2.4906    1.7455    1.3059 H   0  0  0  0  0  0  0  0  0  0  0  0
   -0.8019    1.9518    0.8248 H   0  0  0  0  0  0  0  0  0  0  0  0
   -2.1537    1.5295   -0.8021 C   0  0  0  0  0  0  0  0  0  0  0  0
   -1.3776    1.1600   -1.4738 H   0  0  0  0  0  0  0  0  0  0  0  0
   -3.0710    0.9629   -0.9651 H   0  0  0  0  0  0  0  0  0  0  0  0
   -2.4106    3.0132   -1.0989 C   0  0  0  0  0  0  0  0  0  0  0  0
   -3.1693    3.3814   -0.4045 H   0  0  0  0  0  0  0  0  0  0  0  0
   -1.4832    3.5665   -0.9336 H   0  0  0  0  0  0  0  0  0  0  0  0
   -2.8700    3.2231   -2.4873 N   0  3  0  0  0  0  0  0  0  0  0  0
   -2.9159    2.4090   -3.0759 H   0  0  0  0  0  0  0  0  0  0  0  0
   -3.2257    4.3770   -3.0269 C   0  0  0  0  0  0  0  0  0  0  0  0
   -3.2036    5.4930   -2.3537 N   0  0  0  0  0  0  0  0  0  0  0  0
   -2.9078    5.4732   -1.3937 H   0  0  0  0  0  0  0  0  0  0  0  0
   -3.4764    6.3602   -2.7784 H   0  0  0  0  0  0  0  0  0  0  0  0
   -3.6142    4.4326   -4.2692 N   0  0  0  0  0  0  0  0  0  0  0  0
   -3.6482    3.5979   -4.8287 H   0  0  0  0  0  0  0  0  0  0  0  0
   -3.8833    5.3100   -4.6745 H   0  0  0  0  0  0  0  0  0  0  0  0
   -0.7656   -0.2168    2.4214 C   0  0  0  0  0  0  0  0  0  0  0  0
   -0.0150   -1.1549    2.6614 O   0  0  0  0  0  0  0  0  0  0  0  0
   -1.0818    0.7178    3.3233 N   0  0  0  0  0  0  0  0  0  0  0  0
   -1.6779    1.4741    3.0289 H   0  0  0  0  0  0  0  0  0  0  0  0
   -0.5423    0.7590    4.6834 C   0  0  0  0  0  0  0  0  0  0  0  0
    0.5378    0.9164    4.6477 H   0  0  0  0  0  0  0  0  0  0  0  0
   -1.0013    1.5702    5.2500 H   0  0  0  0  0  0  0  0  0  0  0  0
   -0.7359   -0.1886    5.1909 H   0  0  0  0  0  0  0  0  0  0  0  0
  5  6  2  0  0  0  0
  5  7  1  0  0  0  0
  2  3  1  0  0  0  0
  2  4  1  0  0  0  0
  2  5  1  0  0  0  0
  1  2  1  0  0  0  0
 29 30  2  0  0  0  0
 29 31  1  0  0  0  0
 26 27  1  0  0  0  0
 26 28  1  0  0  0  0
 23 24  1  0  0  0  0
 23 25  1  0  0  0  0
 22 23  1  0  0  0  0
 22 26  1  0  0  0  0
 20 21  1  0  0  0  0
 20 22  2  0  0  0  0
 17 18  1  0  0  0  0
 17 19  1  0  0  0  0
 17 20  1  0  0  0  0
 14 15  1  0  0  0  0
 14 16  1  0  0  0  0
 14 17  1  0  0  0  0
 11 12  1  0  0  0  0
 11 13  1  0  0  0  0
 11 14  1  0  0  0  0
  9 10  1  0  0  0  0
  9 11  1  0  0  0  0
  9 29  1  0  0  0  0
  7  8  1  0  0  0  0
  7  9  1  0  0  0  0
 33 34  1  0  0  0  0
 33 35  1  0  0  0  0
 33 36  1  0  0  0  0
 31 32  1  0  0  0  0
 31 33  1  0  0  0  0
M  CHG  1  20   1
M  END
$$$$
default_name
  -OEChem-01062215323D

 36 35  0     1  0  0  0  0  0999 V2000
   -4.2256   -3.6731    1.8584 H   0  0  0  0  0  0  0  0  0  0  0  0
   -4.2396   -2.6781    1.4144 C   0  0  0  0  0  0  0  0  0  0  0  0
   -4.9506   -2.0521    1.9514 H   0  0  0  0  0  0  0  0  0  0  0  0
   -4.5266   -2.7521    0.3674 H   0  0  0  0  0  0  0  0  0  0  0  0
   -2.8576   -2.0761    1.5184 C   0  0  0  0  0  0  0  0  0  0  0  0
   -1.9456   -2.7051    2.0404 O   0  0  0  0  0  0  0  0  0  0  0  0
   -2.6926   -0.8481    1.0174 N   0  0  0  0  0  0  0  0  0  0  0  0
   -3.4926   -0.3971    0.5954 H   0  0  0  0  0  0  0  0  0  0  0  0
   -1.4216   -0.1071    1.0434 C   0  0  1  0  0  0  0  0  0  0  0  0
   -0.7531   -0.5446    0.3001 H   0  0  0  0  0  0  0  0  0  0  0  0
   -1.7032    1.3584    0.6560 C   0  0  0  0  0  0  0  0  0  0  0  0
   -2.4906    1.7455    1.3059 H   0  0  0  0  0  0  0  0  0  0  0  0
   -0.8019    1.9518    0.8248 H   0  0  0  0  0  0  0  0  0  0  0  0
   -2.1537    1.5295   -0.8021 C   0  0  0  0  0  0  0  0  0  0  0  0
   -1.3776    1.1600   -1.4738 H   0  0  0  0  0  0  0  0  0  0  0  0
   -3.0710    0.9629   -0.9651 H   0  0  0  0  0  0  0  0  0  0  0  0
   -2.4106    3.0132   -1.0989 C   0  0  0  0  0  0  0  0  0  0  0  0
   -3.1693    3.3814   -0.4045 H   0  0  0  0  0  0  0  0  0  0  0  0
   -1.4832    3.5665   -0.9336 H   0  0  0  0  0  0  0  0  0  0  0  0
   -2.8700    3.2231   -2.4873 N   0  3  0  0  0  0  0  0  0  0  0  0
   -2.9159    2.4090   -3.0759 H   0  0  0  0  0  0  0  0  0  0  0  0
   -3.2257    4.3770   -3.0269 C   0  0  0  0  0  0  0  0  0  0  0  0
   -3.2036    5.4930   -2.3537 N   0  0  0  0  0  0  0  0  0  0  0  0
   -2.9078    5.4732   -1.3937 H   0  0  0  0  0  0  0  0  0  0  0  0
   -3.4764    6.3602   -2.7784 H   0  0  0  0  0  0  0  0  0  0  0  0
   -3.6142    4.4326   -4.2692 N   0  0  0  0  0  0  0  0  0  0  0  0
   -3.6482    3.5979   -4.8287 H   0  0  0  0  0  0  0  0  0  0  0  0
   -3.8833    5.3100   -4.6745 H   0  0  0  0  0  0  0  0  0  0  0  0
   -0.7656   -0.2168    2.4214 C   0  0  0  0  0  0  0  0  0  0  0  0
    0.1824   -0.9761    2.5816 O   0  0  0  0  0  0  0  0  0  0  0  0
   -1.2967    0.5107    3.4091 N   0  0  0  0  0  0  0  0  0  0  0  0
   -2.0517    1.1363    3.1800 H   0  0  0  0  0  0  0  0  0  0  0  0
   -0.7892    0.5218    4.7821 C   0  0  0  0  0  0  0  0  0  0  0  0
    0.2242    0.9286    4.7979 H   0  0  0  0  0  0  0  0  0  0  0  0
   -1.4284    1.1349    5.4186 H   0  0  0  0  0  0  0  0  0  0  0  0
   -0.7582   -0.4960    5.1771 H   0  0  0  0  0  0  0  0  0  0  0  0
  5  6  2  0  0  0  0
  5  7  1  0  0  0  0
  2  3  1  0  0  0  0
  2  4  1  0  0  0  0
  2  5  1  0  0  0  0
  1  2  1  0  0  0  0
 29 30  2  0  0  0  0
 29 31  1  0  0  0  0
 26 27  1  0  0  0  0
 26 28  1  0  0  0  0
 23 24  1  0  0  0  0
 23 25  1  0  0  0  0
 22 23  1  0  0  0  0
 22 26  1  0  0  0  0
 20 21  1  0  0  0  0
 20 22  2  0  0  0  0
 17 18  1  0  0  0  0
 17 19  1  0  0  0  0
 17 20  1  0  0  0  0
 14 15  1  0  0  0  0
 14 16  1  0  0  0  0
 14 17  1  0  0  0  0
 11 12  1  0  0  0  0
 11 13  1  0  0  0  0
 11 14  1  0  0  0  0
  9 10  1  0  0  0  0
  9 11  1  0  0  0  0
  9 29  1  0  0  0  0
  7  8  1  0  0  0  0
  7  9  1  0  0  0  0
 33 34  1  0  0  0  0
 33 35  1  0  0  0  0
 33 36  1  0  0  0  0
 31 32  1  0  0  0  0
 31 33  1  0  0  0  0
M  CHG  1  20   1
M  END
$$$$
default_name
  -OEChem-01062215323D

 36 35  0     1  0  0  0  0  0999 V2000
   -4.2256   -3.6731    1.8584 H   0  0  0  0  0  0  0  0  0  0  0  0
   -4.2396   -2.6781    1.4144 C   0  0  0  0  0  0  0  0  0  0  0  0
   -4.9506   -2.0521    1.9514 H   0  0  0  0  0  0  0  0  0  0  0  0
   -4.5266   -2.7521    0.3674 H   0  0  0  0  0  0  0  0  0  0  0  0
   -2.8576   -2.0761    1.5184 C   0  0  0  0  0  0  0  0  0  0  0  0
   -1.9456   -2.7051    2.0404 O   0  0  0  0  0  0  0  0  0  0  0  0
   -2.6926   -0.8481    1.0174 N   0  0  0  0  0  0  0  0  0  0  0  0
   -3.4926   -0.3971    0.5954 H   0  0  0  0  0  0  0  0  0  0  0  0
   -1.4216   -0.1071    1.0434 C   0  0  1  0  0  0  0  0  0  0  0  0
   -0.7531   -0.5446    0.3001 H   0  0  0  0  0  0  0  0  0  0  0  0
   -1.7032    1.3584    0.6560 C   0  0  0  0  0  0  0  0  0  0  0  0
   -2.4906    1.7455    1.3059 H   0  0  0  0  0  0  0  0  0  0  0  0
   -0.8019    1.9518    0.8248 H   0  0  0  0  0  0  0  0  0  0  0  0
   -2.1537    1.5295   -0.8021 C   0  0  0  0  0  0  0  0  0  0  0  0
   -1.3776    1.1600   -1.4738 H   0  0  0  0  0  0  0  0  0  0  0  0
   -3.0710    0.9629   -0.9651 H   0  0  0  0  0  0  0  0  0  0  0  0
   -2.4106    3.0132   -1.0989 C   0  0  0  0  0  0  0  0  0  0  0  0
   -3.1693    3.3814   -0.4045 H   0  0  0  0  0  0  0  0  0  0  0  0
   -1.4832    3.5665   -0.9336 H   0  0  0  0  0  0  0  0  0  0  0  0
   -2.8700    3.2231   -2.4873 N   0  3  0  0  0  0  0  0  0  0  0  0
   -2.9159    2.4090   -3.0759 H   0  0  0  0  0  0  0  0  0  0  0  0
   -3.2257    4.3770   -3.0269 C   0  0  0  0  0  0  0  0  0  0  0  0
   -3.2036    5.4930   -2.3537 N   0  0  0  0  0  0  0  0  0  0  0  0
   -2.9078    5.4732   -1.3937 H   0  0  0  0  0  0  0  0  0  0  0  0
   -3.4764    6.3602   -2.7784 H   0  0  0  0  0  0  0  0  0  0  0  0
   -3.6142    4.4326   -4.2692 N   0  0  0  0  0  0  0  0  0  0  0  0
   -3.6482    3.5979   -4.8287 H   0  0  0  0  0  0  0  0  0  0  0  0
   -3.8833    5.3100   -4.6745 H   0  0  0  0  0  0  0  0  0  0  0  0
   -0.7656   -0.2168    2.4214 C   0  0  0  0  0  0  0  0  0  0  0  0
    0.3330   -0.7485    2.5280 O   0  0  0  0  0  0  0  0  0  0  0  0
   -1.4576    0.2510    3.4650 N   0  0  0  0  0  0  0  0  0  0  0  0
   -2.3368    0.7062    3.2815 H   0  0  0  0  0  0  0  0  0  0  0  0
   -0.9742    0.2242    4.8465 C   0  0  0  0  0  0  0  0  0  0  0  0
   -0.0843    0.8505    4.9385 H   0  0  0  0  0  0  0  0  0  0  0  0
   -1.7426    0.5962    5.5253 H   0  0  0  0  0  0  0  0  0  0  0  0
   -0.7079   -0.7966    5.1292 H   0  0  0  0  0  0  0  0  0  0  0  0
  5  6  2  0  0  0  0
  5  7  1  0  0  0  0
  2  3  1  0  0  0  0
  2  4  1  0  0  0  0
  2  5  1  0  0  0  0
  1  2  1  0  0  0  0
 29 30  2  0  0  0  0
 29 31  1  0  0  0  0
 26 27  1  0  0  0  0
 26 28  1  0  0  0  0
 23 24  1  0  0  0  0
 23 25  1  0  0  0  0
 22 23  1  0  0  0  0
 22 26  1  0  0  0  0
 20 21  1  0  0  0  0
 20 22  2  0  0  0  0
 17 18  1  0  0  0  0
 17 19  1  0  0  0  0
 17 20  1  0  0  0  0
 14 15  1  0  0  0  0
 14 16  1  0  0  0  0
 14 17  1  0  0  0  0
 11 12  1  0  0  0  0
 11 13  1  0  0  0  0
 11 14  1  0  0  0  0
  9 10  1  0  0  0  0
  9 11  1  0  0  0  0
  9 29  1  0  0  0  0
  7  8  1  0  0  0  0
  7  9  1  0  0  0  0
 33 34  1  0  0  0  0
 33 35  1  0  0  0  0
 33 36  1  0  0  0  0
 31 32  1  0  0  0  0
 31 33  1  0  0  0  0
M  CHG  1  20   1
M  END
$$$$
default_name
  -OEChem-01062215323D

 36 35  0     1  0  0  0  0  0999 V2000
   -4.2256   -3.6731    1.8584 H   0  0  0  0  0  0  0  0  0  0  0  0
   -4.2396   -2.6781    1.4144 C   0  0  0  0  0  0  0  0  0  0  0  0
   -4.9506   -2.0521    1.9514 H   0  0  0  0  0  0  0  0  0  0  0  0
   -4.5266   -2.7521    0.3674 H   0  0  0  0  0  0  0  0  0  0  0  0
   -2.8576   -2.0761    1.5184 C   0  0  0  0  0  0  0  0  0  0  0  0
   -1.9456   -2.7051    2.0404 O   0  0  0  0  0  0  0  0  0  0  0  0
   -2.6926   -0.8481    1.0174 N   0  0  0  0  0  0  0  0  0  0  0  0
   -3.4926   -0.3971    0.5954 H   0  0  0  0  0  0  0  0  0  0  0  0
   -1.4216   -0.1071    1.0434 C   0  0  1  0  0  0  0  0  0  0  0  0
   -0.7531   -0.5446    0.3001 H   0  0  0  0  0  0  0  0  0  0  0  0
   -1.7032    1.3584    0.6560 C   0  0  0  0  0  0  0  0  0  0  0  0
   -2.4906    1.7455    1.3059 H   0  0  0  0  0  0  0  0  0  0  0  0
   -0.8019    1.9518    0.8248 H   0  0  0  0  0  0  0  0  0  0  0  0
   -2.1537    1.5295   -0.8021 C   0  0  0  0  0  0  0  0  0  0  0  0
   -1.3776    1.1600   -1.4738 H   0  0  0  0  0  0  0  0  0  0  0  0
   -3.0710    0.9629   -0.9651 H   0  0  0  0  0  0  0  0  0  0  0  0
   -2.4106    3.0132   -1.0989 C   0  0  0  0  0  0  0  0  0  0  0  0
   -3.1693    3.3814   -0.4045 H   0  0  0  0  0  0  0  0  0  0  0  0
   -1.4832    3.5665   -0.9336 H   0  0  0  0  0  0  0  0  0  0  0  0
   -2.8700    3.2231   -2.4873 N   0  3  0  0  0  0  0  0  0  0  0  0
   -2.9159    2.4090   -3.0759 H   0  0  0  0  0  0  0  0  0  0  0  0
   -3.2257    4.3770   -3.0269 C   0  0  0  0  0  0  0  0  0  0  0  0
   -3.2036    5.4930   -2.3537 N   0  0  0  0  0  0  0  0  0  0  0  0
   -2.9078    5.4732   -1.3937 H   0  0  0  0  0  0  0  0  0  0  0  0
   -3.4764    6.3602   -2.7784 H   0  0  0  0  0  0  0  0  0  0  0  0
   -3.6142    4.4326   -4.2692 N   0  0  0  0  0  0  0  0  0  0  0  0
   -3.6482    3.5979   -4.8287 H   0  0  0  0  0  0  0  0  0  0  0  0
   -3.8833    5.3100   -4.6745 H   0  0  0  0  0  0  0  0  0  0  0  0
   -0.7656   -0.2168    2.4214 C   0  0  0  0  0  0  0  0  0  0  0  0
    0.4264   -0.4876    2.5044 O   0  0  0  0  0  0  0  0  0  0  0  0
   -1.5535   -0.0435    3.4872 N   0  0  0  0  0  0  0  0  0  0  0  0
   -2.5139    0.2130    3.3265 H   0  0  0  0  0  0  0  0  0  0  0  0
   -1.0847   -0.1135    4.8722 C   0  0  0  0  0  0  0  0  0  0  0  0
   -0.3667    0.6877    5.0600 H   0  0  0  0  0  0  0  0  0  0  0  0
   -1.9225   -0.0093    5.5628 H   0  0  0  0  0  0  0  0  0  0  0  0
   -0.5884   -1.0700    5.0506 H   0  0  0  0  0  0  0  0  0  0  0  0
  5  6  2  0  0  0  0
  5  7  1  0  0  0  0
  2  3  1  0  0  0  0
  2  4  1  0  0  0  0
  2  5  1  0  0  0  0
  1  2  1  0  0  0  0
 29 30  2  0  0  0  0
 29 31  1  0  0  0  0
 26 27  1  0  0  0  0
 26 28  1  0  0  0  0
 23 24  1  0  0  0  0
 23 25  1  0  0  0  0
 22 23  1  0  0  0  0
 22 26  1  0  0  0  0
 20 21  1  0  0  0  0
 20 22  2  0  0  0  0
 17 18  1  0  0  0  0
 17 19  1  0  0  0  0
 17 20  1  0  0  0  0
 14 15  1  0  0  0  0
 14 16  1  0  0  0  0
 14 17  1  0  0  0  0
 11 12  1  0  0  0  0
 11 13  1  0  0  0  0
 11 14  1  0  0  0  0
  9 10  1  0  0  0  0
  9 11  1  0  0  0  0
  9 29  1  0  0  0  0
  7  8  1  0  0  0  0
  7  9  1  0  0  0  0
 33 34  1  0  0  0  0
 33 35  1  0  0  0  0
 33 36  1  0  0  0  0
 31 32  1  0  0  0  0
 31 33  1  0  0  0  0
M  CHG  1  20   1
M  END
$$$$
default_name
  -OEChem-01062215323D

 36 35  0     1  0  0  0  0  0999 V2000
   -4.2256   -3.6731    1.8584 H   0  0  0  0  0  0  0  0  0  0  0  0
   -4.2396   -2.6781    1.4144 C   0  0  0  0  0  0  0  0  0  0  0  0
   -4.9506   -2.0521    1.9514 H   0  0  0  0  0  0  0  0  0  0  0  0
   -4.5266   -2.7521    0.3674 H   0  0  0  0  0  0  0  0  0  0  0  0
   -2.8576   -2.0761    1.5184 C   0  0  0  0  0  0  0  0  0  0  0  0
   -1.9456   -2.7051    2.0404 O   0  0  0  0  0  0  0  0  0  0  0  0
   -2.6926   -0.8481    1.0174 N   0  0  0  0  0  0  0  0  0  0  0  0
   -3.4926   -0.3971    0.5954 H   0  0  0  0  0  0  0  0  0  0  0  0
   -1.4216   -0.1071    1.0434 C   0  0  1  0  0  0  0  0  0  0  0  0
   -0.7531   -0.5446    0.3001 H   0  0  0  0  0  0  0  0  0  0  0  0
   -1.7032    1.3584    0.6560 C   0  0  0  0  0  0  0  0  0  0  0  0
   -2.4906    1.7455    1.3059 H   0  0  0  0  0  0  0  0  0  0  0  0
   -0.8019    1.9518    0.8248 H   0  0  0  0  0  0  0  0  0  0  0  0
   -2.1537    1.5295   -0.8021 C   0  0  0  0  0  0  0  0  0  0  0  0
   -1.3776    1.1600   -1.4738 H   0  0  0  0  0  0  0  0  0  0  0  0
   -3.0710    0.9629   -0.9651 H   0  0  0  0  0  0  0  0  0  0  0  0
   -2.4106    3.0132   -1.0989 C   0  0  0  0  0  0  0  0  0  0  0  0
   -3.1693    3.3814   -0.4045 H   0  0  0  0  0  0  0  0  0  0  0  0
   -1.4832    3.5665   -0.9336 H   0  0  0  0  0  0  0  0  0  0  0  0
   -2.8700    3.2231   -2.4873 N   0  3  0  0  0  0  0  0  0  0  0  0
   -2.9159    2.4090   -3.0759 H   0  0  0  0  0  0  0  0  0  0  0  0
   -3.2257    4.3770   -3.0269 C   0  0  0  0  0  0  0  0  0  0  0  0
   -3.2036    5.4930   -2.3537 N   0  0  0  0  0  0  0  0  0  0  0  0
   -2.9078    5.4732   -1.3937 H   0  0  0  0  0  0  0  0  0  0  0  0
   -3.4764    6.3602   -2.7784 H   0  0  0  0  0  0  0  0  0  0  0  0
   -3.6142    4.4326   -4.2692 N   0  0  0  0  0  0  0  0  0  0  0  0
   -3.6482    3.5979   -4.8287 H   0  0  0  0  0  0  0  0  0  0  0  0
   -3.8833    5.3100   -4.6745 H   0  0  0  0  0  0  0  0  0  0  0  0
   -0.7656   -0.2168    2.4214 C   0  0  0  0  0  0  0  0  0  0  0  0
    0.4562   -0.2112    2.5122 O   0  0  0  0  0  0  0  0  0  0  0  0
   -1.5780   -0.3528    3.4743 N   0  0  0  0  0  0  0  0  0  0  0  0
   -2.5708   -0.3096    3.3120 H   0  0  0  0  0  0  0  0  0  0  0  0
   -1.1132   -0.4684    4.8575 C   0  0  0  0  0  0  0  0  0  0  0  0
   -0.6038    0.4510    5.1540 H   0  0  0  0  0  0  0  0  0  0  0  0
   -1.9559   -0.6402    5.5285 H   0  0  0  0  0  0  0  0  0  0  0  0
   -0.4077   -1.2974    4.9465 H   0  0  0  0  0  0  0  0  0  0  0  0
  5  6  2  0  0  0  0
  5  7  1  0  0  0  0
  2  3  1  0  0  0  0
  2  4  1  0  0  0  0
  2  5  1  0  0  0  0
  1  2  1  0  0  0  0
 29 30  2  0  0  0  0
 29 31  1  0  0  0  0
 26 27  1  0  0  0  0
 26 28  1  0  0  0  0
 23 24  1  0  0  0  0
 23 25  1  0  0  0  0
 22 23  1  0  0  0  0
 22 26  1  0  0  0  0
 20 21  1  0  0  0  0
 20 22  2  0  0  0  0
 17 18  1  0  0  0  0
 17 19  1  0  0  0  0
 17 20  1  0  0  0  0
 14 15  1  0  0  0  0
 14 16  1  0  0  0  0
 14 17  1  0  0  0  0
 11 12  1  0  0  0  0
 11 13  1  0  0  0  0
 11 14  1  0  0  0  0
  9 10  1  0  0  0  0
  9 11  1  0  0  0  0
  9 29  1  0  0  0  0
  7  8  1  0  0  0  0
  7  9  1  0  0  0  0
 33 34  1  0  0  0  0
 33 35  1  0  0  0  0
 33 36  1  0  0  0  0
 31 32  1  0  0  0  0
 31 33  1  0  0  0  0
M  CHG  1  20   1
M  END
$$$$
default_name
  -OEChem-01062215323D

 36 35  0     1  0  0  0  0  0999 V2000
   -4.2256   -3.6731    1.8584 H   0  0  0  0  0  0  0  0  0  0  0  0
   -4.2396   -2.6781    1.4144 C   0  0  0  0  0  0  0  0  0  0  0  0
   -4.9506   -2.0521    1.9514 H   0  0  0  0  0  0  0  0  0  0  0  0
   -4.5266   -2.7521    0.3674 H   0  0  0  0  0  0  0  0  0  0  0  0
   -2.8576   -2.0761    1.5184 C   0  0  0  0  0  0  0  0  0  0  0  0
   -1.9456   -2.7051    2.0404 O   0  0  0  0  0  0  0  0  0  0  0  0
   -2.6926   -0.8481    1.0174 N   0  0  0  0  0  0  0  0  0  0  0  0
   -3.4926   -0.3971    0.5954 H   0  0  0  0  0  0  0  0  0  0  0  0
   -1.4216   -0.1071    1.0434 C   0  0  1  0  0  0  0  0  0  0  0  0
   -0.7531   -0.5446    0.3001 H   0  0  0  0  0  0  0  0  0  0  0  0
   -1.7032    1.3584    0.6560 C   0  0  0  0  0  0  0  0  0  0  0  0
   -2.4906    1.7455    1.3059 H   0  0  0  0  0  0  0  0  0  0  0  0
   -0.8019    1.9518    0.8248 H   0  0  0  0  0  0  0  0  0  0  0  0
   -2.1537    1.5295   -0.8021 C   0  0  0  0  0  0  0  0  0  0  0  0
   -1.3776    1.1600   -1.4738 H   0  0  0  0  0  0  0  0  0  0  0  0
   -3.0710    0.9629   -0.9651 H   0  0  0  0  0  0  0  0  0  0  0  0
   -2.4106    3.0132   -1.0989 C   0  0  0  0  0  0  0  0  0  0  0  0
   -3.1693    3.3814   -0.4045 H   0  0  0  0  0  0  0  0  0  0  0  0
   -1.4832    3.5665   -0.9336 H   0  0  0  0  0  0  0  0  0  0  0  0
   -2.8700    3.2231   -2.4873 N   0  3  0  0  0  0  0  0  0  0  0  0
   -2.9159    2.4090   -3.0759 H   0  0  0  0  0  0  0  0  0  0  0  0
   -3.2257    4.3770   -3.0269 C   0  0  0  0  0  0  0  0  0  0  0  0
   -3.2036    5.4930   -2.3537 N   0  0  0  0  0  0  0  0  0  0  0  0
   -2.9078    5.4732   -1.3937 H   0  0  0  0  0  0  0  0  0  0  0  0
   -3.4764    6.3602   -2.7784 H   0  0  0  0  0  0  0  0  0  0  0  0
   -3.6142    4.4326   -4.2692 N   0  0  0  0  0  0  0  0  0  0  0  0
   -3.6482    3.5979   -4.8287 H   0  0  0  0  0  0  0  0  0  0  0  0
   -3.8833    5.3100   -4.6745 H   0  0  0  0  0  0  0  0  0  0  0  0
   -0.7656   -0.2168    2.4214 C   0  0  0  0  0  0  0  0  0  0  0  0
    0.4204    0.0619    2.5509 O   0  0  0  0  0  0  0  0  0  0  0  0
   -1.5292   -0.6558    3.4269 N   0  0  0  0  0  0  0  0  0  0  0  0
   -2.5036   -0.8261    3.2389 H   0  0  0  0  0  0  0  0  0  0  0  0
   -1.0578   -0.8161    4.8035 C   0  0  0  0  0  0  0  0  0  0  0  0
   -0.7794    0.1567    5.2142 H   0  0  0  0  0  0  0  0  0  0  0  0
   -1.8404   -1.2536    5.4247 H   0  0  0  0  0  0  0  0  0  0  0  0
   -0.1783   -1.4634    4.8241 H   0  0  0  0  0  0  0  0  0  0  0  0
  5  6  2  0  0  0  0
  5  7  1  0  0  0  0
  2  3  1  0  0  0  0
  2  4  1  0  0  0  0
  2  5  1  0  0  0  0
  1  2  1  0  0  0  0
 29 30  2  0  0  0  0
 29 31  1  0  0  0  0
 26 27  1  0  0  0  0
 26 28  1  0  0  0  0
 23 24  1  0  0  0  0
 23 25  1  0  0  0  0
 22 23  1  0  0  0  0
 22 26  1  0  0  0  0
 20 21  1  0  0  0  0
 20 22  2  0  0  0  0
 17 18  1  0  0  0  0
 17 19  1  0  0  0  0
 17 20  1  0  0  0  0
 14 15  1  0  0  0  0
 14 16  1  0  0  0  0
 14 17  1  0  0  0  0
 11 12  1  0  0  0  0
 11 13  1  0  0  0  0
 11 14  1  0  0  0  0
  9 10  1  0  0  0  0
  9 11  1  0  0  0  0
  9 29  1  0  0  0  0
  7  8  1  0  0  0  0
  7  9  1  0  0  0  0
 33 34  1  0  0  0  0
 33 35  1  0  0  0  0
 33 36  1  0  0  0  0
 31 32  1  0  0  0  0
 31 33  1  0  0  0  0
M  CHG  1  20   1
M  END
$$$$
default_name
  -OEChem-01062215323D

 36 35  0     1  0  0  0  0  0999 V2000
   -4.2256   -3.6731    1.8584 H   0  0  0  0  0  0  0  0  0  0  0  0
   -4.2396   -2.6781    1.4144 C   0  0  0  0  0  0  0  0  0  0  0  0
   -4.9506   -2.0521    1.9514 H   0  0  0  0  0  0  0  0  0  0  0  0
   -4.5266   -2.7521    0.3674 H   0  0  0  0  0  0  0  0  0  0  0  0
   -2.8576   -2.0761    1.5184 C   0  0  0  0  0  0  0  0  0  0  0  0
   -1.9456   -2.7051    2.0404 O   0  0  0  0  0  0  0  0  0  0  0  0
   -2.6926   -0.8481    1.0174 N   0  0  0  0  0  0  0  0  0  0  0  0
   -3.4926   -0.3971    0.5954 H   0  0  0  0  0  0  0  0  0  0  0  0
   -1.4216   -0.1071    1.0434 C   0  0  1  0  0  0  0  0  0  0  0  0
   -0.7531   -0.5446    0.3001 H   0  0  0  0  0  0  0  0  0  0  0  0
   -1.7032    1.3584    0.6560 C   0  0  0  0  0  0  0  0  0  0  0  0
   -2.4906    1.7455    1.3059 H   0  0  0  0  0  0  0  0  0  0  0  0
   -0.8019    1.9518    0.8248 H   0  0  0  0  0  0  0  0  0  0  0  0
   -2.1537    1.5295   -0.8021 C   0  0  0  0  0  0  0  0  0  0  0  0
   -1.3776    1.1600   -1.4738 H   0  0  0  0  0  0  0  0  0  0  0  0
   -3.0710    0.9629   -0.9651 H   0  0  0  0  0  0  0  0  0  0  0  0
   -2.4106    3.0132   -1.0989 C   0  0  0  0  0  0  0  0  0  0  0  0
   -3.1693    3.3814   -0.4045 H   0  0  0  0  0  0  0  0  0  0  0  0
   -1.4832    3.5665   -0.9336 H   0  0  0  0  0  0  0  0  0  0  0  0
   -2.8700    3.2231   -2.4873 N   0  3  0  0  0  0  0  0  0  0  0  0
   -2.9159    2.4090   -3.0759 H   0  0  0  0  0  0  0  0  0  0  0  0
   -3.2257    4.3770   -3.0269 C   0  0  0  0  0  0  0  0  0  0  0  0
   -3.2036    5.4930   -2.3537 N   0  0  0  0  0  0  0  0  0  0  0  0
   -2.9078    5.4732   -1.3937 H   0  0  0  0  0  0  0  0  0  0  0  0
   -3.4764    6.3602   -2.7784 H   0  0  0  0  0  0  0  0  0  0  0  0
   -3.6142    4.4326   -4.2692 N   0  0  0  0  0  0  0  0  0  0  0  0
   -3.6482    3.5979   -4.8287 H   0  0  0  0  0  0  0  0  0  0  0  0
   -3.8833    5.3100   -4.6745 H   0  0  0  0  0  0  0  0  0  0  0  0
   -0.7656   -0.2168    2.4214 C   0  0  0  0  0  0  0  0  0  0  0  0
    0.3214    0.3130    2.6180 O   0  0  0  0  0  0  0  0  0  0  0  0
   -1.4106   -0.9318    3.3485 N   0  0  0  0  0  0  0  0  0  0  0  0
   -2.3170   -1.3012    3.1123 H   0  0  0  0  0  0  0  0  0  0  0  0
   -0.9221   -1.1331    4.7137 C   0  0  0  0  0  0  0  0  0  0  0  0
   -0.8815   -0.1751    5.2364 H   0  0  0  0  0  0  0  0  0  0  0  0
   -1.5839   -1.8077    5.2585 H   0  0  0  0  0  0  0  0  0  0  0  0
    0.0843   -1.5567    4.6917 H   0  0  0  0  0  0  0  0  0  0  0  0
  5  6  2  0  0  0  0
  5  7  1  0  0  0  0
  2  3  1  0  0  0  0
  2  4  1  0  0  0  0
  2  5  1  0  0  0  0
  1  2  1  0  0  0  0
 29 30  2  0  0  0  0
 29 31  1  0  0  0  0
 26 27  1  0  0  0  0
 26 28  1  0  0  0  0
 23 24  1  0  0  0  0
 23 25  1  0  0  0  0
 22 23  1  0  0  0  0
 22 26  1  0  0  0  0
 20 21  1  0  0  0  0
 20 22  2  0  0  0  0
 17 18  1  0  0  0  0
 17 19  1  0  0  0  0
 17 20  1  0  0  0  0
 14 15  1  0  0  0  0
 14 16  1  0  0  0  0
 14 17  1  0  0  0  0
 11 12  1  0  0  0  0
 11 13  1  0  0  0  0
 11 14  1  0  0  0  0
  9 10  1  0  0  0  0
  9 11  1  0  0  0  0
  9 29  1  0  0  0  0
  7  8  1  0  0  0  0
  7  9  1  0  0  0  0
 33 34  1  0  0  0  0
 33 35  1  0  0  0  0
 33 36  1  0  0  0  0
 31 32  1  0  0  0  0
 31 33  1  0  0  0  0
M  CHG  1  20   1
M  END
$$$$
default_name
  -OEChem-01062215323D

 36 35  0     1  0  0  0  0  0999 V2000
   -4.2256   -3.6731    1.8584 H   0  0  0  0  0  0  0  0  0  0  0  0
   -4.2396   -2.6781    1.4144 C   0  0  0  0  0  0  0  0  0  0  0  0
   -4.9506   -2.0521    1.9514 H   0  0  0  0  0  0  0  0  0  0  0  0
   -4.5266   -2.7521    0.3674 H   0  0  0  0  0  0  0  0  0  0  0  0
   -2.8576   -2.0761    1.5184 C   0  0  0  0  0  0  0  0  0  0  0  0
   -1.9456   -2.7051    2.0404 O   0  0  0  0  0  0  0  0  0  0  0  0
   -2.6926   -0.8481    1.0174 N   0  0  0  0  0  0  0  0  0  0  0  0
   -3.4926   -0.3971    0.5954 H   0  0  0  0  0  0  0  0  0  0  0  0
   -1.4216   -0.1071    1.0434 C   0  0  1  0  0  0  0  0  0  0  0  0
   -0.7531   -0.5446    0.3001 H   0  0  0  0  0  0  0  0  0  0  0  0
   -1.7032    1.3584    0.6560 C   0  0  0  0  0  0  0  0  0  0  0  0
   -2.4906    1.7455    1.3059 H   0  0  0  0  0  0  0  0  0  0  0  0
   -0.8019    1.9518    0.8248 H   0  0  0  0  0  0  0  0  0  0  0  0
   -2.1537    1.5295   -0.8021 C   0  0  0  0  0  0  0  0  0  0  0  0
   -1.3776    1.1600   -1.4738 H   0  0  0  0  0  0  0  0  0  0  0  0
   -3.0710    0.9629   -0.9651 H   0  0  0  0  0  0  0  0  0  0  0  0
   -2.4106    3.0132   -1.0989 C   0  0  0  0  0  0  0  0  0  0  0  0
   -3.1693    3.3814   -0.4045 H   0  0  0  0  0  0  0  0  0  0  0  0
   -1.4832    3.5665   -0.9336 H   0  0  0  0  0  0  0  0  0  0  0  0
   -2.8700    3.2231   -2.4873 N   0  3  0  0  0  0  0  0  0  0  0  0
   -2.9159    2.4090   -3.0759 H   0  0  0  0  0  0  0  0  0  0  0  0
   -3.2257    4.3770   -3.0269 C   0  0  0  0  0  0  0  0  0  0  0  0
   -3.2036    5.4930   -2.3537 N   0  0  0  0  0  0  0  0  0  0  0  0
   -2.9078    5.4732   -1.3937 H   0  0  0  0  0  0  0  0  0  0  0  0
   -3.4764    6.3602   -2.7784 H   0  0  0  0  0  0  0  0  0  0  0  0
   -3.6142    4.4326   -4.2692 N   0  0  0  0  0  0  0  0  0  0  0  0
   -3.6482    3.5979   -4.8287 H   0  0  0  0  0  0  0  0  0  0  0  0
   -3.8833    5.3100   -4.6745 H   0  0  0  0  0  0  0  0  0  0  0  0
   -0.7656   -0.2168    2.4214 C   0  0  0  0  0  0  0  0  0  0  0  0
    0.1661    0.5251    2.7088 O   0  0  0  0  0  0  0  0  0  0  0  0
   -1.2302   -1.1622    3.2443 N   0  0  0  0  0  0  0  0  0  0  0  0
   -2.0237   -1.7026    2.9407 H   0  0  0  0  0  0  0  0  0  0  0  0
   -0.7156   -1.3978    4.5943 C   0  0  0  0  0  0  0  0  0  0  0  0
   -0.9033   -0.5219    5.2191 H   0  0  0  0  0  0  0  0  0  0  0  0
   -1.2040   -2.2646    5.0413 H   0  0  0  0  0  0  0  0  0  0  0  0
    0.3622   -1.5709    4.5583 H   0  0  0  0  0  0  0  0  0  0  0  0
  5  6  2  0  0  0  0
  5  7  1  0  0  0  0
  2  3  1  0  0  0  0
  2  4  1  0  0  0  0
  2  5  1  0  0  0  0
  1  2  1  0  0  0  0
 29 30  2  0  0  0  0
 29 31  1  0  0  0  0
 26 27  1  0  0  0  0
 26 28  1  0  0  0  0
 23 24  1  0  0  0  0
 23 25  1  0  0  0  0
 22 23  1  0  0  0  0
 22 26  1  0  0  0  0
 20 21  1  0  0  0  0
 20 22  2  0  0  0  0
 17 18  1  0  0  0  0
 17 19  1  0  0  0  0
 17 20  1  0  0  0  0
 14 15  1  0  0  0  0
 14 16  1  0  0  0  0
 14 17  1  0  0  0  0
 11 12  1  0  0  0  0
 11 13  1  0  0  0  0
 11 14  1  0  0  0  0
  9 10  1  0  0  0  0
  9 11  1  0  0  0  0
  9 29  1  0  0  0  0
  7  8  1  0  0  0  0
  7  9  1  0  0  0  0
 33 34  1  0  0  0  0
 33 35  1  0  0  0  0
 33 36  1  0  0  0  0
 31 32  1  0  0  0  0
 31 33  1  0  0  0  0
M  CHG  1  20   1
M  END
$$$$
default_name
  -OEChem-01062215323D

 36 35  0     1  0  0  0  0  0999 V2000
   -4.2256   -3.6731    1.8584 H   0  0  0  0  0  0  0  0  0  0  0  0
   -4.2396   -2.6781    1.4144 C   0  0  0  0  0  0  0  0  0  0  0  0
   -4.9506   -2.0521    1.9514 H   0  0  0  0  0  0  0  0  0  0  0  0
   -4.5266   -2.7521    0.3674 H   0  0  0  0  0  0  0  0  0  0  0  0
   -2.8576   -2.0761    1.5184 C   0  0  0  0  0  0  0  0  0  0  0  0
   -1.9456   -2.7051    2.0404 O   0  0  0  0  0  0  0  0  0  0  0  0
   -2.6926   -0.8481    1.0174 N   0  0  0  0  0  0  0  0  0  0  0  0
   -3.4926   -0.3971    0.5954 H   0  0  0  0  0  0  0  0  0  0  0  0
   -1.4216   -0.1071    1.0434 C   0  0  1  0  0  0  0  0  0  0  0  0
   -0.7531   -0.5446    0.3001 H   0  0  0  0  0  0  0  0  0  0  0  0
   -1.7032    1.3584    0.6560 C   0  0  0  0  0  0  0  0  0  0  0  0
   -2.4906    1.7455    1.3059 H   0  0  0  0  0  0  0  0  0  0  0  0
   -0.8019    1.9518    0.8248 H   0  0  0  0  0  0  0  0  0  0  0  0
   -2.1537    1.5295   -0.8021 C   0  0  0  0  0  0  0  0  0  0  0  0
   -1.3776    1.1600   -1.4738 H   0  0  0  0  0  0  0  0  0  0  0  0
   -3.0710    0.9629   -0.9651 H   0  0  0  0  0  0  0  0  0  0  0  0
   -2.4106    3.0132   -1.0989 C   0  0  0  0  0  0  0  0  0  0  0  0
   -3.1693    3.3814   -0.4045 H   0  0  0  0  0  0  0  0  0  0  0  0
   -1.4832    3.5665   -0.9336 H   0  0  0  0  0  0  0  0  0  0  0  0
   -2.8700    3.2231   -2.4873 N   0  3  0  0  0  0  0  0  0  0  0  0
   -2.9159    2.4090   -3.0759 H   0  0  0  0  0  0  0  0  0  0  0  0
   -3.2257    4.3770   -3.0269 C   0  0  0  0  0  0  0  0  0  0  0  0
   -3.2036    5.4930   -2.3537 N   0  0  0  0  0  0  0  0  0  0  0  0
   -2.9078    5.4732   -1.3937 H   0  0  0  0  0  0  0  0  0  0  0  0
   -3.4764    6.3602   -2.7784 H   0  0  0  0  0  0  0  0  0  0  0  0
   -3.6142    4.4326   -4.2692 N   0  0  0  0  0  0  0  0  0  0  0  0
   -3.6482    3.5979   -4.8287 H   0  0  0  0  0  0  0  0  0  0  0  0
   -3.8833    5.3100   -4.6745 H   0  0  0  0  0  0  0  0  0  0  0  0
   -0.7656   -0.2168    2.4214 C   0  0  0  0  0  0  0  0  0  0  0  0
   -0.0351    0.6836    2.8172 O   0  0  0  0  0  0  0  0  0  0  0  0
   -1.0004   -1.3310    3.1215 N   0  0  0  0  0  0  0  0  0  0  0  0
   -1.6436   -2.0030    2.7359 H   0  0  0  0  0  0  0  0  0  0  0  0
   -0.4522   -1.5920    4.4535 C   0  0  0  0  0  0  0  0  0  0  0  0
   -0.8431   -0.8601    5.1636 H   0  0  0  0  0  0  0  0  0  0  0  0
   -0.7264   -2.5933    4.7878 H   0  0  0  0  0  0  0  0  0  0  0  0
    0.6363   -1.5051    4.4330 H   0  0  0  0  0  0  0  0  0  0  0  0
  5  6  2  0  0  0  0
  5  7  1  0  0  0  0
  2  3  1  0  0  0  0
  2  4  1  0  0  0  0
  2  5  1  0  0  0  0
  1  2  1  0  0  0  0
 29 30  2  0  0  0  0
 29 31  1  0  0  0  0
 26 27  1  0  0  0  0
 26 28  1  0  0  0  0
 23 24  1  0  0  0  0
 23 25  1  0  0  0  0
 22 23  1  0  0  0  0
 22 26  1  0  0  0  0
 20 21  1  0  0  0  0
 20 22  2  0  0  0  0
 17 18  1  0  0  0  0
 17 19  1  0  0  0  0
 17 20  1  0  0  0  0
 14 15  1  0  0  0  0
 14 16  1  0  0  0  0
 14 17  1  0  0  0  0
 11 12  1  0  0  0  0
 11 13  1  0  0  0  0
 11 14  1  0  0  0  0
  9 10  1  0  0  0  0
  9 11  1  0  0  0  0
  9 29  1  0  0  0  0
  7  8  1  0  0  0  0
  7  9  1  0  0  0  0
 33 34  1  0  0  0  0
 33 35  1  0  0  0  0
 33 36  1  0  0  0  0
 31 32  1  0  0  0  0
 31 33  1  0  0  0  0
M  CHG  1  20   1
M  END
$$$$
default_name
  -OEChem-01062215323D

 36 35  0     1  0  0  0  0  0999 V2000
   -4.2256   -3.6731    1.8584 H   0  0  0  0  0  0  0  0  0  0  0  0
   -4.2396   -2.6781    1.4144 C   0  0  0  0  0  0  0  0  0  0  0  0
   -4.9506   -2.0521    1.9514 H   0  0  0  0  0  0  0  0  0  0  0  0
   -4.5266   -2.7521    0.3674 H   0  0  0  0  0  0  0  0  0  0  0  0
   -2.8576   -2.0761    1.5184 C   0  0  0  0  0  0  0  0  0  0  0  0
   -1.9456   -2.7051    2.0404 O   0  0  0  0  0  0  0  0  0  0  0  0
   -2.6926   -0.8481    1.0174 N   0  0  0  0  0  0  0  0  0  0  0  0
   -3.4926   -0.3971    0.5954 H   0  0  0  0  0  0  0  0  0  0  0  0
   -1.4216   -0.1071    1.0434 C   0  0  1  0  0  0  0  0  0  0  0  0
   -0.7531   -0.5446    0.3001 H   0  0  0  0  0  0  0  0  0  0  0  0
   -1.7032    1.3584    0.6560 C   0  0  0  0  0  0  0  0  0  0  0  0
   -2.4906    1.7455    1.3059 H   0  0  0  0  0  0  0  0  0  0  0  0
   -0.8019    1.9518    0.8248 H   0  0  0  0  0  0  0  0  0  0  0  0
   -2.1537    1.5295   -0.8021 C   0  0  0  0  0  0  0  0  0  0  0  0
   -1.3776    1.1600   -1.4738 H   0  0  0  0  0  0  0  0  0  0  0  0
   -3.0710    0.9629   -0.9651 H   0  0  0  0  0  0  0  0  0  0  0  0
   -2.4106    3.0132   -1.0989 C   0  0  0  0  0  0  0  0  0  0  0  0
   -3.1693    3.3814   -0.4045 H   0  0  0  0  0  0  0  0  0  0  0  0
   -1.4832    3.5665   -0.9336 H   0  0  0  0  0  0  0  0  0  0  0  0
   -2.8700    3.2231   -2.4873 N   0  3  0  0  0  0  0  0  0  0  0  0
   -2.9159    2.4090   -3.0759 H   0  0  0  0  0  0  0  0  0  0  0  0
   -3.2257    4.3770   -3.0269 C   0  0  0  0  0  0  0  0  0  0  0  0
   -3.2036    5.4930   -2.3537 N   0  0  0  0  0  0  0  0  0  0  0  0
   -2.9078    5.4732   -1.3937 H   0  0  0  0  0  0  0  0  0  0  0  0
   -3.4764    6.3602   -2.7784 H   0  0  0  0  0  0  0  0  0  0  0  0
   -3.6142    4.4326   -4.2692 N   0  0  0  0  0  0  0  0  0  0  0  0
   -3.6482    3.5979   -4.8287 H   0  0  0  0  0  0  0  0  0  0  0  0
   -3.8833    5.3100   -4.6745 H   0  0  0  0  0  0  0  0  0  0  0  0
   -0.7656   -0.2168    2.4214 C   0  0  0  0  0  0  0  0  0  0  0  0
   -0.2683    0.7778    2.9357 O   0  0  0  0  0  0  0  0  0  0  0  0
   -0.7368   -1.4269    2.9884 N   0  0  0  0  0  0  0  0  0  0  0  0
   -1.2027   -2.1817    2.5118 H   0  0  0  0  0  0  0  0  0  0  0  0
   -0.1499   -1.7025    4.3008 C   0  0  0  0  0  0  0  0  0  0  0  0
   -0.7051   -1.1665    5.0735 H   0  0  0  0  0  0  0  0  0  0  0  0
   -0.1838   -2.7714    4.5154 H   0  0  0  0  0  0  0  0  0  0  0  0
    0.8881   -1.3637    4.3244 H   0  0  0  0  0  0  0  0  0  0  0  0
  5  6  2  0  0  0  0
  5  7  1  0  0  0  0
  2  3  1  0  0  0  0
  2  4  1  0  0  0  0
  2  5  1  0  0  0  0
  1  2  1  0  0  0  0
 29 30  2  0  0  0  0
 29 31  1  0  0  0  0
 26 27  1  0  0  0  0
 26 28  1  0  0  0  0
 23 24  1  0  0  0  0
 23 25  1  0  0  0  0
 22 23  1  0  0  0  0
 22 26  1  0  0  0  0
 20 21  1  0  0  0  0
 20 22  2  0  0  0  0
 17 18  1  0  0  0  0
 17 19  1  0  0  0  0
 17 20  1  0  0  0  0
 14 15  1  0  0  0  0
 14 16  1  0  0  0  0
 14 17  1  0  0  0  0
 11 12  1  0  0  0  0
 11 13  1  0  0  0  0
 11 14  1  0  0  0  0
  9 10  1  0  0  0  0
  9 11  1  0  0  0  0
  9 29  1  0  0  0  0
  7  8  1  0  0  0  0
  7  9  1  0  0  0  0
 33 34  1  0  0  0  0
 33 35  1  0  0  0  0
 33 36  1  0  0  0  0
 31 32  1  0  0  0  0
 31 33  1  0  0  0  0
M  CHG  1  20   1
M  END
$$$$
default_name
  -OEChem-01062215323D

 36 35  0     1  0  0  0  0  0999 V2000
   -4.2256   -3.6731    1.8584 H   0  0  0  0  0  0  0  0  0  0  0  0
   -4.2396   -2.6781    1.4144 C   0  0  0  0  0  0  0  0  0  0  0  0
   -4.9506   -2.0521    1.9514 H   0  0  0  0  0  0  0  0  0  0  0  0
   -4.5266   -2.7521    0.3674 H   0  0  0  0  0  0  0  0  0  0  0  0
   -2.8576   -2.0761    1.5184 C   0  0  0  0  0  0  0  0  0  0  0  0
   -1.9456   -2.7051    2.0404 O   0  0  0  0  0  0  0  0  0  0  0  0
   -2.6926   -0.8481    1.0174 N   0  0  0  0  0  0  0  0  0  0  0  0
   -3.4926   -0.3971    0.5954 H   0  0  0  0  0  0  0  0  0  0  0  0
   -1.4216   -0.1071    1.0434 C   0  0  1  0  0  0  0  0  0  0  0  0
   -0.7531   -0.5446    0.3001 H   0  0  0  0  0  0  0  0  0  0  0  0
   -1.7032    1.3584    0.6560 C   0  0  0  0  0  0  0  0  0  0  0  0
   -2.4906    1.7455    1.3059 H   0  0  0  0  0  0  0  0  0  0  0  0
   -0.8019    1.9518    0.8248 H   0  0  0  0  0  0  0  0  0  0  0  0
   -2.1537    1.5295   -0.8021 C   0  0  0  0  0  0  0  0  0  0  0  0
   -1.3776    1.1600   -1.4738 H   0  0  0  0  0  0  0  0  0  0  0  0
   -3.0710    0.9629   -0.9651 H   0  0  0  0  0  0  0  0  0  0  0  0
   -2.4106    3.0132   -1.0989 C   0  0  0  0  0  0  0  0  0  0  0  0
   -3.1693    3.3814   -0.4045 H   0  0  0  0  0  0  0  0  0  0  0  0
   -1.4832    3.5665   -0.9336 H   0  0  0  0  0  0  0  0  0  0  0  0
   -2.8700    3.2231   -2.4873 N   0  3  0  0  0  0  0  0  0  0  0  0
   -2.9159    2.4090   -3.0759 H   0  0  0  0  0  0  0  0  0  0  0  0
   -3.2257    4.3770   -3.0269 C   0  0  0  0  0  0  0  0  0  0  0  0
   -3.2036    5.4930   -2.3537 N   0  0  0  0  0  0  0  0  0  0  0  0
   -2.9078    5.4732   -1.3937 H   0  0  0  0  0  0  0  0  0  0  0  0
   -3.4764    6.3602   -2.7784 H   0  0  0  0  0  0  0  0  0  0  0  0
   -3.6142    4.4326   -4.2692 N   0  0  0  0  0  0  0  0  0  0  0  0
   -3.6482    3.5979   -4.8287 H   0  0  0  0  0  0  0  0  0  0  0  0
   -3.8833    5.3100   -4.6745 H   0  0  0  0  0  0  0  0  0  0  0  0
   -0.7656   -0.2168    2.4214 C   0  0  0  0  0  0  0  0  0  0  0  0
   -0.5178    0.8013    3.0563 O   0  0  0  0  0  0  0  0  0  0  0  0
   -0.4573   -1.4434    2.8540 N   0  0  0  0  0  0  0  0  0  0  0  0
   -0.7309   -2.2267    2.2837 H   0  0  0  0  0  0  0  0  0  0  0  0
    0.1707   -1.7219    4.1467 C   0  0  0  0  0  0  0  0  0  0  0  0
   -0.4987   -1.4203    4.9551 H   0  0  0  0  0  0  0  0  0  0  0  0
    0.3869   -2.7867    4.2425 H   0  0  0  0  0  0  0  0  0  0  0  0
    1.1004   -1.1564    4.2399 H   0  0  0  0  0  0  0  0  0  0  0  0
  5  6  2  0  0  0  0
  5  7  1  0  0  0  0
  2  3  1  0  0  0  0
  2  4  1  0  0  0  0
  2  5  1  0  0  0  0
  1  2  1  0  0  0  0
 29 30  2  0  0  0  0
 29 31  1  0  0  0  0
 26 27  1  0  0  0  0
 26 28  1  0  0  0  0
 23 24  1  0  0  0  0
 23 25  1  0  0  0  0
 22 23  1  0  0  0  0
 22 26  1  0  0  0  0
 20 21  1  0  0  0  0
 20 22  2  0  0  0  0
 17 18  1  0  0  0  0
 17 19  1  0  0  0  0
 17 20  1  0  0  0  0
 14 15  1  0  0  0  0
 14 16  1  0  0  0  0
 14 17  1  0  0  0  0
 11 12  1  0  0  0  0
 11 13  1  0  0  0  0
 11 14  1  0  0  0  0
  9 10  1  0  0  0  0
  9 11  1  0  0  0  0
  9 29  1  0  0  0  0
  7  8  1  0  0  0  0
  7  9  1  0  0  0  0
 33 34  1  0  0  0  0
 33 35  1  0  0  0  0
 33 36  1  0  0  0  0
 31 32  1  0  0  0  0
 31 33  1  0  0  0  0
M  CHG  1  20   1
M  END
$$$$
default_name
  -OEChem-01062215323D

 36 35  0     1  0  0  0  0  0999 V2000
   -4.2256   -3.6731    1.8584 H   0  0  0  0  0  0  0  0  0  0  0  0
   -4.2396   -2.6781    1.4144 C   0  0  0  0  0  0  0  0  0  0  0  0
   -4.9506   -2.0521    1.9514 H   0  0  0  0  0  0  0  0  0  0  0  0
   -4.5266   -2.7521    0.3674 H   0  0  0  0  0  0  0  0  0  0  0  0
   -2.8576   -2.0761    1.5184 C   0  0  0  0  0  0  0  0  0  0  0  0
   -1.9456   -2.7051    2.0404 O   0  0  0  0  0  0  0  0  0  0  0  0
   -2.6926   -0.8481    1.0174 N   0  0  0  0  0  0  0  0  0  0  0  0
   -3.4926   -0.3971    0.5954 H   0  0  0  0  0  0  0  0  0  0  0  0
   -1.4216   -0.1071    1.0434 C   0  0  1  0  0  0  0  0  0  0  0  0
   -0.7531   -0.5446    0.3001 H   0  0  0  0  0  0  0  0  0  0  0  0
   -1.7032    1.3584    0.6560 C   0  0  0  0  0  0  0  0  0  0  0  0
   -2.4906    1.7455    1.3059 H   0  0  0  0  0  0  0  0  0  0  0  0
   -0.8019    1.9518    0.8248 H   0  0  0  0  0  0  0  0  0  0  0  0
   -2.1537    1.5295   -0.8021 C   0  0  0  0  0  0  0  0  0  0  0  0
   -1.3776    1.1600   -1.4738 H   0  0  0  0  0  0  0  0  0  0  0  0
   -3.0710    0.9629   -0.9651 H   0  0  0  0  0  0  0  0  0  0  0  0
   -2.4106    3.0132   -1.0989 C   0  0  0  0  0  0  0  0  0  0  0  0
   -3.1693    3.3814   -0.4045 H   0  0  0  0  0  0  0  0  0  0  0  0
   -1.4832    3.5665   -0.9336 H   0  0  0  0  0  0  0  0  0  0  0  0
   -2.8700    3.2231   -2.4873 N   0  3  0  0  0  0  0  0  0  0  0  0
   -2.9159    2.4090   -3.0759 H   0  0  0  0  0  0  0  0  0  0  0  0
   -3.2257    4.3770   -3.0269 C   0  0  0  0  0  0  0  0  0  0  0  0
   -3.2036    5.4930   -2.3537 N   0  0  0  0  0  0  0  0  0  0  0  0
   -2.9078    5.4732   -1.3937 H   0  0  0  0  0  0  0  0  0  0  0  0
   -3.4764    6.3602   -2.7784 H   0  0  0  0  0  0  0  0  0  0  0  0
   -3.6142    4.4326   -4.2692 N   0  0  0  0  0  0  0  0  0  0  0  0
   -3.6482    3.5979   -4.8287 H   0  0  0  0  0  0  0  0  0  0  0  0
   -3.8833    5.3100   -4.6745 H   0  0  0  0  0  0  0  0  0  0  0  0
   -0.7656   -0.2168    2.4214 C   0  0  0  0  0  0  0  0  0  0  0  0
   -0.7665    0.7525    3.1708 O   0  0  0  0  0  0  0  0  0  0  0  0
   -0.1810   -1.3792    2.7276 N   0  0  0  0  0  0  0  0  0  0  0  0
   -0.2605   -2.1350    2.0671 H   0  0  0  0  0  0  0  0  0  0  0  0
    0.4878   -1.6488    4.0015 C   0  0  0  0  0  0  0  0  0  0  0  0
   -0.2380   -1.6043    4.8164 H   0  0  0  0  0  0  0  0  0  0  0  0
    0.9467   -2.6382    3.9879 H   0  0  0  0  0  0  0  0  0  0  0  0
    1.2587   -0.8973    4.1852 H   0  0  0  0  0  0  0  0  0  0  0  0
  5  6  2  0  0  0  0
  5  7  1  0  0  0  0
  2  3  1  0  0  0  0
  2  4  1  0  0  0  0
  2  5  1  0  0  0  0
  1  2  1  0  0  0  0
 29 30  2  0  0  0  0
 29 31  1  0  0  0  0
 26 27  1  0  0  0  0
 26 28  1  0  0  0  0
 23 24  1  0  0  0  0
 23 25  1  0  0  0  0
 22 23  1  0  0  0  0
 22 26  1  0  0  0  0
 20 21  1  0  0  0  0
 20 22  2  0  0  0  0
 17 18  1  0  0  0  0
 17 19  1  0  0  0  0
 17 20  1  0  0  0  0
 14 15  1  0  0  0  0
 14 16  1  0  0  0  0
 14 17  1  0  0  0  0
 11 12  1  0  0  0  0
 11 13  1  0  0  0  0
 11 14  1  0  0  0  0
  9 10  1  0  0  0  0
  9 11  1  0  0  0  0
  9 29  1  0  0  0  0
  7  8  1  0  0  0  0
  7  9  1  0  0  0  0
 33 34  1  0  0  0  0
 33 35  1  0  0  0  0
 33 36  1  0  0  0  0
 31 32  1  0  0  0  0
 31 33  1  0  0  0  0
M  CHG  1  20   1
M  END
$$$$
default_name
  -OEChem-01062215323D

 36 35  0     1  0  0  0  0  0999 V2000
   -4.2256   -3.6731    1.8584 H   0  0  0  0  0  0  0  0  0  0  0  0
   -4.2396   -2.6781    1.4144 C   0  0  0  0  0  0  0  0  0  0  0  0
   -4.9506   -2.0521    1.9514 H   0  0  0  0  0  0  0  0  0  0  0  0
   -4.5266   -2.7521    0.3674 H   0  0  0  0  0  0  0  0  0  0  0  0
   -2.8576   -2.0761    1.5184 C   0  0  0  0  0  0  0  0  0  0  0  0
   -1.9456   -2.7051    2.0404 O   0  0  0  0  0  0  0  0  0  0  0  0
   -2.6926   -0.8481    1.0174 N   0  0  0  0  0  0  0  0  0  0  0  0
   -3.4926   -0.3971    0.5954 H   0  0  0  0  0  0  0  0  0  0  0  0
   -1.4216   -0.1071    1.0434 C   0  0  1  0  0  0  0  0  0  0  0  0
   -0.7531   -0.5446    0.3001 H   0  0  0  0  0  0  0  0  0  0  0  0
   -1.7032    1.3584    0.6560 C   0  0  0  0  0  0  0  0  0  0  0  0
   -2.4906    1.7455    1.3059 H   0  0  0  0  0  0  0  0  0  0  0  0
   -0.8019    1.9518    0.8248 H   0  0  0  0  0  0  0  0  0  0  0  0
   -2.1537    1.5295   -0.8021 C   0  0  0  0  0  0  0  0  0  0  0  0
   -1.3776    1.1600   -1.4738 H   0  0  0  0  0  0  0  0  0  0  0  0
   -3.0710    0.9629   -0.9651 H   0  0  0  0  0  0  0  0  0  0  0  0
   -2.4106    3.0132   -1.0989 C   0  0  0  0  0  0  0  0  0  0  0  0
   -3.1693    3.3814   -0.4045 H   0  0  0  0  0  0  0  0  0  0  0  0
   -1.4832    3.5665   -0.9336 H   0  0  0  0  0  0  0  0  0  0  0  0
   -2.8700    3.2231   -2.4873 N   0  3  0  0  0  0  0  0  0  0  0  0
   -2.9159    2.4090   -3.0759 H   0  0  0  0  0  0  0  0  0  0  0  0
   -3.2257    4.3770   -3.0269 C   0  0  0  0  0  0  0  0  0  0  0  0
   -3.2036    5.4930   -2.3537 N   0  0  0  0  0  0  0  0  0  0  0  0
   -2.9078    5.4732   -1.3937 H   0  0  0  0  0  0  0  0  0  0  0  0
   -3.4764    6.3602   -2.7784 H   0  0  0  0  0  0  0  0  0  0  0  0
   -3.6142    4.4326   -4.2692 N   0  0  0  0  0  0  0  0  0  0  0  0
   -3.6482    3.5979   -4.8287 H   0  0  0  0  0  0  0  0  0  0  0  0
   -3.8833    5.3100   -4.6745 H   0  0  0  0  0  0  0  0  0  0  0  0
   -0.7656   -0.2168    2.4214 C   0  0  0  0  0  0  0  0  0  0  0  0
   -0.9975    0.6346    3.2714 O   0  0  0  0  0  0  0  0  0  0  0  0
    0.0733   -1.2387    2.6178 N   0  0  0  0  0  0  0  0  0  0  0  0
    0.1765   -1.9126    1.8768 H   0  0  0  0  0  0  0  0  0  0  0  0
    0.7797   -1.4882    3.8754 C   0  0  0  0  0  0  0  0  0  0  0  0
    0.0593   -1.7058    4.6668 H   0  0  0  0  0  0  0  0  0  0  0  0
    1.4576   -2.3360    3.7687 H   0  0  0  0  0  0  0  0  0  0  0  0
    1.3522   -0.6040    4.1640 H   0  0  0  0  0  0  0  0  0  0  0  0
  5  6  2  0  0  0  0
  5  7  1  0  0  0  0
  2  3  1  0  0  0  0
  2  4  1  0  0  0  0
  2  5  1  0  0  0  0
  1  2  1  0  0  0  0
 29 30  2  0  0  0  0
 29 31  1  0  0  0  0
 26 27  1  0  0  0  0
 26 28  1  0  0  0  0
 23 24  1  0  0  0  0
 23 25  1  0  0  0  0
 22 23  1  0  0  0  0
 22 26  1  0  0  0  0
 20 21  1  0  0  0  0
 20 22  2  0  0  0  0
 17 18  1  0  0  0  0
 17 19  1  0  0  0  0
 17 20  1  0  0  0  0
 14 15  1  0  0  0  0
 14 16  1  0  0  0  0
 14 17  1  0  0  0  0
 11 12  1  0  0  0  0
 11 13  1  0  0  0  0
 11 14  1  0  0  0  0
  9 10  1  0  0  0  0
  9 11  1  0  0  0  0
  9 29  1  0  0  0  0
  7  8  1  0  0  0  0
  7  9  1  0  0  0  0
 33 34  1  0  0  0  0
 33 35  1  0  0  0  0
 33 36  1  0  0  0  0
 31 32  1  0  0  0  0
 31 33  1  0  0  0  0
M  CHG  1  20   1
M  END
$$$$
default_name
  -OEChem-01062215323D

 36 35  0     1  0  0  0  0  0999 V2000
   -4.2256   -3.6731    1.8584 H   0  0  0  0  0  0  0  0  0  0  0  0
   -4.2396   -2.6781    1.4144 C   0  0  0  0  0  0  0  0  0  0  0  0
   -4.9506   -2.0521    1.9514 H   0  0  0  0  0  0  0  0  0  0  0  0
   -4.5266   -2.7521    0.3674 H   0  0  0  0  0  0  0  0  0  0  0  0
   -2.8576   -2.0761    1.5184 C   0  0  0  0  0  0  0  0  0  0  0  0
   -1.9456   -2.7051    2.0404 O   0  0  0  0  0  0  0  0  0  0  0  0
   -2.6926   -0.8481    1.0174 N   0  0  0  0  0  0  0  0  0  0  0  0
   -3.4926   -0.3971    0.5954 H   0  0  0  0  0  0  0  0  0  0  0  0
   -1.4216   -0.1071    1.0434 C   0  0  1  0  0  0  0  0  0  0  0  0
   -0.7531   -0.5446    0.3001 H   0  0  0  0  0  0  0  0  0  0  0  0
   -1.7032    1.3584    0.6560 C   0  0  0  0  0  0  0  0  0  0  0  0
   -2.4906    1.7455    1.3059 H   0  0  0  0  0  0  0  0  0  0  0  0
   -0.8019    1.9518    0.8248 H   0  0  0  0  0  0  0  0  0  0  0  0
   -2.1537    1.5295   -0.8021 C   0  0  0  0  0  0  0  0  0  0  0  0
   -1.3776    1.1600   -1.4738 H   0  0  0  0  0  0  0  0  0  0  0  0
   -3.0710    0.9629   -0.9651 H   0  0  0  0  0  0  0  0  0  0  0  0
   -2.4106    3.0132   -1.0989 C   0  0  0  0  0  0  0  0  0  0  0  0
   -3.1693    3.3814   -0.4045 H   0  0  0  0  0  0  0  0  0  0  0  0
   -1.4832    3.5665   -0.9336 H   0  0  0  0  0  0  0  0  0  0  0  0
   -2.8700    3.2231   -2.4873 N   0  3  0  0  0  0  0  0  0  0  0  0
   -2.9159    2.4090   -3.0759 H   0  0  0  0  0  0  0  0  0  0  0  0
   -3.2257    4.3770   -3.0269 C   0  0  0  0  0  0  0  0  0  0  0  0
   -3.2036    5.4930   -2.3537 N   0  0  0  0  0  0  0  0  0  0  0  0
   -2.9078    5.4732   -1.3937 H   0  0  0  0  0  0  0  0  0  0  0  0
   -3.4764    6.3602   -2.7784 H   0  0  0  0  0  0  0  0  0  0  0  0
   -3.6142    4.4326   -4.2692 N   0  0  0  0  0  0  0  0  0  0  0  0
   -3.6482    3.5979   -4.8287 H   0  0  0  0  0  0  0  0  0  0  0  0
   -3.8833    5.3100   -4.6745 H   0  0  0  0  0  0  0  0  0  0  0  0
   -0.7656   -0.2168    2.4214 C   0  0  0  0  0  0  0  0  0  0  0  0
   -1.1950    0.4558    3.3512 O   0  0  0  0  0  0  0  0  0  0  0  0
    0.2882   -1.0316    2.5320 N   0  0  0  0  0  0  0  0  0  0  0  0
    0.5503   -1.5749    1.7257 H   0  0  0  0  0  0  0  0  0  0  0  0
    1.0266   -1.2510    3.7767 C   0  0  0  0  0  0  0  0  0  0  0  0
    0.3729   -1.7179    4.5166 H   0  0  0  0  0  0  0  0  0  0  0  0
    1.8847   -1.9007    3.6001 H   0  0  0  0  0  0  0  0  0  0  0  0
    1.3746   -0.2966    4.1778 H   0  0  0  0  0  0  0  0  0  0  0  0
  5  6  2  0  0  0  0
  5  7  1  0  0  0  0
  2  3  1  0  0  0  0
  2  4  1  0  0  0  0
  2  5  1  0  0  0  0
  1  2  1  0  0  0  0
 29 30  2  0  0  0  0
 29 31  1  0  0  0  0
 26 27  1  0  0  0  0
 26 28  1  0  0  0  0
 23 24  1  0  0  0  0
 23 25  1  0  0  0  0
 22 23  1  0  0  0  0
 22 26  1  0  0  0  0
 20 21  1  0  0  0  0
 20 22  2  0  0  0  0
 17 18  1  0  0  0  0
 17 19  1  0  0  0  0
 17 20  1  0  0  0  0
 14 15  1  0  0  0  0
 14 16  1  0  0  0  0
 14 17  1  0  0  0  0
 11 12  1  0  0  0  0
 11 13  1  0  0  0  0
 11 14  1  0  0  0  0
  9 10  1  0  0  0  0
  9 11  1  0  0  0  0
  9 29  1  0  0  0  0
  7  8  1  0  0  0  0
  7  9  1  0  0  0  0
 33 34  1  0  0  0  0
 33 35  1  0  0  0  0
 33 36  1  0  0  0  0
 31 32  1  0  0  0  0
 31 33  1  0  0  0  0
M  CHG  1  20   1
M  END
$$$$
default_name
  -OEChem-01062215323D

 36 35  0     1  0  0  0  0  0999 V2000
   -4.2256   -3.6731    1.8584 H   0  0  0  0  0  0  0  0  0  0  0  0
   -4.2396   -2.6781    1.4144 C   0  0  0  0  0  0  0  0  0  0  0  0
   -4.9506   -2.0521    1.9514 H   0  0  0  0  0  0  0  0  0  0  0  0
   -4.5266   -2.7521    0.3674 H   0  0  0  0  0  0  0  0  0  0  0  0
   -2.8576   -2.0761    1.5184 C   0  0  0  0  0  0  0  0  0  0  0  0
   -1.9456   -2.7051    2.0404 O   0  0  0  0  0  0  0  0  0  0  0  0
   -2.6926   -0.8481    1.0174 N   0  0  0  0  0  0  0  0  0  0  0  0
   -3.4926   -0.3971    0.5954 H   0  0  0  0  0  0  0  0  0  0  0  0
   -1.4216   -0.1071    1.0434 C   0  0  1  0  0  0  0  0  0  0  0  0
   -0.7531   -0.5446    0.3001 H   0  0  0  0  0  0  0  0  0  0  0  0
   -1.7032    1.3584    0.6560 C   0  0  0  0  0  0  0  0  0  0  0  0
   -2.4906    1.7455    1.3059 H   0  0  0  0  0  0  0  0  0  0  0  0
   -0.8019    1.9518    0.8248 H   0  0  0  0  0  0  0  0  0  0  0  0
   -2.1537    1.5295   -0.8021 C   0  0  0  0  0  0  0  0  0  0  0  0
   -1.3776    1.1600   -1.4738 H   0  0  0  0  0  0  0  0  0  0  0  0
   -3.0710    0.9629   -0.9651 H   0  0  0  0  0  0  0  0  0  0  0  0
   -2.4106    3.0132   -1.0989 C   0  0  0  0  0  0  0  0  0  0  0  0
   -3.1693    3.3814   -0.4045 H   0  0  0  0  0  0  0  0  0  0  0  0
   -1.4832    3.5665   -0.9336 H   0  0  0  0  0  0  0  0  0  0  0  0
   -2.8700    3.2231   -2.4873 N   0  3  0  0  0  0  0  0  0  0  0  0
   -2.9159    2.4090   -3.0759 H   0  0  0  0  0  0  0  0  0  0  0  0
   -3.2257    4.3770   -3.0269 C   0  0  0  0  0  0  0  0  0  0  0  0
   -3.2036    5.4930   -2.3537 N   0  0  0  0  0  0  0  0  0  0  0  0
   -2.9078    5.4732   -1.3937 H   0  0  0  0  0  0  0  0  0  0  0  0
   -3.4764    6.3602   -2.7784 H   0  0  0  0  0  0  0  0  0  0  0  0
   -3.6142    4.4326   -4.2692 N   0  0  0  0  0  0  0  0  0  0  0  0
   -3.6482    3.5979   -4.8287 H   0  0  0  0  0  0  0  0  0  0  0  0
   -3.8833    5.3100   -4.6745 H   0  0  0  0  0  0  0  0  0  0  0  0
   -0.7656   -0.2168    2.4214 C   0  0  0  0  0  0  0  0  0  0  0  0
   -1.3455    0.2282    3.4047 O   0  0  0  0  0  0  0  0  0  0  0  0
    0.4490   -0.7720    2.4761 N   0  0  0  0  0  0  0  0  0  0  0  0
    0.8354   -1.1448    1.6242 H   0  0  0  0  0  0  0  0  0  0  0  0
    1.2116   -0.9534    3.7124 C   0  0  0  0  0  0  0  0  0  0  0  0
    0.6814   -1.6399    4.3759 H   0  0  0  0  0  0  0  0  0  0  0  0
    2.1990   -1.3620    3.4934 H   0  0  0  0  0  0  0  0  0  0  0  0
    1.3243    0.0040    4.2257 H   0  0  0  0  0  0  0  0  0  0  0  0
  5  6  2  0  0  0  0
  5  7  1  0  0  0  0
  2  3  1  0  0  0  0
  2  4  1  0  0  0  0
  2  5  1  0  0  0  0
  1  2  1  0  0  0  0
 29 30  2  0  0  0  0
 29 31  1  0  0  0  0
 26 27  1  0  0  0  0
 26 28  1  0  0  0  0
 23 24  1  0  0  0  0
 23 25  1  0  0  0  0
 22 23  1  0  0  0  0
 22 26  1  0  0  0  0
 20 21  1  0  0  0  0
 20 22  2  0  0  0  0
 17 18  1  0  0  0  0
 17 19  1  0  0  0  0
 17 20  1  0  0  0  0
 14 15  1  0  0  0  0
 14 16  1  0  0  0  0
 14 17  1  0  0  0  0
 11 12  1  0  0  0  0
 11 13  1  0  0  0  0
 11 14  1  0  0  0  0
  9 10  1  0  0  0  0
  9 11  1  0  0  0  0
  9 29  1  0  0  0  0
  7  8  1  0  0  0  0
  7  9  1  0  0  0  0
 33 34  1  0  0  0  0
 33 35  1  0  0  0  0
 33 36  1  0  0  0  0
 31 32  1  0  0  0  0
 31 33  1  0  0  0  0
M  CHG  1  20   1
M  END
$$$$
default_name
  -OEChem-01062215323D

 36 35  0     1  0  0  0  0  0999 V2000
   -4.2256   -3.6731    1.8584 H   0  0  0  0  0  0  0  0  0  0  0  0
   -4.2396   -2.6781    1.4144 C   0  0  0  0  0  0  0  0  0  0  0  0
   -4.9506   -2.0521    1.9514 H   0  0  0  0  0  0  0  0  0  0  0  0
   -4.5266   -2.7521    0.3674 H   0  0  0  0  0  0  0  0  0  0  0  0
   -2.8576   -2.0761    1.5184 C   0  0  0  0  0  0  0  0  0  0  0  0
   -1.9456   -2.7051    2.0404 O   0  0  0  0  0  0  0  0  0  0  0  0
   -2.6926   -0.8481    1.0174 N   0  0  0  0  0  0  0  0  0  0  0  0
   -3.4926   -0.3971    0.5954 H   0  0  0  0  0  0  0  0  0  0  0  0
   -1.4216   -0.1071    1.0434 C   0  0  1  0  0  0  0  0  0  0  0  0
   -0.7531   -0.5446    0.3001 H   0  0  0  0  0  0  0  0  0  0  0  0
   -1.7032    1.3584    0.6560 C   0  0  0  0  0  0  0  0  0  0  0  0
   -2.4906    1.7455    1.3059 H   0  0  0  0  0  0  0  0  0  0  0  0
   -0.8019    1.9518    0.8248 H   0  0  0  0  0  0  0  0  0  0  0  0
   -2.1537    1.5295   -0.8021 C   0  0  0  0  0  0  0  0  0  0  0  0
   -1.3776    1.1600   -1.4738 H   0  0  0  0  0  0  0  0  0  0  0  0
   -3.0710    0.9629   -0.9651 H   0  0  0  0  0  0  0  0  0  0  0  0
   -2.4106    3.0132   -1.0989 C   0  0  0  0  0  0  0  0  0  0  0  0
   -3.1693    3.3814   -0.4045 H   0  0  0  0  0  0  0  0  0  0  0  0
   -1.4832    3.5665   -0.9336 H   0  0  0  0  0  0  0  0  0  0  0  0
   -2.8700    3.2231   -2.4873 N   0  3  0  0  0  0  0  0  0  0  0  0
   -2.9159    2.4090   -3.0759 H   0  0  0  0  0  0  0  0  0  0  0  0
   -3.2257    4.3770   -3.0269 C   0  0  0  0  0  0  0  0  0  0  0  0
   -3.2036    5.4930   -2.3537 N   0  0  0  0  0  0  0  0  0  0  0  0
   -2.9078    5.4732   -1.3937 H   0  0  0  0  0  0  0  0  0  0  0  0
   -3.4764    6.3602   -2.7784 H   0  0  0  0  0  0  0  0  0  0  0  0
   -3.6142    4.4326   -4.2692 N   0  0  0  0  0  0  0  0  0  0  0  0
   -3.6482    3.5979   -4.8287 H   0  0  0  0  0  0  0  0  0  0  0  0
   -3.8833    5.3100   -4.6745 H   0  0  0  0  0  0  0  0  0  0  0  0
   -0.7656   -0.2168    2.4214 C   0  0  0  0  0  0  0  0  0  0  0  0
   -1.4389   -0.0327    3.4284 O   0  0  0  0  0  0  0  0  0  0  0  0
    0.5450   -0.4775    2.4538 N   0  0  0  0  0  0  0  0  0  0  0  0
    1.0125   -0.6516    1.5792 H   0  0  0  0  0  0  0  0  0  0  0  0
    1.3221   -0.6157    3.6866 C   0  0  0  0  0  0  0  0  0  0  0  0
    0.9638   -1.4770    4.2544 H   0  0  0  0  0  0  0  0  0  0  0  0
    2.3789   -0.7565    3.4559 H   0  0  0  0  0  0  0  0  0  0  0  0
    1.2047    0.2774    4.3043 H   0  0  0  0  0  0  0  0  0  0  0  0
  5  6  2  0  0  0  0
  5  7  1  0  0  0  0
  2  3  1  0  0  0  0
  2  4  1  0  0  0  0
  2  5  1  0  0  0  0
  1  2  1  0  0  0  0
 29 30  2  0  0  0  0
 29 31  1  0  0  0  0
 26 27  1  0  0  0  0
 26 28  1  0  0  0  0
 23 24  1  0  0  0  0
 23 25  1  0  0  0  0
 22 23  1  0  0  0  0
 22 26  1  0  0  0  0
 20 21  1  0  0  0  0
 20 22  2  0  0  0  0
 17 18  1  0  0  0  0
 17 19  1  0  0  0  0
 17 20  1  0  0  0  0
 14 15  1  0  0  0  0
 14 16  1  0  0  0  0
 14 17  1  0  0  0  0
 11 12  1  0  0  0  0
 11 13  1  0  0  0  0
 11 14  1  0  0  0  0
  9 10  1  0  0  0  0
  9 11  1  0  0  0  0
  9 29  1  0  0  0  0
  7  8  1  0  0  0  0
  7  9  1  0  0  0  0
 33 34  1  0  0  0  0
 33 35  1  0  0  0  0
 33 36  1  0  0  0  0
 31 32  1  0  0  0  0
 31 33  1  0  0  0  0
M  CHG  1  20   1
M  END
$$$$
default_name
  -OEChem-01062215323D

 36 35  0     1  0  0  0  0  0999 V2000
   -4.2256   -3.6731    1.8584 H   0  0  0  0  0  0  0  0  0  0  0  0
   -4.2396   -2.6781    1.4144 C   0  0  0  0  0  0  0  0  0  0  0  0
   -4.9506   -2.0521    1.9514 H   0  0  0  0  0  0  0  0  0  0  0  0
   -4.5266   -2.7521    0.3674 H   0  0  0  0  0  0  0  0  0  0  0  0
   -2.8576   -2.0761    1.5184 C   0  0  0  0  0  0  0  0  0  0  0  0
   -1.9456   -2.7051    2.0404 O   0  0  0  0  0  0  0  0  0  0  0  0
   -2.6926   -0.8481    1.0174 N   0  0  0  0  0  0  0  0  0  0  0  0
   -3.4926   -0.3971    0.5954 H   0  0  0  0  0  0  0  0  0  0  0  0
   -1.4216   -0.1071    1.0434 C   0  0  1  0  0  0  0  0  0  0  0  0
   -0.7531   -0.5446    0.3001 H   0  0  0  0  0  0  0  0  0  0  0  0
   -1.7032    1.3584    0.6560 C   0  0  0  0  0  0  0  0  0  0  0  0
   -2.4906    1.7455    1.3059 H   0  0  0  0  0  0  0  0  0  0  0  0
   -0.8019    1.9518    0.8248 H   0  0  0  0  0  0  0  0  0  0  0  0
   -2.1537    1.5295   -0.8021 C   0  0  0  0  0  0  0  0  0  0  0  0
   -1.3776    1.1600   -1.4738 H   0  0  0  0  0  0  0  0  0  0  0  0
   -3.0710    0.9629   -0.9651 H   0  0  0  0  0  0  0  0  0  0  0  0
   -2.4106    3.0132   -1.0989 C   0  0  0  0  0  0  0  0  0  0  0  0
   -3.1693    3.3814   -0.4045 H   0  0  0  0  0  0  0  0  0  0  0  0
   -1.4832    3.5665   -0.9336 H   0  0  0  0  0  0  0  0  0  0  0  0
   -2.8700    3.2231   -2.4873 N   0  3  0  0  0  0  0  0  0  0  0  0
   -2.9159    2.4090   -3.0759 H   0  0  0  0  0  0  0  0  0  0  0  0
   -3.2257    4.3770   -3.0269 C   0  0  0  0  0  0  0  0  0  0  0  0
   -3.2036    5.4930   -2.3537 N   0  0  0  0  0  0  0  0  0  0  0  0
   -2.9078    5.4732   -1.3937 H   0  0  0  0  0  0  0  0  0  0  0  0
   -3.4764    6.3602   -2.7784 H   0  0  0  0  0  0  0  0  0  0  0  0
   -3.6142    4.4326   -4.2692 N   0  0  0  0  0  0  0  0  0  0  0  0
   -3.6482    3.5979   -4.8287 H   0  0  0  0  0  0  0  0  0  0  0  0
   -3.8833    5.3100   -4.6745 H   0  0  0  0  0  0  0  0  0  0  0  0
   -0.7656   -0.2168    2.4214 C   0  0  0  0  0  0  0  0  0  0  0  0
   -1.4687   -0.3091    3.4206 O   0  0  0  0  0  0  0  0  0  0  0  0
    0.5694   -0.1682    2.4668 N   0  0  0  0  0  0  0  0  0  0  0  0
    1.0694   -0.1290    1.5937 H   0  0  0  0  0  0  0  0  0  0  0  0
    1.3506   -0.2609    3.7013 C   0  0  0  0  0  0  0  0  0  0  0  0
    1.2009   -1.2404    4.1604 H   0  0  0  0  0  0  0  0  0  0  0  0
    2.4122   -0.1256    3.4903 H   0  0  0  0  0  0  0  0  0  0  0  0
    1.0241    0.5048    4.4084 H   0  0  0  0  0  0  0  0  0  0  0  0
  5  6  2  0  0  0  0
  5  7  1  0  0  0  0
  2  3  1  0  0  0  0
  2  4  1  0  0  0  0
  2  5  1  0  0  0  0
  1  2  1  0  0  0  0
 29 30  2  0  0  0  0
 29 31  1  0  0  0  0
 26 27  1  0  0  0  0
 26 28  1  0  0  0  0
 23 24  1  0  0  0  0
 23 25  1  0  0  0  0
 22 23  1  0  0  0  0
 22 26  1  0  0  0  0
 20 21  1  0  0  0  0
 20 22  2  0  0  0  0
 17 18  1  0  0  0  0
 17 19  1  0  0  0  0
 17 20  1  0  0  0  0
 14 15  1  0  0  0  0
 14 16  1  0  0  0  0
 14 17  1  0  0  0  0
 11 12  1  0  0  0  0
 11 13  1  0  0  0  0
 11 14  1  0  0  0  0
  9 10  1  0  0  0  0
  9 11  1  0  0  0  0
  9 29  1  0  0  0  0
  7  8  1  0  0  0  0
  7  9  1  0  0  0  0
 33 34  1  0  0  0  0
 33 35  1  0  0  0  0
 33 36  1  0  0  0  0
 31 32  1  0  0  0  0
 31 33  1  0  0  0  0
M  CHG  1  20   1
M  END
$$$$
default_name
  -OEChem-01062215323D

 36 35  0     1  0  0  0  0  0999 V2000
   -4.2256   -3.6731    1.8584 H   0  0  0  0  0  0  0  0  0  0  0  0
   -4.2396   -2.6781    1.4144 C   0  0  0  0  0  0  0  0  0  0  0  0
   -4.9506   -2.0521    1.9514 H   0  0  0  0  0  0  0  0  0  0  0  0
   -4.5266   -2.7521    0.3674 H   0  0  0  0  0  0  0  0  0  0  0  0
   -2.8576   -2.0761    1.5184 C   0  0  0  0  0  0  0  0  0  0  0  0
   -1.9456   -2.7051    2.0404 O   0  0  0  0  0  0  0  0  0  0  0  0
   -2.6926   -0.8481    1.0174 N   0  0  0  0  0  0  0  0  0  0  0  0
   -3.4926   -0.3971    0.5954 H   0  0  0  0  0  0  0  0  0  0  0  0
   -1.4216   -0.1071    1.0434 C   0  0  1  0  0  0  0  0  0  0  0  0
   -0.7531   -0.5446    0.3001 H   0  0  0  0  0  0  0  0  0  0  0  0
   -1.7032    1.3584    0.6560 C   0  0  0  0  0  0  0  0  0  0  0  0
   -2.4906    1.7455    1.3059 H   0  0  0  0  0  0  0  0  0  0  0  0
   -0.8019    1.9518    0.8248 H   0  0  0  0  0  0  0  0  0  0  0  0
   -2.1537    1.5295   -0.8021 C   0  0  0  0  0  0  0  0  0  0  0  0
   -1.3776    1.1600   -1.4738 H   0  0  0  0  0  0  0  0  0  0  0  0
   -3.0710    0.9629   -0.9651 H   0  0  0  0  0  0  0  0  0  0  0  0
   -2.4106    3.0132   -1.0989 C   0  0  0  0  0  0  0  0  0  0  0  0
   -3.1693    3.3814   -0.4045 H   0  0  0  0  0  0  0  0  0  0  0  0
   -1.4832    3.5665   -0.9336 H   0  0  0  0  0  0  0  0  0  0  0  0
   -2.8700    3.2231   -2.4873 N   0  3  0  0  0  0  0  0  0  0  0  0
   -2.9159    2.4090   -3.0759 H   0  0  0  0  0  0  0  0  0  0  0  0
   -3.2257    4.3770   -3.0269 C   0  0  0  0  0  0  0  0  0  0  0  0
   -3.2036    5.4930   -2.3537 N   0  0  0  0  0  0  0  0  0  0  0  0
   -2.9078    5.4732   -1.3937 H   0  0  0  0  0  0  0  0  0  0  0  0
   -3.4764    6.3602   -2.7784 H   0  0  0  0  0  0  0  0  0  0  0  0
   -3.6142    4.4326   -4.2692 N   0  0  0  0  0  0  0  0  0  0  0  0
   -3.6482    3.5979   -4.8287 H   0  0  0  0  0  0  0  0  0  0  0  0
   -3.8833    5.3100   -4.6745 H   0  0  0  0  0  0  0  0  0  0  0  0
   -0.7656   -0.2168    2.4214 C   0  0  0  0  0  0  0  0  0  0  0  0
   -1.4329   -0.5822    3.3818 O   0  0  0  0  0  0  0  0  0  0  0  0
    0.5206    0.1348    2.5142 N   0  0  0  0  0  0  0  0  0  0  0  0
    1.0022    0.3875    1.6668 H   0  0  0  0  0  0  0  0  0  0  0  0
    1.2952    0.0869    3.7553 C   0  0  0  0  0  0  0  0  0  0  0  0
    1.3765   -0.9461    4.1003 H   0  0  0  0  0  0  0  0  0  0  0  0
    2.2967    0.4878    3.5940 H   0  0  0  0  0  0  0  0  0  0  0  0
    0.7946    0.6708    4.5308 H   0  0  0  0  0  0  0  0  0  0  0  0
  5  6  2  0  0  0  0
  5  7  1  0  0  0  0
  2  3  1  0  0  0  0
  2  4  1  0  0  0  0
  2  5  1  0  0  0  0
  1  2  1  0  0  0  0
 29 30  2  0  0  0  0
 29 31  1  0  0  0  0
 26 27  1  0  0  0  0
 26 28  1  0  0  0  0
 23 24  1  0  0  0  0
 23 25  1  0  0  0  0
 22 23  1  0  0  0  0
 22 26  1  0  0  0  0
 20 21  1  0  0  0  0
 20 22  2  0  0  0  0
 17 18  1  0  0  0  0
 17 19  1  0  0  0  0
 17 20  1  0  0  0  0
 14 15  1  0  0  0  0
 14 16  1  0  0  0  0
 14 17  1  0  0  0  0
 11 12  1  0  0  0  0
 11 13  1  0  0  0  0
 11 14  1  0  0  0  0
  9 10  1  0  0  0  0
  9 11  1  0  0  0  0
  9 29  1  0  0  0  0
  7  8  1  0  0  0  0
  7  9  1  0  0  0  0
 33 34  1  0  0  0  0
 33 35  1  0  0  0  0
 33 36  1  0  0  0  0
 31 32  1  0  0  0  0
 31 33  1  0  0  0  0
M  CHG  1  20   1
M  END
$$$$
default_name
  -OEChem-01062215323D

 36 35  0     1  0  0  0  0  0999 V2000
   -4.2256   -3.6731    1.8584 H   0  0  0  0  0  0  0  0  0  0  0  0
   -4.2396   -2.6781    1.4144 C   0  0  0  0  0  0  0  0  0  0  0  0
   -4.9506   -2.0521    1.9514 H   0  0  0  0  0  0  0  0  0  0  0  0
   -4.5266   -2.7521    0.3674 H   0  0  0  0  0  0  0  0  0  0  0  0
   -2.8576   -2.0761    1.5184 C   0  0  0  0  0  0  0  0  0  0  0  0
   -1.9456   -2.7051    2.0404 O   0  0  0  0  0  0  0  0  0  0  0  0
   -2.6926   -0.8481    1.0174 N   0  0  0  0  0  0  0  0  0  0  0  0
   -3.4926   -0.3971    0.5954 H   0  0  0  0  0  0  0  0  0  0  0  0
   -1.4216   -0.1071    1.0434 C   0  0  1  0  0  0  0  0  0  0  0  0
   -0.8606   -0.3546    0.1407 H   0  0  0  0  0  0  0  0  0  0  0  0
   -1.7365    1.4022    1.0338 C   0  0  0  0  0  0  0  0  0  0  0  0
   -2.4280    1.6190    1.8505 H   0  0  0  0  0  0  0  0  0  0  0  0
   -0.8148    1.9602    1.2128 H   0  0  0  0  0  0  0  0  0  0  0  0
   -2.3721    1.8857   -0.2778 C   0  0  0  0  0  0  0  0  0  0  0  0
   -1.6944    1.6906   -1.1101 H   0  0  0  0  0  0  0  0  0  0  0  0
   -3.3086    1.3521   -0.4430 H   0  0  0  0  0  0  0  0  0  0  0  0
   -2.6504    3.3930   -0.1990 C   0  0  0  0  0  0  0  0  0  0  0  0
   -3.3079    3.5820    0.6526 H   0  0  0  0  0  0  0  0  0  0  0  0
   -1.7037    3.9133   -0.0359 H   0  0  0  0  0  0  0  0  0  0  0  0
   -3.2854    3.8986   -1.4335 N   0  3  0  0  0  0  0  0  0  0  0  0
   -3.4162    3.2357   -2.1783 H   0  0  0  0  0  0  0  0  0  0  0  0
   -3.6968    5.1366   -1.6502 C   0  0  0  0  0  0  0  0  0  0  0  0
   -3.5753    6.0745   -0.7530 N   0  0  0  0  0  0  0  0  0  0  0  0
   -3.1567    5.8466    0.1314 H   0  0  0  0  0  0  0  0  0  0  0  0
   -3.8924    7.0092   -0.9337 H   0  0  0  0  0  0  0  0  0  0  0  0
   -4.2439    5.4607   -2.7873 N   0  0  0  0  0  0  0  0  0  0  0  0
   -4.3594    4.7715   -3.5102 H   0  0  0  0  0  0  0  0  0  0  0  0
   -4.5547    6.4010   -2.9475 H   0  0  0  0  0  0  0  0  0  0  0  0
   -0.5921   -0.5089    2.2648 C   0  0  0  0  0  0  0  0  0  0  0  0
   -1.0450   -1.3202    3.0635 O   0  0  0  0  0  0  0  0  0  0  0  0
    0.5943    0.0872    2.4190 N   0  0  0  0  0  0  0  0  0  0  0  0
    0.9043    0.7140    1.6945 H   0  0  0  0  0  0  0  0  0  0  0  0
    1.5091   -0.1845    3.5290 C   0  0  0  0  0  0  0  0  0  0  0  0
    1.8455   -1.2226    3.4847 H   0  0  0  0  0  0  0  0  0  0  0  0
    2.3776    0.4732    3.4755 H   0  0  0  0  0  0  0  0  0  0  0  0
    0.9977   -0.0283    4.4814 H   0  0  0  0  0  0  0  0  0  0  0  0
  5  6  2  0  0  0  0
  5  7  1  0  0  0  0
  2  3  1  0  0  0  0
  2  4  1  0  0  0  0
  2  5  1  0  0  0  0
  1  2  1  0  0  0  0
 29 30  2  0  0  0  0
 29 31  1  0  0  0  0
 26 27  1  0  0  0  0
 26 28  1  0  0  0  0
 23 24  1  0  0  0  0
 23 25  1  0  0  0  0
 22 23  1  0  0  0  0
 22 26  1  0  0  0  0
 20 21  1  0  0  0  0
 20 22  2  0  0  0  0
 17 18  1  0  0  0  0
 17 19  1  0  0  0  0
 17 20  1  0  0  0  0
 14 15  1  0  0  0  0
 14 16  1  0  0  0  0
 14 17  1  0  0  0  0
 11 12  1  0  0  0  0
 11 13  1  0  0  0  0
 11 14  1  0  0  0  0
  9 10  1  0  0  0  0
  9 11  1  0  0  0  0
  9 29  1  0  0  0  0
  7  8  1  0  0  0  0
  7  9  1  0  0  0  0
 33 34  1  0  0  0  0
 33 35  1  0  0  0  0
 33 36  1  0  0  0  0
 31 32  1  0  0  0  0
 31 33  1  0  0  0  0
M  CHG  1  20   1
M  END
$$$$
default_name
  -OEChem-01062215323D

 36 35  0     1  0  0  0  0  0999 V2000
   -4.2256   -3.6731    1.8584 H   0  0  0  0  0  0  0  0  0  0  0  0
   -4.2396   -2.6781    1.4144 C   0  0  0  0  0  0  0  0  0  0  0  0
   -4.9506   -2.0521    1.9514 H   0  0  0  0  0  0  0  0  0  0  0  0
   -4.5266   -2.7521    0.3674 H   0  0  0  0  0  0  0  0  0  0  0  0
   -2.8576   -2.0761    1.5184 C   0  0  0  0  0  0  0  0  0  0  0  0
   -1.9456   -2.7051    2.0404 O   0  0  0  0  0  0  0  0  0  0  0  0
   -2.6926   -0.8481    1.0174 N   0  0  0  0  0  0  0  0  0  0  0  0
   -3.4926   -0.3971    0.5954 H   0  0  0  0  0  0  0  0  0  0  0  0
   -1.4216   -0.1071    1.0434 C   0  0  1  0  0  0  0  0  0  0  0  0
   -0.8606   -0.3546    0.1407 H   0  0  0  0  0  0  0  0  0  0  0  0
   -1.7365    1.4022    1.0338 C   0  0  0  0  0  0  0  0  0  0  0  0
   -2.4280    1.6190    1.8505 H   0  0  0  0  0  0  0  0  0  0  0  0
   -0.8148    1.9602    1.2128 H   0  0  0  0  0  0  0  0  0  0  0  0
   -2.3721    1.8857   -0.2778 C   0  0  0  0  0  0  0  0  0  0  0  0
   -1.6944    1.6906   -1.1101 H   0  0  0  0  0  0  0  0  0  0  0  0
   -3.3086    1.3521   -0.4430 H   0  0  0  0  0  0  0  0  0  0  0  0
   -2.6504    3.3930   -0.1990 C   0  0  0  0  0  0  0  0  0  0  0  0
   -3.3079    3.5820    0.6526 H   0  0  0  0  0  0  0  0  0  0  0  0
   -1.7037    3.9133   -0.0359 H   0  0  0  0  0  0  0  0  0  0  0  0
   -3.2854    3.8986   -1.4335 N   0  3  0  0  0  0  0  0  0  0  0  0
   -3.4162    3.2357   -2.1783 H   0  0  0  0  0  0  0  0  0  0  0  0
   -3.6968    5.1366   -1.6502 C   0  0  0  0  0  0  0  0  0  0  0  0
   -3.5753    6.0745   -0.7530 N   0  0  0  0  0  0  0  0  0  0  0  0
   -3.1567    5.8466    0.1314 H   0  0  0  0  0  0  0  0  0  0  0  0
   -3.8924    7.0092   -0.9337 H   0  0  0  0  0  0  0  0  0  0  0  0
   -4.2439    5.4607   -2.7873 N   0  0  0  0  0  0  0  0  0  0  0  0
   -4.3594    4.7715   -3.5102 H   0  0  0  0  0  0  0  0  0  0  0  0
   -4.5547    6.4010   -2.9475 H   0  0  0  0  0  0  0  0  0  0  0  0
   -0.5921   -0.5089    2.2648 C   0  0  0  0  0  0  0  0  0  0  0  0
   -0.9050   -1.5036    2.9081 O   0  0  0  0  0  0  0  0  0  0  0  0
    0.4315    0.2849    2.5946 N   0  0  0  0  0  0  0  0  0  0  0  0
    0.6401    1.0612    1.9882 H   0  0  0  0  0  0  0  0  0  0  0  0
    1.3227    0.0427    3.7304 C   0  0  0  0  0  0  0  0  0  0  0  0
    1.8728   -0.8880    3.5761 H   0  0  0  0  0  0  0  0  0  0  0  0
    2.0340    0.8627    3.8369 H   0  0  0  0  0  0  0  0  0  0  0  0
    0.7399   -0.0496    4.6495 H   0  0  0  0  0  0  0  0  0  0  0  0
  5  6  2  0  0  0  0
  5  7  1  0  0  0  0
  2  3  1  0  0  0  0
  2  4  1  0  0  0  0
  2  5  1  0  0  0  0
  1  2  1  0  0  0  0
 29 30  2  0  0  0  0
 29 31  1  0  0  0  0
 26 27  1  0  0  0  0
 26 28  1  0  0  0  0
 23 24  1  0  0  0  0
 23 25  1  0  0  0  0
 22 23  1  0  0  0  0
 22 26  1  0  0  0  0
 20 21  1  0  0  0  0
 20 22  2  0  0  0  0
 17 18  1  0  0  0  0
 17 19  1  0  0  0  0
 17 20  1  0  0  0  0
 14 15  1  0  0  0  0
 14 16  1  0  0  0  0
 14 17  1  0  0  0  0
 11 12  1  0  0  0  0
 11 13  1  0  0  0  0
 11 14  1  0  0  0  0
  9 10  1  0  0  0  0
  9 11  1  0  0  0  0
  9 29  1  0  0  0  0
  7  8  1  0  0  0  0
  7  9  1  0  0  0  0
 33 34  1  0  0  0  0
 33 35  1  0  0  0  0
 33 36  1  0  0  0  0
 31 32  1  0  0  0  0
 31 33  1  0  0  0  0
M  CHG  1  20   1
M  END
$$$$
default_name
  -OEChem-01062215323D

 36 35  0     1  0  0  0  0  0999 V2000
   -4.2256   -3.6731    1.8584 H   0  0  0  0  0  0  0  0  0  0  0  0
   -4.2396   -2.6781    1.4144 C   0  0  0  0  0  0  0  0  0  0  0  0
   -4.9506   -2.0521    1.9514 H   0  0  0  0  0  0  0  0  0  0  0  0
   -4.5266   -2.7521    0.3674 H   0  0  0  0  0  0  0  0  0  0  0  0
   -2.8576   -2.0761    1.5184 C   0  0  0  0  0  0  0  0  0  0  0  0
   -1.9456   -2.7051    2.0404 O   0  0  0  0  0  0  0  0  0  0  0  0
   -2.6926   -0.8481    1.0174 N   0  0  0  0  0  0  0  0  0  0  0  0
   -3.4926   -0.3971    0.5954 H   0  0  0  0  0  0  0  0  0  0  0  0
   -1.4216   -0.1071    1.0434 C   0  0  1  0  0  0  0  0  0  0  0  0
   -0.8606   -0.3546    0.1407 H   0  0  0  0  0  0  0  0  0  0  0  0
   -1.7365    1.4022    1.0338 C   0  0  0  0  0  0  0  0  0  0  0  0
   -2.4280    1.6190    1.8505 H   0  0  0  0  0  0  0  0  0  0  0  0
   -0.8148    1.9602    1.2128 H   0  0  0  0  0  0  0  0  0  0  0  0
   -2.3721    1.8857   -0.2778 C   0  0  0  0  0  0  0  0  0  0  0  0
   -1.6944    1.6906   -1.1101 H   0  0  0  0  0  0  0  0  0  0  0  0
   -3.3086    1.3521   -0.4430 H   0  0  0  0  0  0  0  0  0  0  0  0
   -2.6504    3.3930   -0.1990 C   0  0  0  0  0  0  0  0  0  0  0  0
   -3.3079    3.5820    0.6526 H   0  0  0  0  0  0  0  0  0  0  0  0
   -1.7037    3.9133   -0.0359 H   0  0  0  0  0  0  0  0  0  0  0  0
   -3.2854    3.8986   -1.4335 N   0  3  0  0  0  0  0  0  0  0  0  0
   -3.4162    3.2357   -2.1783 H   0  0  0  0  0  0  0  0  0  0  0  0
   -3.6968    5.1366   -1.6502 C   0  0  0  0  0  0  0  0  0  0  0  0
   -3.5753    6.0745   -0.7530 N   0  0  0  0  0  0  0  0  0  0  0  0
   -3.1567    5.8466    0.1314 H   0  0  0  0  0  0  0  0  0  0  0  0
   -3.8924    7.0092   -0.9337 H   0  0  0  0  0  0  0  0  0  0  0  0
   -4.2439    5.4607   -2.7873 N   0  0  0  0  0  0  0  0  0  0  0  0
   -4.3594    4.7715   -3.5102 H   0  0  0  0  0  0  0  0  0  0  0  0
   -4.5547    6.4010   -2.9475 H   0  0  0  0  0  0  0  0  0  0  0  0
   -0.5921   -0.5089    2.2648 C   0  0  0  0  0  0  0  0  0  0  0  0
   -0.7214   -1.6300    2.7418 O   0  0  0  0  0  0  0  0  0  0  0  0
    0.2214    0.4176    2.7809 N   0  0  0  0  0  0  0  0  0  0  0  0
    0.2932    1.3008    2.3026 H   0  0  0  0  0  0  0  0  0  0  0  0
    1.0820    0.1954    3.9441 C   0  0  0  0  0  0  0  0  0  0  0  0
    1.8239   -0.5721    3.7133 H   0  0  0  0  0  0  0  0  0  0  0  0
    1.5971    1.1172    4.2173 H   0  0  0  0  0  0  0  0  0  0  0  0
    0.4838   -0.1471    4.7913 H   0  0  0  0  0  0  0  0  0  0  0  0
  5  6  2  0  0  0  0
  5  7  1  0  0  0  0
  2  3  1  0  0  0  0
  2  4  1  0  0  0  0
  2  5  1  0  0  0  0
  1  2  1  0  0  0  0
 29 30  2  0  0  0  0
 29 31  1  0  0  0  0
 26 27  1  0  0  0  0
 26 28  1  0  0  0  0
 23 24  1  0  0  0  0
 23 25  1  0  0  0  0
 22 23  1  0  0  0  0
 22 26  1  0  0  0  0
 20 21  1  0  0  0  0
 20 22  2  0  0  0  0
 17 18  1  0  0  0  0
 17 19  1  0  0  0  0
 17 20  1  0  0  0  0
 14 15  1  0  0  0  0
 14 16  1  0  0  0  0
 14 17  1  0  0  0  0
 11 12  1  0  0  0  0
 11 13  1  0  0  0  0
 11 14  1  0  0  0  0
  9 10  1  0  0  0  0
  9 11  1  0  0  0  0
  9 29  1  0  0  0  0
  7  8  1  0  0  0  0
  7  9  1  0  0  0  0
 33 34  1  0  0  0  0
 33 35  1  0  0  0  0
 33 36  1  0  0  0  0
 31 32  1  0  0  0  0
 31 33  1  0  0  0  0
M  CHG  1  20   1
M  END
$$$$
default_name
  -OEChem-01062215323D

 36 35  0     1  0  0  0  0  0999 V2000
   -4.2256   -3.6731    1.8584 H   0  0  0  0  0  0  0  0  0  0  0  0
   -4.2396   -2.6781    1.4144 C   0  0  0  0  0  0  0  0  0  0  0  0
   -4.9506   -2.0521    1.9514 H   0  0  0  0  0  0  0  0  0  0  0  0
   -4.5266   -2.7521    0.3674 H   0  0  0  0  0  0  0  0  0  0  0  0
   -2.8576   -2.0761    1.5184 C   0  0  0  0  0  0  0  0  0  0  0  0
   -1.9456   -2.7051    2.0404 O   0  0  0  0  0  0  0  0  0  0  0  0
   -2.6926   -0.8481    1.0174 N   0  0  0  0  0  0  0  0  0  0  0  0
   -3.4926   -0.3971    0.5954 H   0  0  0  0  0  0  0  0  0  0  0  0
   -1.4216   -0.1071    1.0434 C   0  0  1  0  0  0  0  0  0  0  0  0
   -0.8606   -0.3546    0.1407 H   0  0  0  0  0  0  0  0  0  0  0  0
   -1.7365    1.4022    1.0338 C   0  0  0  0  0  0  0  0  0  0  0  0
   -2.4280    1.6190    1.8505 H   0  0  0  0  0  0  0  0  0  0  0  0
   -0.8148    1.9602    1.2128 H   0  0  0  0  0  0  0  0  0  0  0  0
   -2.3721    1.8857   -0.2778 C   0  0  0  0  0  0  0  0  0  0  0  0
   -1.6944    1.6906   -1.1101 H   0  0  0  0  0  0  0  0  0  0  0  0
   -3.3086    1.3521   -0.4430 H   0  0  0  0  0  0  0  0  0  0  0  0
   -2.6504    3.3930   -0.1990 C   0  0  0  0  0  0  0  0  0  0  0  0
   -3.3079    3.5820    0.6526 H   0  0  0  0  0  0  0  0  0  0  0  0
   -1.7037    3.9133   -0.0359 H   0  0  0  0  0  0  0  0  0  0  0  0
   -3.2854    3.8986   -1.4335 N   0  3  0  0  0  0  0  0  0  0  0  0
   -3.4162    3.2357   -2.1783 H   0  0  0  0  0  0  0  0  0  0  0  0
   -3.6968    5.1366   -1.6502 C   0  0  0  0  0  0  0  0  0  0  0  0
   -3.5753    6.0745   -0.7530 N   0  0  0  0  0  0  0  0  0  0  0  0
   -3.1567    5.8466    0.1314 H   0  0  0  0  0  0  0  0  0  0  0  0
   -3.8924    7.0092   -0.9337 H   0  0  0  0  0  0  0  0  0  0  0  0
   -4.2439    5.4607   -2.7873 N   0  0  0  0  0  0  0  0  0  0  0  0
   -4.3594    4.7715   -3.5102 H   0  0  0  0  0  0  0  0  0  0  0  0
   -4.5547    6.4010   -2.9475 H   0  0  0  0  0  0  0  0  0  0  0  0
   -0.5921   -0.5089    2.2648 C   0  0  0  0  0  0  0  0  0  0  0  0
   -0.5066   -1.6909    2.5759 O   0  0  0  0  0  0  0  0  0  0  0  0
   -0.0215    0.4763    2.9652 N   0  0  0  0  0  0  0  0  0  0  0  0
   -0.1128    1.4164    2.6163 H   0  0  0  0  0  0  0  0  0  0  0  0
    0.8034    0.2632    4.1556 C   0  0  0  0  0  0  0  0  0  0  0  0
    1.7020   -0.2962    3.8868 H   0  0  0  0  0  0  0  0  0  0  0  0
    1.0967    1.2194    4.5908 H   0  0  0  0  0  0  0  0  0  0  0  0
    0.2470   -0.3140    4.8972 H   0  0  0  0  0  0  0  0  0  0  0  0
  5  6  2  0  0  0  0
  5  7  1  0  0  0  0
  2  3  1  0  0  0  0
  2  4  1  0  0  0  0
  2  5  1  0  0  0  0
  1  2  1  0  0  0  0
 29 30  2  0  0  0  0
 29 31  1  0  0  0  0
 26 27  1  0  0  0  0
 26 28  1  0  0  0  0
 23 24  1  0  0  0  0
 23 25  1  0  0  0  0
 22 23  1  0  0  0  0
 22 26  1  0  0  0  0
 20 21  1  0  0  0  0
 20 22  2  0  0  0  0
 17 18  1  0  0  0  0
 17 19  1  0  0  0  0
 17 20  1  0  0  0  0
 14 15  1  0  0  0  0
 14 16  1  0  0  0  0
 14 17  1  0  0  0  0
 11 12  1  0  0  0  0
 11 13  1  0  0  0  0
 11 14  1  0  0  0  0
  9 10  1  0  0  0  0
  9 11  1  0  0  0  0
  9 29  1  0  0  0  0
  7  8  1  0  0  0  0
  7  9  1  0  0  0  0
 33 34  1  0  0  0  0
 33 35  1  0  0  0  0
 33 36  1  0  0  0  0
 31 32  1  0  0  0  0
 31 33  1  0  0  0  0
M  CHG  1  20   1
M  END
$$$$
default_name
  -OEChem-01062215323D

 36 35  0     1  0  0  0  0  0999 V2000
   -4.2256   -3.6731    1.8584 H   0  0  0  0  0  0  0  0  0  0  0  0
   -4.2396   -2.6781    1.4144 C   0  0  0  0  0  0  0  0  0  0  0  0
   -4.9506   -2.0521    1.9514 H   0  0  0  0  0  0  0  0  0  0  0  0
   -4.5266   -2.7521    0.3674 H   0  0  0  0  0  0  0  0  0  0  0  0
   -2.8576   -2.0761    1.5184 C   0  0  0  0  0  0  0  0  0  0  0  0
   -1.9456   -2.7051    2.0404 O   0  0  0  0  0  0  0  0  0  0  0  0
   -2.6926   -0.8481    1.0174 N   0  0  0  0  0  0  0  0  0  0  0  0
   -3.4926   -0.3971    0.5954 H   0  0  0  0  0  0  0  0  0  0  0  0
   -1.4216   -0.1071    1.0434 C   0  0  1  0  0  0  0  0  0  0  0  0
   -0.8606   -0.3546    0.1407 H   0  0  0  0  0  0  0  0  0  0  0  0
   -1.7365    1.4022    1.0338 C   0  0  0  0  0  0  0  0  0  0  0  0
   -2.4280    1.6190    1.8505 H   0  0  0  0  0  0  0  0  0  0  0  0
   -0.8148    1.9602    1.2128 H   0  0  0  0  0  0  0  0  0  0  0  0
   -2.3721    1.8857   -0.2778 C   0  0  0  0  0  0  0  0  0  0  0  0
   -1.6944    1.6906   -1.1101 H   0  0  0  0  0  0  0  0  0  0  0  0
   -3.3086    1.3521   -0.4430 H   0  0  0  0  0  0  0  0  0  0  0  0
   -2.6504    3.3930   -0.1990 C   0  0  0  0  0  0  0  0  0  0  0  0
   -3.3079    3.5820    0.6526 H   0  0  0  0  0  0  0  0  0  0  0  0
   -1.7037    3.9133   -0.0359 H   0  0  0  0  0  0  0  0  0  0  0  0
   -3.2854    3.8986   -1.4335 N   0  3  0  0  0  0  0  0  0  0  0  0
   -3.4162    3.2357   -2.1783 H   0  0  0  0  0  0  0  0  0  0  0  0
   -3.6968    5.1366   -1.6502 C   0  0  0  0  0  0  0  0  0  0  0  0
   -3.5753    6.0745   -0.7530 N   0  0  0  0  0  0  0  0  0  0  0  0
   -3.1567    5.8466    0.1314 H   0  0  0  0  0  0  0  0  0  0  0  0
   -3.8924    7.0092   -0.9337 H   0  0  0  0  0  0  0  0  0  0  0  0
   -4.2439    5.4607   -2.7873 N   0  0  0  0  0  0  0  0  0  0  0  0
   -4.3594    4.7715   -3.5102 H   0  0  0  0  0  0  0  0  0  0  0  0
   -4.5547    6.4010   -2.9475 H   0  0  0  0  0  0  0  0  0  0  0  0
   -0.5921   -0.5089    2.2648 C   0  0  0  0  0  0  0  0  0  0  0  0
   -0.2753   -1.6820    2.4218 O   0  0  0  0  0  0  0  0  0  0  0  0
   -0.2809    0.4569    3.1349 N   0  0  0  0  0  0  0  0  0  0  0  0
   -0.5501    1.4002    2.9080 H   0  0  0  0  0  0  0  0  0  0  0  0
    0.5059    0.2415    4.3504 C   0  0  0  0  0  0  0  0  0  0  0  0
    1.5155   -0.0793    4.0848 H   0  0  0  0  0  0  0  0  0  0  0  0
    0.5668    1.1623    4.9319 H   0  0  0  0  0  0  0  0  0  0  0  0
    0.0455   -0.5390    4.9601 H   0  0  0  0  0  0  0  0  0  0  0  0
  5  6  2  0  0  0  0
  5  7  1  0  0  0  0
  2  3  1  0  0  0  0
  2  4  1  0  0  0  0
  2  5  1  0  0  0  0
  1  2  1  0  0  0  0
 29 30  2  0  0  0  0
 29 31  1  0  0  0  0
 26 27  1  0  0  0  0
 26 28  1  0  0  0  0
 23 24  1  0  0  0  0
 23 25  1  0  0  0  0
 22 23  1  0  0  0  0
 22 26  1  0  0  0  0
 20 21  1  0  0  0  0
 20 22  2  0  0  0  0
 17 18  1  0  0  0  0
 17 19  1  0  0  0  0
 17 20  1  0  0  0  0
 14 15  1  0  0  0  0
 14 16  1  0  0  0  0
 14 17  1  0  0  0  0
 11 12  1  0  0  0  0
 11 13  1  0  0  0  0
 11 14  1  0  0  0  0
  9 10  1  0  0  0  0
  9 11  1  0  0  0  0
  9 29  1  0  0  0  0
  7  8  1  0  0  0  0
  7  9  1  0  0  0  0
 33 34  1  0  0  0  0
 33 35  1  0  0  0  0
 33 36  1  0  0  0  0
 31 32  1  0  0  0  0
 31 33  1  0  0  0  0
M  CHG  1  20   1
M  END
$$$$
default_name
  -OEChem-01062215323D

 36 35  0     1  0  0  0  0  0999 V2000
   -4.2256   -3.6731    1.8584 H   0  0  0  0  0  0  0  0  0  0  0  0
   -4.2396   -2.6781    1.4144 C   0  0  0  0  0  0  0  0  0  0  0  0
   -4.9506   -2.0521    1.9514 H   0  0  0  0  0  0  0  0  0  0  0  0
   -4.5266   -2.7521    0.3674 H   0  0  0  0  0  0  0  0  0  0  0  0
   -2.8576   -2.0761    1.5184 C   0  0  0  0  0  0  0  0  0  0  0  0
   -1.9456   -2.7051    2.0404 O   0  0  0  0  0  0  0  0  0  0  0  0
   -2.6926   -0.8481    1.0174 N   0  0  0  0  0  0  0  0  0  0  0  0
   -3.4926   -0.3971    0.5954 H   0  0  0  0  0  0  0  0  0  0  0  0
   -1.4216   -0.1071    1.0434 C   0  0  1  0  0  0  0  0  0  0  0  0
   -0.8606   -0.3546    0.1407 H   0  0  0  0  0  0  0  0  0  0  0  0
   -1.7365    1.4022    1.0338 C   0  0  0  0  0  0  0  0  0  0  0  0
   -2.4280    1.6190    1.8505 H   0  0  0  0  0  0  0  0  0  0  0  0
   -0.8148    1.9602    1.2128 H   0  0  0  0  0  0  0  0  0  0  0  0
   -2.3721    1.8857   -0.2778 C   0  0  0  0  0  0  0  0  0  0  0  0
   -1.6944    1.6906   -1.1101 H   0  0  0  0  0  0  0  0  0  0  0  0
   -3.3086    1.3521   -0.4430 H   0  0  0  0  0  0  0  0  0  0  0  0
   -2.6504    3.3930   -0.1990 C   0  0  0  0  0  0  0  0  0  0  0  0
   -3.3079    3.5820    0.6526 H   0  0  0  0  0  0  0  0  0  0  0  0
   -1.7037    3.9133   -0.0359 H   0  0  0  0  0  0  0  0  0  0  0  0
   -3.2854    3.8986   -1.4335 N   0  3  0  0  0  0  0  0  0  0  0  0
   -3.4162    3.2357   -2.1783 H   0  0  0  0  0  0  0  0  0  0  0  0
   -3.6968    5.1366   -1.6502 C   0  0  0  0  0  0  0  0  0  0  0  0
   -3.5753    6.0745   -0.7530 N   0  0  0  0  0  0  0  0  0  0  0  0
   -3.1567    5.8466    0.1314 H   0  0  0  0  0  0  0  0  0  0  0  0
   -3.8924    7.0092   -0.9337 H   0  0  0  0  0  0  0  0  0  0  0  0
   -4.2439    5.4607   -2.7873 N   0  0  0  0  0  0  0  0  0  0  0  0
   -4.3594    4.7715   -3.5102 H   0  0  0  0  0  0  0  0  0  0  0  0
   -4.5547    6.4010   -2.9475 H   0  0  0  0  0  0  0  0  0  0  0  0
   -0.5921   -0.5089    2.2648 C   0  0  0  0  0  0  0  0  0  0  0  0
   -0.0432   -1.6040    2.2898 O   0  0  0  0  0  0  0  0  0  0  0  0
   -0.5389    0.3607    3.2785 N   0  0  0  0  0  0  0  0  0  0  0  0
   -0.9890    1.2533    3.1577 H   0  0  0  0  0  0  0  0  0  0  0  0
    0.2098    0.1317    4.5154 C   0  0  0  0  0  0  0  0  0  0  0  0
    1.2771    0.0640    4.2939 H   0  0  0  0  0  0  0  0  0  0  0  0
    0.0436    0.9499    5.2173 H   0  0  0  0  0  0  0  0  0  0  0  0
   -0.1070   -0.8068    4.9755 H   0  0  0  0  0  0  0  0  0  0  0  0
  5  6  2  0  0  0  0
  5  7  1  0  0  0  0
  2  3  1  0  0  0  0
  2  4  1  0  0  0  0
  2  5  1  0  0  0  0
  1  2  1  0  0  0  0
 29 30  2  0  0  0  0
 29 31  1  0  0  0  0
 26 27  1  0  0  0  0
 26 28  1  0  0  0  0
 23 24  1  0  0  0  0
 23 25  1  0  0  0  0
 22 23  1  0  0  0  0
 22 26  1  0  0  0  0
 20 21  1  0  0  0  0
 20 22  2  0  0  0  0
 17 18  1  0  0  0  0
 17 19  1  0  0  0  0
 17 20  1  0  0  0  0
 14 15  1  0  0  0  0
 14 16  1  0  0  0  0
 14 17  1  0  0  0  0
 11 12  1  0  0  0  0
 11 13  1  0  0  0  0
 11 14  1  0  0  0  0
  9 10  1  0  0  0  0
  9 11  1  0  0  0  0
  9 29  1  0  0  0  0
  7  8  1  0  0  0  0
  7  9  1  0  0  0  0
 33 34  1  0  0  0  0
 33 35  1  0  0  0  0
 33 36  1  0  0  0  0
 31 32  1  0  0  0  0
 31 33  1  0  0  0  0
M  CHG  1  20   1
M  END
$$$$
default_name
  -OEChem-01062215323D

 36 35  0     1  0  0  0  0  0999 V2000
   -4.2256   -3.6731    1.8584 H   0  0  0  0  0  0  0  0  0  0  0  0
   -4.2396   -2.6781    1.4144 C   0  0  0  0  0  0  0  0  0  0  0  0
   -4.9506   -2.0521    1.9514 H   0  0  0  0  0  0  0  0  0  0  0  0
   -4.5266   -2.7521    0.3674 H   0  0  0  0  0  0  0  0  0  0  0  0
   -2.8576   -2.0761    1.5184 C   0  0  0  0  0  0  0  0  0  0  0  0
   -1.9456   -2.7051    2.0404 O   0  0  0  0  0  0  0  0  0  0  0  0
   -2.6926   -0.8481    1.0174 N   0  0  0  0  0  0  0  0  0  0  0  0
   -3.4926   -0.3971    0.5954 H   0  0  0  0  0  0  0  0  0  0  0  0
   -1.4216   -0.1071    1.0434 C   0  0  1  0  0  0  0  0  0  0  0  0
   -0.8606   -0.3546    0.1407 H   0  0  0  0  0  0  0  0  0  0  0  0
   -1.7365    1.4022    1.0338 C   0  0  0  0  0  0  0  0  0  0  0  0
   -2.4280    1.6190    1.8505 H   0  0  0  0  0  0  0  0  0  0  0  0
   -0.8148    1.9602    1.2128 H   0  0  0  0  0  0  0  0  0  0  0  0
   -2.3721    1.8857   -0.2778 C   0  0  0  0  0  0  0  0  0  0  0  0
   -1.6944    1.6906   -1.1101 H   0  0  0  0  0  0  0  0  0  0  0  0
   -3.3086    1.3521   -0.4430 H   0  0  0  0  0  0  0  0  0  0  0  0
   -2.6504    3.3930   -0.1990 C   0  0  0  0  0  0  0  0  0  0  0  0
   -3.3079    3.5820    0.6526 H   0  0  0  0  0  0  0  0  0  0  0  0
   -1.7037    3.9133   -0.0359 H   0  0  0  0  0  0  0  0  0  0  0  0
   -3.2854    3.8986   -1.4335 N   0  3  0  0  0  0  0  0  0  0  0  0
   -3.4162    3.2357   -2.1783 H   0  0  0  0  0  0  0  0  0  0  0  0
   -3.6968    5.1366   -1.6502 C   0  0  0  0  0  0  0  0  0  0  0  0
   -3.5753    6.0745   -0.7530 N   0  0  0  0  0  0  0  0  0  0  0  0
   -3.1567    5.8466    0.1314 H   0  0  0  0  0  0  0  0  0  0  0  0
   -3.8924    7.0092   -0.9337 H   0  0  0  0  0  0  0  0  0  0  0  0
   -4.2439    5.4607   -2.7873 N   0  0  0  0  0  0  0  0  0  0  0  0
   -4.3594    4.7715   -3.5102 H   0  0  0  0  0  0  0  0  0  0  0  0
   -4.5547    6.4010   -2.9475 H   0  0  0  0  0  0  0  0  0  0  0  0
   -0.5921   -0.5089    2.2648 C   0  0  0  0  0  0  0  0  0  0  0  0
    0.1738   -1.4622    2.1891 O   0  0  0  0  0  0  0  0  0  0  0  0
   -0.7780    0.1944    3.3862 N   0  0  0  0  0  0  0  0  0  0  0  0
   -1.3996    0.9856    3.3485 H   0  0  0  0  0  0  0  0  0  0  0  0
   -0.0647   -0.0587    4.6392 C   0  0  0  0  0  0  0  0  0  0  0  0
    1.0030    0.1237    4.4997 H   0  0  0  0  0  0  0  0  0  0  0  0
   -0.4373    0.5966    5.4276 H   0  0  0  0  0  0  0  0  0  0  0  0
   -0.1999   -1.0992    4.9424 H   0  0  0  0  0  0  0  0  0  0  0  0
  5  6  2  0  0  0  0
  5  7  1  0  0  0  0
  2  3  1  0  0  0  0
  2  4  1  0  0  0  0
  2  5  1  0  0  0  0
  1  2  1  0  0  0  0
 29 30  2  0  0  0  0
 29 31  1  0  0  0  0
 26 27  1  0  0  0  0
 26 28  1  0  0  0  0
 23 24  1  0  0  0  0
 23 25  1  0  0  0  0
 22 23  1  0  0  0  0
 22 26  1  0  0  0  0
 20 21  1  0  0  0  0
 20 22  2  0  0  0  0
 17 18  1  0  0  0  0
 17 19  1  0  0  0  0
 17 20  1  0  0  0  0
 14 15  1  0  0  0  0
 14 16  1  0  0  0  0
 14 17  1  0  0  0  0
 11 12  1  0  0  0  0
 11 13  1  0  0  0  0
 11 14  1  0  0  0  0
  9 10  1  0  0  0  0
  9 11  1  0  0  0  0
  9 29  1  0  0  0  0
  7  8  1  0  0  0  0
  7  9  1  0  0  0  0
 33 34  1  0  0  0  0
 33 35  1  0  0  0  0
 33 36  1  0  0  0  0
 31 32  1  0  0  0  0
 31 33  1  0  0  0  0
M  CHG  1  20   1
M  END
$$$$
default_name
  -OEChem-01062215323D

 36 35  0     1  0  0  0  0  0999 V2000
   -4.2256   -3.6731    1.8584 H   0  0  0  0  0  0  0  0  0  0  0  0
   -4.2396   -2.6781    1.4144 C   0  0  0  0  0  0  0  0  0  0  0  0
   -4.9506   -2.0521    1.9514 H   0  0  0  0  0  0  0  0  0  0  0  0
   -4.5266   -2.7521    0.3674 H   0  0  0  0  0  0  0  0  0  0  0  0
   -2.8576   -2.0761    1.5184 C   0  0  0  0  0  0  0  0  0  0  0  0
   -1.9456   -2.7051    2.0404 O   0  0  0  0  0  0  0  0  0  0  0  0
   -2.6926   -0.8481    1.0174 N   0  0  0  0  0  0  0  0  0  0  0  0
   -3.4926   -0.3971    0.5954 H   0  0  0  0  0  0  0  0  0  0  0  0
   -1.4216   -0.1071    1.0434 C   0  0  1  0  0  0  0  0  0  0  0  0
   -0.8606   -0.3546    0.1407 H   0  0  0  0  0  0  0  0  0  0  0  0
   -1.7365    1.4022    1.0338 C   0  0  0  0  0  0  0  0  0  0  0  0
   -2.4280    1.6190    1.8505 H   0  0  0  0  0  0  0  0  0  0  0  0
   -0.8148    1.9602    1.2128 H   0  0  0  0  0  0  0  0  0  0  0  0
   -2.3721    1.8857   -0.2778 C   0  0  0  0  0  0  0  0  0  0  0  0
   -1.6944    1.6906   -1.1101 H   0  0  0  0  0  0  0  0  0  0  0  0
   -3.3086    1.3521   -0.4430 H   0  0  0  0  0  0  0  0  0  0  0  0
   -2.6504    3.3930   -0.1990 C   0  0  0  0  0  0  0  0  0  0  0  0
   -3.3079    3.5820    0.6526 H   0  0  0  0  0  0  0  0  0  0  0  0
   -1.7037    3.9133   -0.0359 H   0  0  0  0  0  0  0  0  0  0  0  0
   -3.2854    3.8986   -1.4335 N   0  3  0  0  0  0  0  0  0  0  0  0
   -3.4162    3.2357   -2.1783 H   0  0  0  0  0  0  0  0  0  0  0  0
   -3.6968    5.1366   -1.6502 C   0  0  0  0  0  0  0  0  0  0  0  0
   -3.5753    6.0745   -0.7530 N   0  0  0  0  0  0  0  0  0  0  0  0
   -3.1567    5.8466    0.1314 H   0  0  0  0  0  0  0  0  0  0  0  0
   -3.8924    7.0092   -0.9337 H   0  0  0  0  0  0  0  0  0  0  0  0
   -4.2439    5.4607   -2.7873 N   0  0  0  0  0  0  0  0  0  0  0  0
   -4.3594    4.7715   -3.5102 H   0  0  0  0  0  0  0  0  0  0  0  0
   -4.5547    6.4010   -2.9475 H   0  0  0  0  0  0  0  0  0  0  0  0
   -0.5921   -0.5089    2.2648 C   0  0  0  0  0  0  0  0  0  0  0  0
    0.3609   -1.2663    2.1265 O   0  0  0  0  0  0  0  0  0  0  0  0
   -0.9819   -0.0307    3.4506 N   0  0  0  0  0  0  0  0  0  0  0  0
   -1.7539    0.6155    3.4673 H   0  0  0  0  0  0  0  0  0  0  0  0
   -0.2990   -0.3166    4.7134 C   0  0  0  0  0  0  0  0  0  0  0  0
    0.7119    0.0959    4.6882 H   0  0  0  0  0  0  0  0  0  0  0  0
   -0.8431    0.1264    5.5485 H   0  0  0  0  0  0  0  0  0  0  0  0
   -0.2270   -1.3961    4.8631 H   0  0  0  0  0  0  0  0  0  0  0  0
  5  6  2  0  0  0  0
  5  7  1  0  0  0  0
  2  3  1  0  0  0  0
  2  4  1  0  0  0  0
  2  5  1  0  0  0  0
  1  2  1  0  0  0  0
 29 30  2  0  0  0  0
 29 31  1  0  0  0  0
 26 27  1  0  0  0  0
 26 28  1  0  0  0  0
 23 24  1  0  0  0  0
 23 25  1  0  0  0  0
 22 23  1  0  0  0  0
 22 26  1  0  0  0  0
 20 21  1  0  0  0  0
 20 22  2  0  0  0  0
 17 18  1  0  0  0  0
 17 19  1  0  0  0  0
 17 20  1  0  0  0  0
 14 15  1  0  0  0  0
 14 16  1  0  0  0  0
 14 17  1  0  0  0  0
 11 12  1  0  0  0  0
 11 13  1  0  0  0  0
 11 14  1  0  0  0  0
  9 10  1  0  0  0  0
  9 11  1  0  0  0  0
  9 29  1  0  0  0  0
  7  8  1  0  0  0  0
  7  9  1  0  0  0  0
 33 34  1  0  0  0  0
 33 35  1  0  0  0  0
 33 36  1  0  0  0  0
 31 32  1  0  0  0  0
 31 33  1  0  0  0  0
M  CHG  1  20   1
M  END
$$$$
default_name
  -OEChem-01062215323D

 36 35  0     1  0  0  0  0  0999 V2000
   -4.2256   -3.6731    1.8584 H   0  0  0  0  0  0  0  0  0  0  0  0
   -4.2396   -2.6781    1.4144 C   0  0  0  0  0  0  0  0  0  0  0  0
   -4.9506   -2.0521    1.9514 H   0  0  0  0  0  0  0  0  0  0  0  0
   -4.5266   -2.7521    0.3674 H   0  0  0  0  0  0  0  0  0  0  0  0
   -2.8576   -2.0761    1.5184 C   0  0  0  0  0  0  0  0  0  0  0  0
   -1.9456   -2.7051    2.0404 O   0  0  0  0  0  0  0  0  0  0  0  0
   -2.6926   -0.8481    1.0174 N   0  0  0  0  0  0  0  0  0  0  0  0
   -3.4926   -0.3971    0.5954 H   0  0  0  0  0  0  0  0  0  0  0  0
   -1.4216   -0.1071    1.0434 C   0  0  1  0  0  0  0  0  0  0  0  0
   -0.8606   -0.3546    0.1407 H   0  0  0  0  0  0  0  0  0  0  0  0
   -1.7365    1.4022    1.0338 C   0  0  0  0  0  0  0  0  0  0  0  0
   -2.4280    1.6190    1.8505 H   0  0  0  0  0  0  0  0  0  0  0  0
   -0.8148    1.9602    1.2128 H   0  0  0  0  0  0  0  0  0  0  0  0
   -2.3721    1.8857   -0.2778 C   0  0  0  0  0  0  0  0  0  0  0  0
   -1.6944    1.6906   -1.1101 H   0  0  0  0  0  0  0  0  0  0  0  0
   -3.3086    1.3521   -0.4430 H   0  0  0  0  0  0  0  0  0  0  0  0
   -2.6504    3.3930   -0.1990 C   0  0  0  0  0  0  0  0  0  0  0  0
   -3.3079    3.5820    0.6526 H   0  0  0  0  0  0  0  0  0  0  0  0
   -1.7037    3.9133   -0.0359 H   0  0  0  0  0  0  0  0  0  0  0  0
   -3.2854    3.8986   -1.4335 N   0  3  0  0  0  0  0  0  0  0  0  0
   -3.4162    3.2357   -2.1783 H   0  0  0  0  0  0  0  0  0  0  0  0
   -3.6968    5.1366   -1.6502 C   0  0  0  0  0  0  0  0  0  0  0  0
   -3.5753    6.0745   -0.7530 N   0  0  0  0  0  0  0  0  0  0  0  0
   -3.1567    5.8466    0.1314 H   0  0  0  0  0  0  0  0  0  0  0  0
   -3.8924    7.0092   -0.9337 H   0  0  0  0  0  0  0  0  0  0  0  0
   -4.2439    5.4607   -2.7873 N   0  0  0  0  0  0  0  0  0  0  0  0
   -4.3594    4.7715   -3.5102 H   0  0  0  0  0  0  0  0  0  0  0  0
   -4.5547    6.4010   -2.9475 H   0  0  0  0  0  0  0  0  0  0  0  0
   -0.5921   -0.5089    2.2648 C   0  0  0  0  0  0  0  0  0  0  0  0
    0.5055   -1.0296    2.1061 O   0  0  0  0  0  0  0  0  0  0  0  0
   -1.1368   -0.2994    3.4674 N   0  0  0  0  0  0  0  0  0  0  0  0
   -2.0277    0.1681    3.5061 H   0  0  0  0  0  0  0  0  0  0  0  0
   -0.4770   -0.6246    4.7330 C   0  0  0  0  0  0  0  0  0  0  0  0
    0.4236   -0.0175    4.8467 H   0  0  0  0  0  0  0  0  0  0  0  0
   -1.1461   -0.4286    5.5718 H   0  0  0  0  0  0  0  0  0  0  0  0
   -0.1865   -1.6774    4.7431 H   0  0  0  0  0  0  0  0  0  0  0  0
  5  6  2  0  0  0  0
  5  7  1  0  0  0  0
  2  3  1  0  0  0  0
  2  4  1  0  0  0  0
  2  5  1  0  0  0  0
  1  2  1  0  0  0  0
 29 30  2  0  0  0  0
 29 31  1  0  0  0  0
 26 27  1  0  0  0  0
 26 28  1  0  0  0  0
 23 24  1  0  0  0  0
 23 25  1  0  0  0  0
 22 23  1  0  0  0  0
 22 26  1  0  0  0  0
 20 21  1  0  0  0  0
 20 22  2  0  0  0  0
 17 18  1  0  0  0  0
 17 19  1  0  0  0  0
 17 20  1  0  0  0  0
 14 15  1  0  0  0  0
 14 16  1  0  0  0  0
 14 17  1  0  0  0  0
 11 12  1  0  0  0  0
 11 13  1  0  0  0  0
 11 14  1  0  0  0  0
  9 10  1  0  0  0  0
  9 11  1  0  0  0  0
  9 29  1  0  0  0  0
  7  8  1  0  0  0  0
  7  9  1  0  0  0  0
 33 34  1  0  0  0  0
 33 35  1  0  0  0  0
 33 36  1  0  0  0  0
 31 32  1  0  0  0  0
 31 33  1  0  0  0  0
M  CHG  1  20   1
M  END
$$$$
default_name
  -OEChem-01062215323D

 36 35  0     1  0  0  0  0  0999 V2000
   -4.2256   -3.6731    1.8584 H   0  0  0  0  0  0  0  0  0  0  0  0
   -4.2396   -2.6781    1.4144 C   0  0  0  0  0  0  0  0  0  0  0  0
   -4.9506   -2.0521    1.9514 H   0  0  0  0  0  0  0  0  0  0  0  0
   -4.5266   -2.7521    0.3674 H   0  0  0  0  0  0  0  0  0  0  0  0
   -2.8576   -2.0761    1.5184 C   0  0  0  0  0  0  0  0  0  0  0  0
   -1.9456   -2.7051    2.0404 O   0  0  0  0  0  0  0  0  0  0  0  0
   -2.6926   -0.8481    1.0174 N   0  0  0  0  0  0  0  0  0  0  0  0
   -3.4926   -0.3971    0.5954 H   0  0  0  0  0  0  0  0  0  0  0  0
   -1.4216   -0.1071    1.0434 C   0  0  1  0  0  0  0  0  0  0  0  0
   -0.8606   -0.3546    0.1407 H   0  0  0  0  0  0  0  0  0  0  0  0
   -1.7365    1.4022    1.0338 C   0  0  0  0  0  0  0  0  0  0  0  0
   -2.4280    1.6190    1.8505 H   0  0  0  0  0  0  0  0  0  0  0  0
   -0.8148    1.9602    1.2128 H   0  0  0  0  0  0  0  0  0  0  0  0
   -2.3721    1.8857   -0.2778 C   0  0  0  0  0  0  0  0  0  0  0  0
   -1.6944    1.6906   -1.1101 H   0  0  0  0  0  0  0  0  0  0  0  0
   -3.3086    1.3521   -0.4430 H   0  0  0  0  0  0  0  0  0  0  0  0
   -2.6504    3.3930   -0.1990 C   0  0  0  0  0  0  0  0  0  0  0  0
   -3.3079    3.5820    0.6526 H   0  0  0  0  0  0  0  0  0  0  0  0
   -1.7037    3.9133   -0.0359 H   0  0  0  0  0  0  0  0  0  0  0  0
   -3.2854    3.8986   -1.4335 N   0  3  0  0  0  0  0  0  0  0  0  0
   -3.4162    3.2357   -2.1783 H   0  0  0  0  0  0  0  0  0  0  0  0
   -3.6968    5.1366   -1.6502 C   0  0  0  0  0  0  0  0  0  0  0  0
   -3.5753    6.0745   -0.7530 N   0  0  0  0  0  0  0  0  0  0  0  0
   -3.1567    5.8466    0.1314 H   0  0  0  0  0  0  0  0  0  0  0  0
   -3.8924    7.0092   -0.9337 H   0  0  0  0  0  0  0  0  0  0  0  0
   -4.2439    5.4607   -2.7873 N   0  0  0  0  0  0  0  0  0  0  0  0
   -4.3594    4.7715   -3.5102 H   0  0  0  0  0  0  0  0  0  0  0  0
   -4.5547    6.4010   -2.9475 H   0  0  0  0  0  0  0  0  0  0  0  0
   -0.5921   -0.5089    2.2648 C   0  0  0  0  0  0  0  0  0  0  0  0
    0.5976   -0.7682    2.1296 O   0  0  0  0  0  0  0  0  0  0  0  0
   -1.2320   -0.5932    3.4354 N   0  0  0  0  0  0  0  0  0  0  0  0
   -2.2024   -0.3260    3.4622 H   0  0  0  0  0  0  0  0  0  0  0  0
   -0.5866   -0.9616    4.6966 C   0  0  0  0  0  0  0  0  0  0  0  0
    0.1579   -0.2088    4.9642 H   0  0  0  0  0  0  0  0  0  0  0  0
   -1.3258   -1.0305    5.4958 H   0  0  0  0  0  0  0  0  0  0  0  0
   -0.0811   -1.9239    4.5904 H   0  0  0  0  0  0  0  0  0  0  0  0
  5  6  2  0  0  0  0
  5  7  1  0  0  0  0
  2  3  1  0  0  0  0
  2  4  1  0  0  0  0
  2  5  1  0  0  0  0
  1  2  1  0  0  0  0
 29 30  2  0  0  0  0
 29 31  1  0  0  0  0
 26 27  1  0  0  0  0
 26 28  1  0  0  0  0
 23 24  1  0  0  0  0
 23 25  1  0  0  0  0
 22 23  1  0  0  0  0
 22 26  1  0  0  0  0
 20 21  1  0  0  0  0
 20 22  2  0  0  0  0
 17 18  1  0  0  0  0
 17 19  1  0  0  0  0
 17 20  1  0  0  0  0
 14 15  1  0  0  0  0
 14 16  1  0  0  0  0
 14 17  1  0  0  0  0
 11 12  1  0  0  0  0
 11 13  1  0  0  0  0
 11 14  1  0  0  0  0
  9 10  1  0  0  0  0
  9 11  1  0  0  0  0
  9 29  1  0  0  0  0
  7  8  1  0  0  0  0
  7  9  1  0  0  0  0
 33 34  1  0  0  0  0
 33 35  1  0  0  0  0
 33 36  1  0  0  0  0
 31 32  1  0  0  0  0
 31 33  1  0  0  0  0
M  CHG  1  20   1
M  END
$$$$
default_name
  -OEChem-01062215323D

 36 35  0     1  0  0  0  0  0999 V2000
   -4.2256   -3.6731    1.8584 H   0  0  0  0  0  0  0  0  0  0  0  0
   -4.2396   -2.6781    1.4144 C   0  0  0  0  0  0  0  0  0  0  0  0
   -4.9506   -2.0521    1.9514 H   0  0  0  0  0  0  0  0  0  0  0  0
   -4.5266   -2.7521    0.3674 H   0  0  0  0  0  0  0  0  0  0  0  0
   -2.8576   -2.0761    1.5184 C   0  0  0  0  0  0  0  0  0  0  0  0
   -1.9456   -2.7051    2.0404 O   0  0  0  0  0  0  0  0  0  0  0  0
   -2.6926   -0.8481    1.0174 N   0  0  0  0  0  0  0  0  0  0  0  0
   -3.4926   -0.3971    0.5954 H   0  0  0  0  0  0  0  0  0  0  0  0
   -1.4216   -0.1071    1.0434 C   0  0  1  0  0  0  0  0  0  0  0  0
   -0.8606   -0.3546    0.1407 H   0  0  0  0  0  0  0  0  0  0  0  0
   -1.7365    1.4022    1.0338 C   0  0  0  0  0  0  0  0  0  0  0  0
   -2.4280    1.6190    1.8505 H   0  0  0  0  0  0  0  0  0  0  0  0
   -0.8148    1.9602    1.2128 H   0  0  0  0  0  0  0  0  0  0  0  0
   -2.3721    1.8857   -0.2778 C   0  0  0  0  0  0  0  0  0  0  0  0
   -1.6944    1.6906   -1.1101 H   0  0  0  0  0  0  0  0  0  0  0  0
   -3.3086    1.3521   -0.4430 H   0  0  0  0  0  0  0  0  0  0  0  0
   -2.6504    3.3930   -0.1990 C   0  0  0  0  0  0  0  0  0  0  0  0
   -3.3079    3.5820    0.6526 H   0  0  0  0  0  0  0  0  0  0  0  0
   -1.7037    3.9133   -0.0359 H   0  0  0  0  0  0  0  0  0  0  0  0
   -3.2854    3.8986   -1.4335 N   0  3  0  0  0  0  0  0  0  0  0  0
   -3.4162    3.2357   -2.1783 H   0  0  0  0  0  0  0  0  0  0  0  0
   -3.6968    5.1366   -1.6502 C   0  0  0  0  0  0  0  0  0  0  0  0
   -3.5753    6.0745   -0.7530 N   0  0  0  0  0  0  0  0  0  0  0  0
   -3.1567    5.8466    0.1314 H   0  0  0  0  0  0  0  0  0  0  0  0
   -3.8924    7.0092   -0.9337 H   0  0  0  0  0  0  0  0  0  0  0  0
   -4.2439    5.4607   -2.7873 N   0  0  0  0  0  0  0  0  0  0  0  0
   -4.3594    4.7715   -3.5102 H   0  0  0  0  0  0  0  0  0  0  0  0
   -4.5547    6.4010   -2.9475 H   0  0  0  0  0  0  0  0  0  0  0  0
   -0.5921   -0.5089    2.2648 C   0  0  0  0  0  0  0  0  0  0  0  0
    0.6310   -0.5000    2.1951 O   0  0  0  0  0  0  0  0  0  0  0  0
   -1.2610   -0.8922    3.3568 N   0  0  0  0  0  0  0  0  0  0  0  0
   -2.2660   -0.8332    3.3386 H   0  0  0  0  0  0  0  0  0  0  0  0
   -0.6205   -1.3047    4.6067 C   0  0  0  0  0  0  0  0  0  0  0  0
   -0.0673   -0.4650    5.0328 H   0  0  0  0  0  0  0  0  0  0  0  0
   -1.3698   -1.6383    5.3257 H   0  0  0  0  0  0  0  0  0  0  0  0
    0.0821   -2.1188    4.4155 H   0  0  0  0  0  0  0  0  0  0  0  0
  5  6  2  0  0  0  0
  5  7  1  0  0  0  0
  2  3  1  0  0  0  0
  2  4  1  0  0  0  0
  2  5  1  0  0  0  0
  1  2  1  0  0  0  0
 29 30  2  0  0  0  0
 29 31  1  0  0  0  0
 26 27  1  0  0  0  0
 26 28  1  0  0  0  0
 23 24  1  0  0  0  0
 23 25  1  0  0  0  0
 22 23  1  0  0  0  0
 22 26  1  0  0  0  0
 20 21  1  0  0  0  0
 20 22  2  0  0  0  0
 17 18  1  0  0  0  0
 17 19  1  0  0  0  0
 17 20  1  0  0  0  0
 14 15  1  0  0  0  0
 14 16  1  0  0  0  0
 14 17  1  0  0  0  0
 11 12  1  0  0  0  0
 11 13  1  0  0  0  0
 11 14  1  0  0  0  0
  9 10  1  0  0  0  0
  9 11  1  0  0  0  0
  9 29  1  0  0  0  0
  7  8  1  0  0  0  0
  7  9  1  0  0  0  0
 33 34  1  0  0  0  0
 33 35  1  0  0  0  0
 33 36  1  0  0  0  0
 31 32  1  0  0  0  0
 31 33  1  0  0  0  0
M  CHG  1  20   1
M  END
$$$$
default_name
  -OEChem-01062215323D

 36 35  0     1  0  0  0  0  0999 V2000
   -4.2256   -3.6731    1.8584 H   0  0  0  0  0  0  0  0  0  0  0  0
   -4.2396   -2.6781    1.4144 C   0  0  0  0  0  0  0  0  0  0  0  0
   -4.9506   -2.0521    1.9514 H   0  0  0  0  0  0  0  0  0  0  0  0
   -4.5266   -2.7521    0.3674 H   0  0  0  0  0  0  0  0  0  0  0  0
   -2.8576   -2.0761    1.5184 C   0  0  0  0  0  0  0  0  0  0  0  0
   -1.9456   -2.7051    2.0404 O   0  0  0  0  0  0  0  0  0  0  0  0
   -2.6926   -0.8481    1.0174 N   0  0  0  0  0  0  0  0  0  0  0  0
   -3.4926   -0.3971    0.5954 H   0  0  0  0  0  0  0  0  0  0  0  0
   -1.4216   -0.1071    1.0434 C   0  0  1  0  0  0  0  0  0  0  0  0
   -0.8606   -0.3546    0.1407 H   0  0  0  0  0  0  0  0  0  0  0  0
   -1.7365    1.4022    1.0338 C   0  0  0  0  0  0  0  0  0  0  0  0
   -2.4280    1.6190    1.8505 H   0  0  0  0  0  0  0  0  0  0  0  0
   -0.8148    1.9602    1.2128 H   0  0  0  0  0  0  0  0  0  0  0  0
   -2.3721    1.8857   -0.2778 C   0  0  0  0  0  0  0  0  0  0  0  0
   -1.6944    1.6906   -1.1101 H   0  0  0  0  0  0  0  0  0  0  0  0
   -3.3086    1.3521   -0.4430 H   0  0  0  0  0  0  0  0  0  0  0  0
   -2.6504    3.3930   -0.1990 C   0  0  0  0  0  0  0  0  0  0  0  0
   -3.3079    3.5820    0.6526 H   0  0  0  0  0  0  0  0  0  0  0  0
   -1.7037    3.9133   -0.0359 H   0  0  0  0  0  0  0  0  0  0  0  0
   -3.2854    3.8986   -1.4335 N   0  3  0  0  0  0  0  0  0  0  0  0
   -3.4162    3.2357   -2.1783 H   0  0  0  0  0  0  0  0  0  0  0  0
   -3.6968    5.1366   -1.6502 C   0  0  0  0  0  0  0  0  0  0  0  0
   -3.5753    6.0745   -0.7530 N   0  0  0  0  0  0  0  0  0  0  0  0
   -3.1567    5.8466    0.1314 H   0  0  0  0  0  0  0  0  0  0  0  0
   -3.8924    7.0092   -0.9337 H   0  0  0  0  0  0  0  0  0  0  0  0
   -4.2439    5.4607   -2.7873 N   0  0  0  0  0  0  0  0  0  0  0  0
   -4.3594    4.7715   -3.5102 H   0  0  0  0  0  0  0  0  0  0  0  0
   -4.5547    6.4010   -2.9475 H   0  0  0  0  0  0  0  0  0  0  0  0
   -0.5921   -0.5089    2.2648 C   0  0  0  0  0  0  0  0  0  0  0  0
    0.6034   -0.2432    2.2983 O   0  0  0  0  0  0  0  0  0  0  0  0
   -1.2220   -1.1760    3.2369 N   0  0  0  0  0  0  0  0  0  0  0  0
   -2.2143   -1.3190    3.1437 H   0  0  0  0  0  0  0  0  0  0  0  0
   -0.5761   -1.6305    4.4694 C   0  0  0  0  0  0  0  0  0  0  0  0
   -0.2365   -0.7687    5.0478 H   0  0  0  0  0  0  0  0  0  0  0  0
   -1.2752   -2.2107    5.0731 H   0  0  0  0  0  0  0  0  0  0  0  0
    0.2918   -2.2488    4.2303 H   0  0  0  0  0  0  0  0  0  0  0  0
  5  6  2  0  0  0  0
  5  7  1  0  0  0  0
  2  3  1  0  0  0  0
  2  4  1  0  0  0  0
  2  5  1  0  0  0  0
  1  2  1  0  0  0  0
 29 30  2  0  0  0  0
 29 31  1  0  0  0  0
 26 27  1  0  0  0  0
 26 28  1  0  0  0  0
 23 24  1  0  0  0  0
 23 25  1  0  0  0  0
 22 23  1  0  0  0  0
 22 26  1  0  0  0  0
 20 21  1  0  0  0  0
 20 22  2  0  0  0  0
 17 18  1  0  0  0  0
 17 19  1  0  0  0  0
 17 20  1  0  0  0  0
 14 15  1  0  0  0  0
 14 16  1  0  0  0  0
 14 17  1  0  0  0  0
 11 12  1  0  0  0  0
 11 13  1  0  0  0  0
 11 14  1  0  0  0  0
  9 10  1  0  0  0  0
  9 11  1  0  0  0  0
  9 29  1  0  0  0  0
  7  8  1  0  0  0  0
  7  9  1  0  0  0  0
 33 34  1  0  0  0  0
 33 35  1  0  0  0  0
 33 36  1  0  0  0  0
 31 32  1  0  0  0  0
 31 33  1  0  0  0  0
M  CHG  1  20   1
M  END
$$$$
default_name
  -OEChem-01062215323D

 36 35  0     1  0  0  0  0  0999 V2000
   -4.2256   -3.6731    1.8584 H   0  0  0  0  0  0  0  0  0  0  0  0
   -4.2396   -2.6781    1.4144 C   0  0  0  0  0  0  0  0  0  0  0  0
   -4.9506   -2.0521    1.9514 H   0  0  0  0  0  0  0  0  0  0  0  0
   -4.5266   -2.7521    0.3674 H   0  0  0  0  0  0  0  0  0  0  0  0
   -2.8576   -2.0761    1.5184 C   0  0  0  0  0  0  0  0  0  0  0  0
   -1.9456   -2.7051    2.0404 O   0  0  0  0  0  0  0  0  0  0  0  0
   -2.6926   -0.8481    1.0174 N   0  0  0  0  0  0  0  0  0  0  0  0
   -3.4926   -0.3971    0.5954 H   0  0  0  0  0  0  0  0  0  0  0  0
   -1.4216   -0.1071    1.0434 C   0  0  1  0  0  0  0  0  0  0  0  0
   -0.8606   -0.3546    0.1407 H   0  0  0  0  0  0  0  0  0  0  0  0
   -1.7365    1.4022    1.0338 C   0  0  0  0  0  0  0  0  0  0  0  0
   -2.4280    1.6190    1.8505 H   0  0  0  0  0  0  0  0  0  0  0  0
   -0.8148    1.9602    1.2128 H   0  0  0  0  0  0  0  0  0  0  0  0
   -2.3721    1.8857   -0.2778 C   0  0  0  0  0  0  0  0  0  0  0  0
   -1.6944    1.6906   -1.1101 H   0  0  0  0  0  0  0  0  0  0  0  0
   -3.3086    1.3521   -0.4430 H   0  0  0  0  0  0  0  0  0  0  0  0
   -2.6504    3.3930   -0.1990 C   0  0  0  0  0  0  0  0  0  0  0  0
   -3.3079    3.5820    0.6526 H   0  0  0  0  0  0  0  0  0  0  0  0
   -1.7037    3.9133   -0.0359 H   0  0  0  0  0  0  0  0  0  0  0  0
   -3.2854    3.8986   -1.4335 N   0  3  0  0  0  0  0  0  0  0  0  0
   -3.4162    3.2357   -2.1783 H   0  0  0  0  0  0  0  0  0  0  0  0
   -3.6968    5.1366   -1.6502 C   0  0  0  0  0  0  0  0  0  0  0  0
   -3.5753    6.0745   -0.7530 N   0  0  0  0  0  0  0  0  0  0  0  0
   -3.1567    5.8466    0.1314 H   0  0  0  0  0  0  0  0  0  0  0  0
   -3.8924    7.0092   -0.9337 H   0  0  0  0  0  0  0  0  0  0  0  0
   -4.2439    5.4607   -2.7873 N   0  0  0  0  0  0  0  0  0  0  0  0
   -4.3594    4.7715   -3.5102 H   0  0  0  0  0  0  0  0  0  0  0  0
   -4.5547    6.4010   -2.9475 H   0  0  0  0  0  0  0  0  0  0  0  0
   -0.5921   -0.5089    2.2648 C   0  0  0  0  0  0  0  0  0  0  0  0
    0.5167   -0.0154    2.4322 O   0  0  0  0  0  0  0  0  0  0  0  0
   -1.1175   -1.4253    3.0840 N   0  0  0  0  0  0  0  0  0  0  0  0
   -2.0508   -1.7501    2.8908 H   0  0  0  0  0  0  0  0  0  0  0  0
   -0.4567   -1.9168    4.2942 C   0  0  0  0  0  0  0  0  0  0  0  0
   -0.3382   -1.0990    5.0083 H   0  0  0  0  0  0  0  0  0  0  0  0
   -1.0484   -2.7086    4.7553 H   0  0  0  0  0  0  0  0  0  0  0  0
    0.5338   -2.3051    4.0474 H   0  0  0  0  0  0  0  0  0  0  0  0
  5  6  2  0  0  0  0
  5  7  1  0  0  0  0
  2  3  1  0  0  0  0
  2  4  1  0  0  0  0
  2  5  1  0  0  0  0
  1  2  1  0  0  0  0
 29 30  2  0  0  0  0
 29 31  1  0  0  0  0
 26 27  1  0  0  0  0
 26 28  1  0  0  0  0
 23 24  1  0  0  0  0
 23 25  1  0  0  0  0
 22 23  1  0  0  0  0
 22 26  1  0  0  0  0
 20 21  1  0  0  0  0
 20 22  2  0  0  0  0
 17 18  1  0  0  0  0
 17 19  1  0  0  0  0
 17 20  1  0  0  0  0
 14 15  1  0  0  0  0
 14 16  1  0  0  0  0
 14 17  1  0  0  0  0
 11 12  1  0  0  0  0
 11 13  1  0  0  0  0
 11 14  1  0  0  0  0
  9 10  1  0  0  0  0
  9 11  1  0  0  0  0
  9 29  1  0  0  0  0
  7  8  1  0  0  0  0
  7  9  1  0  0  0  0
 33 34  1  0  0  0  0
 33 35  1  0  0  0  0
 33 36  1  0  0  0  0
 31 32  1  0  0  0  0
 31 33  1  0  0  0  0
M  CHG  1  20   1
M  END
$$$$
default_name
  -OEChem-01062215323D

 36 35  0     1  0  0  0  0  0999 V2000
   -4.2256   -3.6731    1.8584 H   0  0  0  0  0  0  0  0  0  0  0  0
   -4.2396   -2.6781    1.4144 C   0  0  0  0  0  0  0  0  0  0  0  0
   -4.9506   -2.0521    1.9514 H   0  0  0  0  0  0  0  0  0  0  0  0
   -4.5266   -2.7521    0.3674 H   0  0  0  0  0  0  0  0  0  0  0  0
   -2.8576   -2.0761    1.5184 C   0  0  0  0  0  0  0  0  0  0  0  0
   -1.9456   -2.7051    2.0404 O   0  0  0  0  0  0  0  0  0  0  0  0
   -2.6926   -0.8481    1.0174 N   0  0  0  0  0  0  0  0  0  0  0  0
   -3.4926   -0.3971    0.5954 H   0  0  0  0  0  0  0  0  0  0  0  0
   -1.4216   -0.1071    1.0434 C   0  0  1  0  0  0  0  0  0  0  0  0
   -0.8606   -0.3546    0.1407 H   0  0  0  0  0  0  0  0  0  0  0  0
   -1.7365    1.4022    1.0338 C   0  0  0  0  0  0  0  0  0  0  0  0
   -2.4280    1.6190    1.8505 H   0  0  0  0  0  0  0  0  0  0  0  0
   -0.8148    1.9602    1.2128 H   0  0  0  0  0  0  0  0  0  0  0  0
   -2.3721    1.8857   -0.2778 C   0  0  0  0  0  0  0  0  0  0  0  0
   -1.6944    1.6906   -1.1101 H   0  0  0  0  0  0  0  0  0  0  0  0
   -3.3086    1.3521   -0.4430 H   0  0  0  0  0  0  0  0  0  0  0  0
   -2.6504    3.3930   -0.1990 C   0  0  0  0  0  0  0  0  0  0  0  0
   -3.3079    3.5820    0.6526 H   0  0  0  0  0  0  0  0  0  0  0  0
   -1.7037    3.9133   -0.0359 H   0  0  0  0  0  0  0  0  0  0  0  0
   -3.2854    3.8986   -1.4335 N   0  3  0  0  0  0  0  0  0  0  0  0
   -3.4162    3.2357   -2.1783 H   0  0  0  0  0  0  0  0  0  0  0  0
   -3.6968    5.1366   -1.6502 C   0  0  0  0  0  0  0  0  0  0  0  0
   -3.5753    6.0745   -0.7530 N   0  0  0  0  0  0  0  0  0  0  0  0
   -3.1567    5.8466    0.1314 H   0  0  0  0  0  0  0  0  0  0  0  0
   -3.8924    7.0092   -0.9337 H   0  0  0  0  0  0  0  0  0  0  0  0
   -4.2439    5.4607   -2.7873 N   0  0  0  0  0  0  0  0  0  0  0  0
   -4.3594    4.7715   -3.5102 H   0  0  0  0  0  0  0  0  0  0  0  0
   -4.5547    6.4010   -2.9475 H   0  0  0  0  0  0  0  0  0  0  0  0
   -0.5921   -0.5089    2.2648 C   0  0  0  0  0  0  0  0  0  0  0  0
    0.3768    0.1680    2.5875 O   0  0  0  0  0  0  0  0  0  0  0  0
   -0.9547   -1.6230    2.9084 N   0  0  0  0  0  0  0  0  0  0  0  0
   -1.7866   -2.0973    2.5971 H   0  0  0  0  0  0  0  0  0  0  0  0
   -0.2703   -2.1440    4.0928 C   0  0  0  0  0  0  0  0  0  0  0  0
   -0.3656   -1.4336    4.9168 H   0  0  0  0  0  0  0  0  0  0  0  0
   -0.7048   -3.0981    4.3939 H   0  0  0  0  0  0  0  0  0  0  0  0
    0.7917   -2.2838    3.8793 H   0  0  0  0  0  0  0  0  0  0  0  0
  5  6  2  0  0  0  0
  5  7  1  0  0  0  0
  2  3  1  0  0  0  0
  2  4  1  0  0  0  0
  2  5  1  0  0  0  0
  1  2  1  0  0  0  0
 29 30  2  0  0  0  0
 29 31  1  0  0  0  0
 26 27  1  0  0  0  0
 26 28  1  0  0  0  0
 23 24  1  0  0  0  0
 23 25  1  0  0  0  0
 22 23  1  0  0  0  0
 22 26  1  0  0  0  0
 20 21  1  0  0  0  0
 20 22  2  0  0  0  0
 17 18  1  0  0  0  0
 17 19  1  0  0  0  0
 17 20  1  0  0  0  0
 14 15  1  0  0  0  0
 14 16  1  0  0  0  0
 14 17  1  0  0  0  0
 11 12  1  0  0  0  0
 11 13  1  0  0  0  0
 11 14  1  0  0  0  0
  9 10  1  0  0  0  0
  9 11  1  0  0  0  0
  9 29  1  0  0  0  0
  7  8  1  0  0  0  0
  7  9  1  0  0  0  0
 33 34  1  0  0  0  0
 33 35  1  0  0  0  0
 33 36  1  0  0  0  0
 31 32  1  0  0  0  0
 31 33  1  0  0  0  0
M  CHG  1  20   1
M  END
$$$$
default_name
  -OEChem-01062215323D

 36 35  0     1  0  0  0  0  0999 V2000
   -4.2256   -3.6731    1.8584 H   0  0  0  0  0  0  0  0  0  0  0  0
   -4.2396   -2.6781    1.4144 C   0  0  0  0  0  0  0  0  0  0  0  0
   -4.9506   -2.0521    1.9514 H   0  0  0  0  0  0  0  0  0  0  0  0
   -4.5266   -2.7521    0.3674 H   0  0  0  0  0  0  0  0  0  0  0  0
   -2.8576   -2.0761    1.5184 C   0  0  0  0  0  0  0  0  0  0  0  0
   -1.9456   -2.7051    2.0404 O   0  0  0  0  0  0  0  0  0  0  0  0
   -2.6926   -0.8481    1.0174 N   0  0  0  0  0  0  0  0  0  0  0  0
   -3.4926   -0.3971    0.5954 H   0  0  0  0  0  0  0  0  0  0  0  0
   -1.4216   -0.1071    1.0434 C   0  0  1  0  0  0  0  0  0  0  0  0
   -0.8606   -0.3546    0.1407 H   0  0  0  0  0  0  0  0  0  0  0  0
   -1.7365    1.4022    1.0338 C   0  0  0  0  0  0  0  0  0  0  0  0
   -2.4280    1.6190    1.8505 H   0  0  0  0  0  0  0  0  0  0  0  0
   -0.8148    1.9602    1.2128 H   0  0  0  0  0  0  0  0  0  0  0  0
   -2.3721    1.8857   -0.2778 C   0  0  0  0  0  0  0  0  0  0  0  0
   -1.6944    1.6906   -1.1101 H   0  0  0  0  0  0  0  0  0  0  0  0
   -3.3086    1.3521   -0.4430 H   0  0  0  0  0  0  0  0  0  0  0  0
   -2.6504    3.3930   -0.1990 C   0  0  0  0  0  0  0  0  0  0  0  0
   -3.3079    3.5820    0.6526 H   0  0  0  0  0  0  0  0  0  0  0  0
   -1.7037    3.9133   -0.0359 H   0  0  0  0  0  0  0  0  0  0  0  0
   -3.2854    3.8986   -1.4335 N   0  3  0  0  0  0  0  0  0  0  0  0
   -3.4162    3.2357   -2.1783 H   0  0  0  0  0  0  0  0  0  0  0  0
   -3.6968    5.1366   -1.6502 C   0  0  0  0  0  0  0  0  0  0  0  0
   -3.5753    6.0745   -0.7530 N   0  0  0  0  0  0  0  0  0  0  0  0
   -3.1567    5.8466    0.1314 H   0  0  0  0  0  0  0  0  0  0  0  0
   -3.8924    7.0092   -0.9337 H   0  0  0  0  0  0  0  0  0  0  0  0
   -4.2439    5.4607   -2.7873 N   0  0  0  0  0  0  0  0  0  0  0  0
   -4.3594    4.7715   -3.5102 H   0  0  0  0  0  0  0  0  0  0  0  0
   -4.5547    6.4010   -2.9475 H   0  0  0  0  0  0  0  0  0  0  0  0
   -0.5921   -0.5089    2.2648 C   0  0  0  0  0  0  0  0  0  0  0  0
    0.1932    0.2944    2.7538 O   0  0  0  0  0  0  0  0  0  0  0  0
   -0.7447   -1.7557    2.7221 N   0  0  0  0  0  0  0  0  0  0  0  0
   -1.4396   -2.3369    2.2827 H   0  0  0  0  0  0  0  0  0  0  0  0
   -0.0296   -2.2967    3.8791 C   0  0  0  0  0  0  0  0  0  0  0  0
   -0.3166   -1.7496    4.7796 H   0  0  0  0  0  0  0  0  0  0  0  0
   -0.2679   -3.3526    4.0135 H   0  0  0  0  0  0  0  0  0  0  0  0
    1.0478   -2.1864    3.7375 H   0  0  0  0  0  0  0  0  0  0  0  0
  5  6  2  0  0  0  0
  5  7  1  0  0  0  0
  2  3  1  0  0  0  0
  2  4  1  0  0  0  0
  2  5  1  0  0  0  0
  1  2  1  0  0  0  0
 29 30  2  0  0  0  0
 29 31  1  0  0  0  0
 26 27  1  0  0  0  0
 26 28  1  0  0  0  0
 23 24  1  0  0  0  0
 23 25  1  0  0  0  0
 22 23  1  0  0  0  0
 22 26  1  0  0  0  0
 20 21  1  0  0  0  0
 20 22  2  0  0  0  0
 17 18  1  0  0  0  0
 17 19  1  0  0  0  0
 17 20  1  0  0  0  0
 14 15  1  0  0  0  0
 14 16  1  0  0  0  0
 14 17  1  0  0  0  0
 11 12  1  0  0  0  0
 11 13  1  0  0  0  0
 11 14  1  0  0  0  0
  9 10  1  0  0  0  0
  9 11  1  0  0  0  0
  9 29  1  0  0  0  0
  7  8  1  0  0  0  0
  7  9  1  0  0  0  0
 33 34  1  0  0  0  0
 33 35  1  0  0  0  0
 33 36  1  0  0  0  0
 31 32  1  0  0  0  0
 31 33  1  0  0  0  0
M  CHG  1  20   1
M  END
$$$$
default_name
  -OEChem-01062215323D

 36 35  0     1  0  0  0  0  0999 V2000
   -4.2256   -3.6731    1.8584 H   0  0  0  0  0  0  0  0  0  0  0  0
   -4.2396   -2.6781    1.4144 C   0  0  0  0  0  0  0  0  0  0  0  0
   -4.9506   -2.0521    1.9514 H   0  0  0  0  0  0  0  0  0  0  0  0
   -4.5266   -2.7521    0.3674 H   0  0  0  0  0  0  0  0  0  0  0  0
   -2.8576   -2.0761    1.5184 C   0  0  0  0  0  0  0  0  0  0  0  0
   -1.9456   -2.7051    2.0404 O   0  0  0  0  0  0  0  0  0  0  0  0
   -2.6926   -0.8481    1.0174 N   0  0  0  0  0  0  0  0  0  0  0  0
   -3.4926   -0.3971    0.5954 H   0  0  0  0  0  0  0  0  0  0  0  0
   -1.4216   -0.1071    1.0434 C   0  0  1  0  0  0  0  0  0  0  0  0
   -0.8606   -0.3546    0.1407 H   0  0  0  0  0  0  0  0  0  0  0  0
   -1.7365    1.4022    1.0338 C   0  0  0  0  0  0  0  0  0  0  0  0
   -2.4280    1.6190    1.8505 H   0  0  0  0  0  0  0  0  0  0  0  0
   -0.8148    1.9602    1.2128 H   0  0  0  0  0  0  0  0  0  0  0  0
   -2.3721    1.8857   -0.2778 C   0  0  0  0  0  0  0  0  0  0  0  0
   -1.6944    1.6906   -1.1101 H   0  0  0  0  0  0  0  0  0  0  0  0
   -3.3086    1.3521   -0.4430 H   0  0  0  0  0  0  0  0  0  0  0  0
   -2.6504    3.3930   -0.1990 C   0  0  0  0  0  0  0  0  0  0  0  0
   -3.3079    3.5820    0.6526 H   0  0  0  0  0  0  0  0  0  0  0  0
   -1.7037    3.9133   -0.0359 H   0  0  0  0  0  0  0  0  0  0  0  0
   -3.2854    3.8986   -1.4335 N   0  3  0  0  0  0  0  0  0  0  0  0
   -3.4162    3.2357   -2.1783 H   0  0  0  0  0  0  0  0  0  0  0  0
   -3.6968    5.1366   -1.6502 C   0  0  0  0  0  0  0  0  0  0  0  0
   -3.5753    6.0745   -0.7530 N   0  0  0  0  0  0  0  0  0  0  0  0
   -3.1567    5.8466    0.1314 H   0  0  0  0  0  0  0  0  0  0  0  0
   -3.8924    7.0092   -0.9337 H   0  0  0  0  0  0  0  0  0  0  0  0
   -4.2439    5.4607   -2.7873 N   0  0  0  0  0  0  0  0  0  0  0  0
   -4.3594    4.7715   -3.5102 H   0  0  0  0  0  0  0  0  0  0  0  0
   -4.5547    6.4010   -2.9475 H   0  0  0  0  0  0  0  0  0  0  0  0
   -0.5921   -0.5089    2.2648 C   0  0  0  0  0  0  0  0  0  0  0  0
   -0.0216    0.3552    2.9197 O   0  0  0  0  0  0  0  0  0  0  0  0
   -0.5017   -1.8143    2.5378 N   0  0  0  0  0  0  0  0  0  0  0  0
   -1.0337   -2.4525    1.9690 H   0  0  0  0  0  0  0  0  0  0  0  0
    0.2490   -2.3645    3.6676 C   0  0  0  0  0  0  0  0  0  0  0  0
   -0.1948   -2.0254    4.6061 H   0  0  0  0  0  0  0  0  0  0  0  0
    0.2325   -3.4548    3.6400 H   0  0  0  0  0  0  0  0  0  0  0  0
    1.2846   -2.0194    3.6315 H   0  0  0  0  0  0  0  0  0  0  0  0
  5  6  2  0  0  0  0
  5  7  1  0  0  0  0
  2  3  1  0  0  0  0
  2  4  1  0  0  0  0
  2  5  1  0  0  0  0
  1  2  1  0  0  0  0
 29 30  2  0  0  0  0
 29 31  1  0  0  0  0
 26 27  1  0  0  0  0
 26 28  1  0  0  0  0
 23 24  1  0  0  0  0
 23 25  1  0  0  0  0
 22 23  1  0  0  0  0
 22 26  1  0  0  0  0
 20 21  1  0  0  0  0
 20 22  2  0  0  0  0
 17 18  1  0  0  0  0
 17 19  1  0  0  0  0
 17 20  1  0  0  0  0
 14 15  1  0  0  0  0
 14 16  1  0  0  0  0
 14 17  1  0  0  0  0
 11 12  1  0  0  0  0
 11 13  1  0  0  0  0
 11 14  1  0  0  0  0
  9 10  1  0  0  0  0
  9 11  1  0  0  0  0
  9 29  1  0  0  0  0
  7  8  1  0  0  0  0
  7  9  1  0  0  0  0
 33 34  1  0  0  0  0
 33 35  1  0  0  0  0
 33 36  1  0  0  0  0
 31 32  1  0  0  0  0
 31 33  1  0  0  0  0
M  CHG  1  20   1
M  END
$$$$
default_name
  -OEChem-01062215323D

 36 35  0     1  0  0  0  0  0999 V2000
   -4.2256   -3.6731    1.8584 H   0  0  0  0  0  0  0  0  0  0  0  0
   -4.2396   -2.6781    1.4144 C   0  0  0  0  0  0  0  0  0  0  0  0
   -4.9506   -2.0521    1.9514 H   0  0  0  0  0  0  0  0  0  0  0  0
   -4.5266   -2.7521    0.3674 H   0  0  0  0  0  0  0  0  0  0  0  0
   -2.8576   -2.0761    1.5184 C   0  0  0  0  0  0  0  0  0  0  0  0
   -1.9456   -2.7051    2.0404 O   0  0  0  0  0  0  0  0  0  0  0  0
   -2.6926   -0.8481    1.0174 N   0  0  0  0  0  0  0  0  0  0  0  0
   -3.4926   -0.3971    0.5954 H   0  0  0  0  0  0  0  0  0  0  0  0
   -1.4216   -0.1071    1.0434 C   0  0  1  0  0  0  0  0  0  0  0  0
   -0.8606   -0.3546    0.1407 H   0  0  0  0  0  0  0  0  0  0  0  0
   -1.7365    1.4022    1.0338 C   0  0  0  0  0  0  0  0  0  0  0  0
   -2.4280    1.6190    1.8505 H   0  0  0  0  0  0  0  0  0  0  0  0
   -0.8148    1.9602    1.2128 H   0  0  0  0  0  0  0  0  0  0  0  0
   -2.3721    1.8857   -0.2778 C   0  0  0  0  0  0  0  0  0  0  0  0
   -1.6944    1.6906   -1.1101 H   0  0  0  0  0  0  0  0  0  0  0  0
   -3.3086    1.3521   -0.4430 H   0  0  0  0  0  0  0  0  0  0  0  0
   -2.6504    3.3930   -0.1990 C   0  0  0  0  0  0  0  0  0  0  0  0
   -3.3079    3.5820    0.6526 H   0  0  0  0  0  0  0  0  0  0  0  0
   -1.7037    3.9133   -0.0359 H   0  0  0  0  0  0  0  0  0  0  0  0
   -3.2854    3.8986   -1.4335 N   0  3  0  0  0  0  0  0  0  0  0  0
   -3.4162    3.2357   -2.1783 H   0  0  0  0  0  0  0  0  0  0  0  0
   -3.6968    5.1366   -1.6502 C   0  0  0  0  0  0  0  0  0  0  0  0
   -3.5753    6.0745   -0.7530 N   0  0  0  0  0  0  0  0  0  0  0  0
   -3.1567    5.8466    0.1314 H   0  0  0  0  0  0  0  0  0  0  0  0
   -3.8924    7.0092   -0.9337 H   0  0  0  0  0  0  0  0  0  0  0  0
   -4.2439    5.4607   -2.7873 N   0  0  0  0  0  0  0  0  0  0  0  0
   -4.3594    4.7715   -3.5102 H   0  0  0  0  0  0  0  0  0  0  0  0
   -4.5547    6.4010   -2.9475 H   0  0  0  0  0  0  0  0  0  0  0  0
   -0.5921   -0.5089    2.2648 C   0  0  0  0  0  0  0  0  0  0  0  0
   -0.2529    0.3464    3.0738 O   0  0  0  0  0  0  0  0  0  0  0  0
   -0.2424   -1.7949    2.3681 N   0  0  0  0  0  0  0  0  0  0  0  0
   -0.5963   -2.4363    1.6773 H   0  0  0  0  0  0  0  0  0  0  0  0
    0.5465   -2.3428    3.4727 C   0  0  0  0  0  0  0  0  0  0  0  0
   -0.0083   -2.2423    4.4081 H   0  0  0  0  0  0  0  0  0  0  0  0
    0.7624   -3.3977    3.2989 H   0  0  0  0  0  0  0  0  0  0  0  0
    1.4861   -1.7944    3.5687 H   0  0  0  0  0  0  0  0  0  0  0  0
  5  6  2  0  0  0  0
  5  7  1  0  0  0  0
  2  3  1  0  0  0  0
  2  4  1  0  0  0  0
  2  5  1  0  0  0  0
  1  2  1  0  0  0  0
 29 30  2  0  0  0  0
 29 31  1  0  0  0  0
 26 27  1  0  0  0  0
 26 28  1  0  0  0  0
 23 24  1  0  0  0  0
 23 25  1  0  0  0  0
 22 23  1  0  0  0  0
 22 26  1  0  0  0  0
 20 21  1  0  0  0  0
 20 22  2  0  0  0  0
 17 18  1  0  0  0  0
 17 19  1  0  0  0  0
 17 20  1  0  0  0  0
 14 15  1  0  0  0  0
 14 16  1  0  0  0  0
 14 17  1  0  0  0  0
 11 12  1  0  0  0  0
 11 13  1  0  0  0  0
 11 14  1  0  0  0  0
  9 10  1  0  0  0  0
  9 11  1  0  0  0  0
  9 29  1  0  0  0  0
  7  8  1  0  0  0  0
  7  9  1  0  0  0  0
 33 34  1  0  0  0  0
 33 35  1  0  0  0  0
 33 36  1  0  0  0  0
 31 32  1  0  0  0  0
 31 33  1  0  0  0  0
M  CHG  1  20   1
M  END
$$$$
default_name
  -OEChem-01062215323D

 36 35  0     1  0  0  0  0  0999 V2000
   -4.2256   -3.6731    1.8584 H   0  0  0  0  0  0  0  0  0  0  0  0
   -4.2396   -2.6781    1.4144 C   0  0  0  0  0  0  0  0  0  0  0  0
   -4.9506   -2.0521    1.9514 H   0  0  0  0  0  0  0  0  0  0  0  0
   -4.5266   -2.7521    0.3674 H   0  0  0  0  0  0  0  0  0  0  0  0
   -2.8576   -2.0761    1.5184 C   0  0  0  0  0  0  0  0  0  0  0  0
   -1.9456   -2.7051    2.0404 O   0  0  0  0  0  0  0  0  0  0  0  0
   -2.6926   -0.8481    1.0174 N   0  0  0  0  0  0  0  0  0  0  0  0
   -3.4926   -0.3971    0.5954 H   0  0  0  0  0  0  0  0  0  0  0  0
   -1.4216   -0.1071    1.0434 C   0  0  1  0  0  0  0  0  0  0  0  0
   -0.8606   -0.3546    0.1407 H   0  0  0  0  0  0  0  0  0  0  0  0
   -1.7365    1.4022    1.0338 C   0  0  0  0  0  0  0  0  0  0  0  0
   -2.4280    1.6190    1.8505 H   0  0  0  0  0  0  0  0  0  0  0  0
   -0.8148    1.9602    1.2128 H   0  0  0  0  0  0  0  0  0  0  0  0
   -2.3721    1.8857   -0.2778 C   0  0  0  0  0  0  0  0  0  0  0  0
   -1.6944    1.6906   -1.1101 H   0  0  0  0  0  0  0  0  0  0  0  0
   -3.3086    1.3521   -0.4430 H   0  0  0  0  0  0  0  0  0  0  0  0
   -2.6504    3.3930   -0.1990 C   0  0  0  0  0  0  0  0  0  0  0  0
   -3.3079    3.5820    0.6526 H   0  0  0  0  0  0  0  0  0  0  0  0
   -1.7037    3.9133   -0.0359 H   0  0  0  0  0  0  0  0  0  0  0  0
   -3.2854    3.8986   -1.4335 N   0  3  0  0  0  0  0  0  0  0  0  0
   -3.4162    3.2357   -2.1783 H   0  0  0  0  0  0  0  0  0  0  0  0
   -3.6968    5.1366   -1.6502 C   0  0  0  0  0  0  0  0  0  0  0  0
   -3.5753    6.0745   -0.7530 N   0  0  0  0  0  0  0  0  0  0  0  0
   -3.1567    5.8466    0.1314 H   0  0  0  0  0  0  0  0  0  0  0  0
   -3.8924    7.0092   -0.9337 H   0  0  0  0  0  0  0  0  0  0  0  0
   -4.2439    5.4607   -2.7873 N   0  0  0  0  0  0  0  0  0  0  0  0
   -4.3594    4.7715   -3.5102 H   0  0  0  0  0  0  0  0  0  0  0  0
   -4.5547    6.4010   -2.9475 H   0  0  0  0  0  0  0  0  0  0  0  0
   -0.5921   -0.5089    2.2648 C   0  0  0  0  0  0  0  0  0  0  0  0
   -0.4850    0.2684    3.2058 O   0  0  0  0  0  0  0  0  0  0  0  0
    0.0156   -1.6988    2.2245 N   0  0  0  0  0  0  0  0  0  0  0  0
   -0.1574   -2.2894    1.4276 H   0  0  0  0  0  0  0  0  0  0  0  0
    0.8426   -2.2330    3.3078 C   0  0  0  0  0  0  0  0  0  0  0  0
    0.2302   -2.3856    4.1990 H   0  0  0  0  0  0  0  0  0  0  0  0
    1.2856   -3.1853    3.0135 H   0  0  0  0  0  0  0  0  0  0  0  0
    1.6385   -1.5266    3.5533 H   0  0  0  0  0  0  0  0  0  0  0  0
  5  6  2  0  0  0  0
  5  7  1  0  0  0  0
  2  3  1  0  0  0  0
  2  4  1  0  0  0  0
  2  5  1  0  0  0  0
  1  2  1  0  0  0  0
 29 30  2  0  0  0  0
 29 31  1  0  0  0  0
 26 27  1  0  0  0  0
 26 28  1  0  0  0  0
 23 24  1  0  0  0  0
 23 25  1  0  0  0  0
 22 23  1  0  0  0  0
 22 26  1  0  0  0  0
 20 21  1  0  0  0  0
 20 22  2  0  0  0  0
 17 18  1  0  0  0  0
 17 19  1  0  0  0  0
 17 20  1  0  0  0  0
 14 15  1  0  0  0  0
 14 16  1  0  0  0  0
 14 17  1  0  0  0  0
 11 12  1  0  0  0  0
 11 13  1  0  0  0  0
 11 14  1  0  0  0  0
  9 10  1  0  0  0  0
  9 11  1  0  0  0  0
  9 29  1  0  0  0  0
  7  8  1  0  0  0  0
  7  9  1  0  0  0  0
 33 34  1  0  0  0  0
 33 35  1  0  0  0  0
 33 36  1  0  0  0  0
 31 32  1  0  0  0  0
 31 33  1  0  0  0  0
M  CHG  1  20   1
M  END
$$$$
default_name
  -OEChem-01062215323D

 36 35  0     1  0  0  0  0  0999 V2000
   -4.2256   -3.6731    1.8584 H   0  0  0  0  0  0  0  0  0  0  0  0
   -4.2396   -2.6781    1.4144 C   0  0  0  0  0  0  0  0  0  0  0  0
   -4.9506   -2.0521    1.9514 H   0  0  0  0  0  0  0  0  0  0  0  0
   -4.5266   -2.7521    0.3674 H   0  0  0  0  0  0  0  0  0  0  0  0
   -2.8576   -2.0761    1.5184 C   0  0  0  0  0  0  0  0  0  0  0  0
   -1.9456   -2.7051    2.0404 O   0  0  0  0  0  0  0  0  0  0  0  0
   -2.6926   -0.8481    1.0174 N   0  0  0  0  0  0  0  0  0  0  0  0
   -3.4926   -0.3971    0.5954 H   0  0  0  0  0  0  0  0  0  0  0  0
   -1.4216   -0.1071    1.0434 C   0  0  1  0  0  0  0  0  0  0  0  0
   -0.8606   -0.3546    0.1407 H   0  0  0  0  0  0  0  0  0  0  0  0
   -1.7365    1.4022    1.0338 C   0  0  0  0  0  0  0  0  0  0  0  0
   -2.4280    1.6190    1.8505 H   0  0  0  0  0  0  0  0  0  0  0  0
   -0.8148    1.9602    1.2128 H   0  0  0  0  0  0  0  0  0  0  0  0
   -2.3721    1.8857   -0.2778 C   0  0  0  0  0  0  0  0  0  0  0  0
   -1.6944    1.6906   -1.1101 H   0  0  0  0  0  0  0  0  0  0  0  0
   -3.3086    1.3521   -0.4430 H   0  0  0  0  0  0  0  0  0  0  0  0
   -2.6504    3.3930   -0.1990 C   0  0  0  0  0  0  0  0  0  0  0  0
   -3.3079    3.5820    0.6526 H   0  0  0  0  0  0  0  0  0  0  0  0
   -1.7037    3.9133   -0.0359 H   0  0  0  0  0  0  0  0  0  0  0  0
   -3.2854    3.8986   -1.4335 N   0  3  0  0  0  0  0  0  0  0  0  0
   -3.4162    3.2357   -2.1783 H   0  0  0  0  0  0  0  0  0  0  0  0
   -3.6968    5.1366   -1.6502 C   0  0  0  0  0  0  0  0  0  0  0  0
   -3.5753    6.0745   -0.7530 N   0  0  0  0  0  0  0  0  0  0  0  0
   -3.1567    5.8466    0.1314 H   0  0  0  0  0  0  0  0  0  0  0  0
   -3.8924    7.0092   -0.9337 H   0  0  0  0  0  0  0  0  0  0  0  0
   -4.2439    5.4607   -2.7873 N   0  0  0  0  0  0  0  0  0  0  0  0
   -4.3594    4.7715   -3.5102 H   0  0  0  0  0  0  0  0  0  0  0  0
   -4.5547    6.4010   -2.9475 H   0  0  0  0  0  0  0  0  0  0  0  0
   -0.5921   -0.5089    2.2648 C   0  0  0  0  0  0  0  0  0  0  0  0
   -0.7020    0.1266    3.3065 O   0  0  0  0  0  0  0  0  0  0  0  0
    0.2548   -1.5325    2.1168 N   0  0  0  0  0  0  0  0  0  0  0  0
    0.2532   -2.0218    1.2368 H   0  0  0  0  0  0  0  0  0  0  0  0
    1.1171   -2.0426    3.1840 C   0  0  0  0  0  0  0  0  0  0  0  0
    0.5042   -2.4453    3.9932 H   0  0  0  0  0  0  0  0  0  0  0  0
    1.7665   -2.8320    2.8032 H   0  0  0  0  0  0  0  0  0  0  0  0
    1.7315   -1.2342    3.5864 H   0  0  0  0  0  0  0  0  0  0  0  0
  5  6  2  0  0  0  0
  5  7  1  0  0  0  0
  2  3  1  0  0  0  0
  2  4  1  0  0  0  0
  2  5  1  0  0  0  0
  1  2  1  0  0  0  0
 29 30  2  0  0  0  0
 29 31  1  0  0  0  0
 26 27  1  0  0  0  0
 26 28  1  0  0  0  0
 23 24  1  0  0  0  0
 23 25  1  0  0  0  0
 22 23  1  0  0  0  0
 22 26  1  0  0  0  0
 20 21  1  0  0  0  0
 20 22  2  0  0  0  0
 17 18  1  0  0  0  0
 17 19  1  0  0  0  0
 17 20  1  0  0  0  0
 14 15  1  0  0  0  0
 14 16  1  0  0  0  0
 14 17  1  0  0  0  0
 11 12  1  0  0  0  0
 11 13  1  0  0  0  0
 11 14  1  0  0  0  0
  9 10  1  0  0  0  0
  9 11  1  0  0  0  0
  9 29  1  0  0  0  0
  7  8  1  0  0  0  0
  7  9  1  0  0  0  0
 33 34  1  0  0  0  0
 33 35  1  0  0  0  0
 33 36  1  0  0  0  0
 31 32  1  0  0  0  0
 31 33  1  0  0  0  0
M  CHG  1  20   1
M  END
$$$$
default_name
  -OEChem-01062215323D

 36 35  0     1  0  0  0  0  0999 V2000
   -4.2256   -3.6731    1.8584 H   0  0  0  0  0  0  0  0  0  0  0  0
   -4.2396   -2.6781    1.4144 C   0  0  0  0  0  0  0  0  0  0  0  0
   -4.9506   -2.0521    1.9514 H   0  0  0  0  0  0  0  0  0  0  0  0
   -4.5266   -2.7521    0.3674 H   0  0  0  0  0  0  0  0  0  0  0  0
   -2.8576   -2.0761    1.5184 C   0  0  0  0  0  0  0  0  0  0  0  0
   -1.9456   -2.7051    2.0404 O   0  0  0  0  0  0  0  0  0  0  0  0
   -2.6926   -0.8481    1.0174 N   0  0  0  0  0  0  0  0  0  0  0  0
   -3.4926   -0.3971    0.5954 H   0  0  0  0  0  0  0  0  0  0  0  0
   -1.4216   -0.1071    1.0434 C   0  0  1  0  0  0  0  0  0  0  0  0
   -0.8606   -0.3546    0.1407 H   0  0  0  0  0  0  0  0  0  0  0  0
   -1.7365    1.4022    1.0338 C   0  0  0  0  0  0  0  0  0  0  0  0
   -2.4280    1.6190    1.8505 H   0  0  0  0  0  0  0  0  0  0  0  0
   -0.8148    1.9602    1.2128 H   0  0  0  0  0  0  0  0  0  0  0  0
   -2.3721    1.8857   -0.2778 C   0  0  0  0  0  0  0  0  0  0  0  0
   -1.6944    1.6906   -1.1101 H   0  0  0  0  0  0  0  0  0  0  0  0
   -3.3086    1.3521   -0.4430 H   0  0  0  0  0  0  0  0  0  0  0  0
   -2.6504    3.3930   -0.1990 C   0  0  0  0  0  0  0  0  0  0  0  0
   -3.3079    3.5820    0.6526 H   0  0  0  0  0  0  0  0  0  0  0  0
   -1.7037    3.9133   -0.0359 H   0  0  0  0  0  0  0  0  0  0  0  0
   -3.2854    3.8986   -1.4335 N   0  3  0  0  0  0  0  0  0  0  0  0
   -3.4162    3.2357   -2.1783 H   0  0  0  0  0  0  0  0  0  0  0  0
   -3.6968    5.1366   -1.6502 C   0  0  0  0  0  0  0  0  0  0  0  0
   -3.5753    6.0745   -0.7530 N   0  0  0  0  0  0  0  0  0  0  0  0
   -3.1567    5.8466    0.1314 H   0  0  0  0  0  0  0  0  0  0  0  0
   -3.8924    7.0092   -0.9337 H   0  0  0  0  0  0  0  0  0  0  0  0
   -4.2439    5.4607   -2.7873 N   0  0  0  0  0  0  0  0  0  0  0  0
   -4.3594    4.7715   -3.5102 H   0  0  0  0  0  0  0  0  0  0  0  0
   -4.5547    6.4010   -2.9475 H   0  0  0  0  0  0  0  0  0  0  0  0
   -0.5921   -0.5089    2.2648 C   0  0  0  0  0  0  0  0  0  0  0  0
   -0.8892   -0.0693    3.3692 O   0  0  0  0  0  0  0  0  0  0  0  0
    0.4587   -1.3073    2.0524 N   0  0  0  0  0  0  0  0  0  0  0  0
    0.6074   -1.6517    1.1179 H   0  0  0  0  0  0  0  0  0  0  0  0
    1.3514   -1.7847    3.1098 C   0  0  0  0  0  0  0  0  0  0  0  0
    0.7953   -2.4176    3.8047 H   0  0  0  0  0  0  0  0  0  0  0  0
    2.1723   -2.3618    2.6823 H   0  0  0  0  0  0  0  0  0  0  0  0
    1.7586   -0.9373    3.6656 H   0  0  0  0  0  0  0  0  0  0  0  0
  5  6  2  0  0  0  0
  5  7  1  0  0  0  0
  2  3  1  0  0  0  0
  2  4  1  0  0  0  0
  2  5  1  0  0  0  0
  1  2  1  0  0  0  0
 29 30  2  0  0  0  0
 29 31  1  0  0  0  0
 26 27  1  0  0  0  0
 26 28  1  0  0  0  0
 23 24  1  0  0  0  0
 23 25  1  0  0  0  0
 22 23  1  0  0  0  0
 22 26  1  0  0  0  0
 20 21  1  0  0  0  0
 20 22  2  0  0  0  0
 17 18  1  0  0  0  0
 17 19  1  0  0  0  0
 17 20  1  0  0  0  0
 14 15  1  0  0  0  0
 14 16  1  0  0  0  0
 14 17  1  0  0  0  0
 11 12  1  0  0  0  0
 11 13  1  0  0  0  0
 11 14  1  0  0  0  0
  9 10  1  0  0  0  0
  9 11  1  0  0  0  0
  9 29  1  0  0  0  0
  7  8  1  0  0  0  0
  7  9  1  0  0  0  0
 33 34  1  0  0  0  0
 33 35  1  0  0  0  0
 33 36  1  0  0  0  0
 31 32  1  0  0  0  0
 31 33  1  0  0  0  0
M  CHG  1  20   1
M  END
$$$$
default_name
  -OEChem-01062215323D

 36 35  0     1  0  0  0  0  0999 V2000
   -4.2256   -3.6731    1.8584 H   0  0  0  0  0  0  0  0  0  0  0  0
   -4.2396   -2.6781    1.4144 C   0  0  0  0  0  0  0  0  0  0  0  0
   -4.9506   -2.0521    1.9514 H   0  0  0  0  0  0  0  0  0  0  0  0
   -4.5266   -2.7521    0.3674 H   0  0  0  0  0  0  0  0  0  0  0  0
   -2.8576   -2.0761    1.5184 C   0  0  0  0  0  0  0  0  0  0  0  0
   -1.9456   -2.7051    2.0404 O   0  0  0  0  0  0  0  0  0  0  0  0
   -2.6926   -0.8481    1.0174 N   0  0  0  0  0  0  0  0  0  0  0  0
   -3.4926   -0.3971    0.5954 H   0  0  0  0  0  0  0  0  0  0  0  0
   -1.4216   -0.1071    1.0434 C   0  0  1  0  0  0  0  0  0  0  0  0
   -0.8606   -0.3546    0.1407 H   0  0  0  0  0  0  0  0  0  0  0  0
   -1.7365    1.4022    1.0338 C   0  0  0  0  0  0  0  0  0  0  0  0
   -2.4280    1.6190    1.8505 H   0  0  0  0  0  0  0  0  0  0  0  0
   -0.8148    1.9602    1.2128 H   0  0  0  0  0  0  0  0  0  0  0  0
   -2.3721    1.8857   -0.2778 C   0  0  0  0  0  0  0  0  0  0  0  0
   -1.6944    1.6906   -1.1101 H   0  0  0  0  0  0  0  0  0  0  0  0
   -3.3086    1.3521   -0.4430 H   0  0  0  0  0  0  0  0  0  0  0  0
   -2.6504    3.3930   -0.1990 C   0  0  0  0  0  0  0  0  0  0  0  0
   -3.3079    3.5820    0.6526 H   0  0  0  0  0  0  0  0  0  0  0  0
   -1.7037    3.9133   -0.0359 H   0  0  0  0  0  0  0  0  0  0  0  0
   -3.2854    3.8986   -1.4335 N   0  3  0  0  0  0  0  0  0  0  0  0
   -3.4162    3.2357   -2.1783 H   0  0  0  0  0  0  0  0  0  0  0  0
   -3.6968    5.1366   -1.6502 C   0  0  0  0  0  0  0  0  0  0  0  0
   -3.5753    6.0745   -0.7530 N   0  0  0  0  0  0  0  0  0  0  0  0
   -3.1567    5.8466    0.1314 H   0  0  0  0  0  0  0  0  0  0  0  0
   -3.8924    7.0092   -0.9337 H   0  0  0  0  0  0  0  0  0  0  0  0
   -4.2439    5.4607   -2.7873 N   0  0  0  0  0  0  0  0  0  0  0  0
   -4.3594    4.7715   -3.5102 H   0  0  0  0  0  0  0  0  0  0  0  0
   -4.5547    6.4010   -2.9475 H   0  0  0  0  0  0  0  0  0  0  0  0
   -0.5921   -0.5089    2.2648 C   0  0  0  0  0  0  0  0  0  0  0  0
   -1.0338   -0.3060    3.3895 O   0  0  0  0  0  0  0  0  0  0  0  0
    0.6135   -1.0387    2.0356 N   0  0  0  0  0  0  0  0  0  0  0  0
    0.8812   -1.2043    1.0792 H   0  0  0  0  0  0  0  0  0  0  0  0
    1.5294   -1.4767    3.0902 C   0  0  0  0  0  0  0  0  0  0  0  0
    1.0836   -2.3041    3.6463 H   0  0  0  0  0  0  0  0  0  0  0  0
    2.4754   -1.8068    2.6590 H   0  0  0  0  0  0  0  0  0  0  0  0
    1.7181   -0.6560    3.7857 H   0  0  0  0  0  0  0  0  0  0  0  0
  5  6  2  0  0  0  0
  5  7  1  0  0  0  0
  2  3  1  0  0  0  0
  2  4  1  0  0  0  0
  2  5  1  0  0  0  0
  1  2  1  0  0  0  0
 29 30  2  0  0  0  0
 29 31  1  0  0  0  0
 26 27  1  0  0  0  0
 26 28  1  0  0  0  0
 23 24  1  0  0  0  0
 23 25  1  0  0  0  0
 22 23  1  0  0  0  0
 22 26  1  0  0  0  0
 20 21  1  0  0  0  0
 20 22  2  0  0  0  0
 17 18  1  0  0  0  0
 17 19  1  0  0  0  0
 17 20  1  0  0  0  0
 14 15  1  0  0  0  0
 14 16  1  0  0  0  0
 14 17  1  0  0  0  0
 11 12  1  0  0  0  0
 11 13  1  0  0  0  0
 11 14  1  0  0  0  0
  9 10  1  0  0  0  0
  9 11  1  0  0  0  0
  9 29  1  0  0  0  0
  7  8  1  0  0  0  0
  7  9  1  0  0  0  0
 33 34  1  0  0  0  0
 33 35  1  0  0  0  0
 33 36  1  0  0  0  0
 31 32  1  0  0  0  0
 31 33  1  0  0  0  0
M  CHG  1  20   1
M  END
$$$$
default_name
  -OEChem-01062215323D

 36 35  0     1  0  0  0  0  0999 V2000
   -4.2256   -3.6731    1.8584 H   0  0  0  0  0  0  0  0  0  0  0  0
   -4.2396   -2.6781    1.4144 C   0  0  0  0  0  0  0  0  0  0  0  0
   -4.9506   -2.0521    1.9514 H   0  0  0  0  0  0  0  0  0  0  0  0
   -4.5266   -2.7521    0.3674 H   0  0  0  0  0  0  0  0  0  0  0  0
   -2.8576   -2.0761    1.5184 C   0  0  0  0  0  0  0  0  0  0  0  0
   -1.9456   -2.7051    2.0404 O   0  0  0  0  0  0  0  0  0  0  0  0
   -2.6926   -0.8481    1.0174 N   0  0  0  0  0  0  0  0  0  0  0  0
   -3.4926   -0.3971    0.5954 H   0  0  0  0  0  0  0  0  0  0  0  0
   -1.4216   -0.1071    1.0434 C   0  0  1  0  0  0  0  0  0  0  0  0
   -0.8606   -0.3546    0.1407 H   0  0  0  0  0  0  0  0  0  0  0  0
   -1.7365    1.4022    1.0338 C   0  0  0  0  0  0  0  0  0  0  0  0
   -2.4280    1.6190    1.8505 H   0  0  0  0  0  0  0  0  0  0  0  0
   -0.8148    1.9602    1.2128 H   0  0  0  0  0  0  0  0  0  0  0  0
   -2.3721    1.8857   -0.2778 C   0  0  0  0  0  0  0  0  0  0  0  0
   -1.6944    1.6906   -1.1101 H   0  0  0  0  0  0  0  0  0  0  0  0
   -3.3086    1.3521   -0.4430 H   0  0  0  0  0  0  0  0  0  0  0  0
   -2.6504    3.3930   -0.1990 C   0  0  0  0  0  0  0  0  0  0  0  0
   -3.3079    3.5820    0.6526 H   0  0  0  0  0  0  0  0  0  0  0  0
   -1.7037    3.9133   -0.0359 H   0  0  0  0  0  0  0  0  0  0  0  0
   -3.2854    3.8986   -1.4335 N   0  3  0  0  0  0  0  0  0  0  0  0
   -3.4162    3.2357   -2.1783 H   0  0  0  0  0  0  0  0  0  0  0  0
   -3.6968    5.1366   -1.6502 C   0  0  0  0  0  0  0  0  0  0  0  0
   -3.5753    6.0745   -0.7530 N   0  0  0  0  0  0  0  0  0  0  0  0
   -3.1567    5.8466    0.1314 H   0  0  0  0  0  0  0  0  0  0  0  0
   -3.8924    7.0092   -0.9337 H   0  0  0  0  0  0  0  0  0  0  0  0
   -4.2439    5.4607   -2.7873 N   0  0  0  0  0  0  0  0  0  0  0  0
   -4.3594    4.7715   -3.5102 H   0  0  0  0  0  0  0  0  0  0  0  0
   -4.5547    6.4010   -2.9475 H   0  0  0  0  0  0  0  0  0  0  0  0
   -0.5921   -0.5089    2.2648 C   0  0  0  0  0  0  0  0  0  0  0  0
   -1.1259   -0.5674    3.3661 O   0  0  0  0  0  0  0  0  0  0  0  0
    0.7087   -0.7448    2.0676 N   0  0  0  0  0  0  0  0  0  0  0  0
    1.0559   -0.7102    1.1231 H   0  0  0  0  0  0  0  0  0  0  0  0
    1.6391   -1.1397    3.1266 C   0  0  0  0  0  0  0  0  0  0  0  0
    1.3493   -2.1128    3.5287 H   0  0  0  0  0  0  0  0  0  0  0  0
    2.6550   -1.2049    2.7350 H   0  0  0  0  0  0  0  0  0  0  0  0
    1.6126   -0.4095    3.9384 H   0  0  0  0  0  0  0  0  0  0  0  0
  5  6  2  0  0  0  0
  5  7  1  0  0  0  0
  2  3  1  0  0  0  0
  2  4  1  0  0  0  0
  2  5  1  0  0  0  0
  1  2  1  0  0  0  0
 29 30  2  0  0  0  0
 29 31  1  0  0  0  0
 26 27  1  0  0  0  0
 26 28  1  0  0  0  0
 23 24  1  0  0  0  0
 23 25  1  0  0  0  0
 22 23  1  0  0  0  0
 22 26  1  0  0  0  0
 20 21  1  0  0  0  0
 20 22  2  0  0  0  0
 17 18  1  0  0  0  0
 17 19  1  0  0  0  0
 17 20  1  0  0  0  0
 14 15  1  0  0  0  0
 14 16  1  0  0  0  0
 14 17  1  0  0  0  0
 11 12  1  0  0  0  0
 11 13  1  0  0  0  0
 11 14  1  0  0  0  0
  9 10  1  0  0  0  0
  9 11  1  0  0  0  0
  9 29  1  0  0  0  0
  7  8  1  0  0  0  0
  7  9  1  0  0  0  0
 33 34  1  0  0  0  0
 33 35  1  0  0  0  0
 33 36  1  0  0  0  0
 31 32  1  0  0  0  0
 31 33  1  0  0  0  0
M  CHG  1  20   1
M  END
$$$$
default_name
  -OEChem-01062215323D

 36 35  0     1  0  0  0  0  0999 V2000
   -4.2256   -3.6731    1.8584 H   0  0  0  0  0  0  0  0  0  0  0  0
   -4.2396   -2.6781    1.4144 C   0  0  0  0  0  0  0  0  0  0  0  0
   -4.9506   -2.0521    1.9514 H   0  0  0  0  0  0  0  0  0  0  0  0
   -4.5266   -2.7521    0.3674 H   0  0  0  0  0  0  0  0  0  0  0  0
   -2.8576   -2.0761    1.5184 C   0  0  0  0  0  0  0  0  0  0  0  0
   -1.9456   -2.7051    2.0404 O   0  0  0  0  0  0  0  0  0  0  0  0
   -2.6926   -0.8481    1.0174 N   0  0  0  0  0  0  0  0  0  0  0  0
   -3.4926   -0.3971    0.5954 H   0  0  0  0  0  0  0  0  0  0  0  0
   -1.4216   -0.1071    1.0434 C   0  0  1  0  0  0  0  0  0  0  0  0
   -0.8606   -0.3546    0.1407 H   0  0  0  0  0  0  0  0  0  0  0  0
   -1.7365    1.4022    1.0338 C   0  0  0  0  0  0  0  0  0  0  0  0
   -2.4280    1.6190    1.8505 H   0  0  0  0  0  0  0  0  0  0  0  0
   -0.8148    1.9602    1.2128 H   0  0  0  0  0  0  0  0  0  0  0  0
   -2.3721    1.8857   -0.2778 C   0  0  0  0  0  0  0  0  0  0  0  0
   -1.6944    1.6906   -1.1101 H   0  0  0  0  0  0  0  0  0  0  0  0
   -3.3086    1.3521   -0.4430 H   0  0  0  0  0  0  0  0  0  0  0  0
   -2.6504    3.3930   -0.1990 C   0  0  0  0  0  0  0  0  0  0  0  0
   -3.3079    3.5820    0.6526 H   0  0  0  0  0  0  0  0  0  0  0  0
   -1.7037    3.9133   -0.0359 H   0  0  0  0  0  0  0  0  0  0  0  0
   -3.2854    3.8986   -1.4335 N   0  3  0  0  0  0  0  0  0  0  0  0
   -3.4162    3.2357   -2.1783 H   0  0  0  0  0  0  0  0  0  0  0  0
   -3.6968    5.1366   -1.6502 C   0  0  0  0  0  0  0  0  0  0  0  0
   -3.5753    6.0745   -0.7530 N   0  0  0  0  0  0  0  0  0  0  0  0
   -3.1567    5.8466    0.1314 H   0  0  0  0  0  0  0  0  0  0  0  0
   -3.8924    7.0092   -0.9337 H   0  0  0  0  0  0  0  0  0  0  0  0
   -4.2439    5.4607   -2.7873 N   0  0  0  0  0  0  0  0  0  0  0  0
   -4.3594    4.7715   -3.5102 H   0  0  0  0  0  0  0  0  0  0  0  0
   -4.5547    6.4010   -2.9475 H   0  0  0  0  0  0  0  0  0  0  0  0
   -0.5921   -0.5089    2.2648 C   0  0  0  0  0  0  0  0  0  0  0  0
   -1.1593   -0.8356    3.3005 O   0  0  0  0  0  0  0  0  0  0  0  0
    0.7378   -0.4458    2.1462 N   0  0  0  0  0  0  0  0  0  0  0  0
    1.1196   -0.2029    1.2467 H   0  0  0  0  0  0  0  0  0  0  0  0
    1.6729   -0.7966    3.2165 C   0  0  0  0  0  0  0  0  0  0  0  0
    1.5745   -1.8566    3.4601 H   0  0  0  0  0  0  0  0  0  0  0  0
    2.6990   -0.5971    2.9051 H   0  0  0  0  0  0  0  0  0  0  0  0
    1.4495   -0.2146    4.1133 H   0  0  0  0  0  0  0  0  0  0  0  0
  5  6  2  0  0  0  0
  5  7  1  0  0  0  0
  2  3  1  0  0  0  0
  2  4  1  0  0  0  0
  2  5  1  0  0  0  0
  1  2  1  0  0  0  0
 29 30  2  0  0  0  0
 29 31  1  0  0  0  0
 26 27  1  0  0  0  0
 26 28  1  0  0  0  0
 23 24  1  0  0  0  0
 23 25  1  0  0  0  0
 22 23  1  0  0  0  0
 22 26  1  0  0  0  0
 20 21  1  0  0  0  0
 20 22  2  0  0  0  0
 17 18  1  0  0  0  0
 17 19  1  0  0  0  0
 17 20  1  0  0  0  0
 14 15  1  0  0  0  0
 14 16  1  0  0  0  0
 14 17  1  0  0  0  0
 11 12  1  0  0  0  0
 11 13  1  0  0  0  0
 11 14  1  0  0  0  0
  9 10  1  0  0  0  0
  9 11  1  0  0  0  0
  9 29  1  0  0  0  0
  7  8  1  0  0  0  0
  7  9  1  0  0  0  0
 33 34  1  0  0  0  0
 33 35  1  0  0  0  0
 33 36  1  0  0  0  0
 31 32  1  0  0  0  0
 31 33  1  0  0  0  0
M  CHG  1  20   1
M  END
$$$$
default_name
  -OEChem-01062215323D

 36 35  0     1  0  0  0  0  0999 V2000
   -4.2256   -3.6731    1.8584 H   0  0  0  0  0  0  0  0  0  0  0  0
   -4.2396   -2.6781    1.4144 C   0  0  0  0  0  0  0  0  0  0  0  0
   -4.9506   -2.0521    1.9514 H   0  0  0  0  0  0  0  0  0  0  0  0
   -4.5266   -2.7521    0.3674 H   0  0  0  0  0  0  0  0  0  0  0  0
   -2.8576   -2.0761    1.5184 C   0  0  0  0  0  0  0  0  0  0  0  0
   -1.9456   -2.7051    2.0404 O   0  0  0  0  0  0  0  0  0  0  0  0
   -2.6926   -0.8481    1.0174 N   0  0  0  0  0  0  0  0  0  0  0  0
   -3.4926   -0.3971    0.5954 H   0  0  0  0  0  0  0  0  0  0  0  0
   -1.4216   -0.1071    1.0434 C   0  0  1  0  0  0  0  0  0  0  0  0
   -0.8606   -0.3546    0.1407 H   0  0  0  0  0  0  0  0  0  0  0  0
   -1.7365    1.4022    1.0338 C   0  0  0  0  0  0  0  0  0  0  0  0
   -2.4280    1.6190    1.8505 H   0  0  0  0  0  0  0  0  0  0  0  0
   -0.8148    1.9602    1.2128 H   0  0  0  0  0  0  0  0  0  0  0  0
   -2.3721    1.8857   -0.2778 C   0  0  0  0  0  0  0  0  0  0  0  0
   -1.6944    1.6906   -1.1101 H   0  0  0  0  0  0  0  0  0  0  0  0
   -3.3086    1.3521   -0.4430 H   0  0  0  0  0  0  0  0  0  0  0  0
   -2.6504    3.3930   -0.1990 C   0  0  0  0  0  0  0  0  0  0  0  0
   -3.3079    3.5820    0.6526 H   0  0  0  0  0  0  0  0  0  0  0  0
   -1.7037    3.9133   -0.0359 H   0  0  0  0  0  0  0  0  0  0  0  0
   -3.2854    3.8986   -1.4335 N   0  3  0  0  0  0  0  0  0  0  0  0
   -3.4162    3.2357   -2.1783 H   0  0  0  0  0  0  0  0  0  0  0  0
   -3.6968    5.1366   -1.6502 C   0  0  0  0  0  0  0  0  0  0  0  0
   -3.5753    6.0745   -0.7530 N   0  0  0  0  0  0  0  0  0  0  0  0
   -3.1567    5.8466    0.1314 H   0  0  0  0  0  0  0  0  0  0  0  0
   -3.8924    7.0092   -0.9337 H   0  0  0  0  0  0  0  0  0  0  0  0
   -4.2439    5.4607   -2.7873 N   0  0  0  0  0  0  0  0  0  0  0  0
   -4.3594    4.7715   -3.5102 H   0  0  0  0  0  0  0  0  0  0  0  0
   -4.5547    6.4010   -2.9475 H   0  0  0  0  0  0  0  0  0  0  0  0
   -0.5921   -0.5089    2.2648 C   0  0  0  0  0  0  0  0  0  0  0  0
   -1.1317   -1.0924    3.1973 O   0  0  0  0  0  0  0  0  0  0  0  0
    0.6988   -0.1620    2.2661 N   0  0  0  0  0  0  0  0  0  0  0  0
    1.0679    0.2828    1.4416 H   0  0  0  0  0  0  0  0  0  0  0  0
    1.6286   -0.4708    3.3537 C   0  0  0  0  0  0  0  0  0  0  0  0
    1.7437   -1.5530    3.4451 H   0  0  0  0  0  0  0  0  0  0  0  0
    2.6044   -0.0247    3.1576 H   0  0  0  0  0  0  0  0  0  0  0  0
    1.2398   -0.0846    4.2985 H   0  0  0  0  0  0  0  0  0  0  0  0
  5  6  2  0  0  0  0
  5  7  1  0  0  0  0
  2  3  1  0  0  0  0
  2  4  1  0  0  0  0
  2  5  1  0  0  0  0
  1  2  1  0  0  0  0
 29 30  2  0  0  0  0
 29 31  1  0  0  0  0
 26 27  1  0  0  0  0
 26 28  1  0  0  0  0
 23 24  1  0  0  0  0
 23 25  1  0  0  0  0
 22 23  1  0  0  0  0
 22 26  1  0  0  0  0
 20 21  1  0  0  0  0
 20 22  2  0  0  0  0
 17 18  1  0  0  0  0
 17 19  1  0  0  0  0
 17 20  1  0  0  0  0
 14 15  1  0  0  0  0
 14 16  1  0  0  0  0
 14 17  1  0  0  0  0
 11 12  1  0  0  0  0
 11 13  1  0  0  0  0
 11 14  1  0  0  0  0
  9 10  1  0  0  0  0
  9 11  1  0  0  0  0
  9 29  1  0  0  0  0
  7  8  1  0  0  0  0
  7  9  1  0  0  0  0
 33 34  1  0  0  0  0
 33 35  1  0  0  0  0
 33 36  1  0  0  0  0
 31 32  1  0  0  0  0
 31 33  1  0  0  0  0
M  CHG  1  20   1
M  END
$$$$
default_name
  -OEChem-01062215323D

 36 35  0     1  0  0  0  0  0999 V2000
   -4.2256   -3.6731    1.8584 H   0  0  0  0  0  0  0  0  0  0  0  0
   -4.2396   -2.6781    1.4144 C   0  0  0  0  0  0  0  0  0  0  0  0
   -4.9506   -2.0521    1.9514 H   0  0  0  0  0  0  0  0  0  0  0  0
   -4.5266   -2.7521    0.3674 H   0  0  0  0  0  0  0  0  0  0  0  0
   -2.8576   -2.0761    1.5184 C   0  0  0  0  0  0  0  0  0  0  0  0
   -1.9456   -2.7051    2.0404 O   0  0  0  0  0  0  0  0  0  0  0  0
   -2.6926   -0.8481    1.0174 N   0  0  0  0  0  0  0  0  0  0  0  0
   -3.4926   -0.3971    0.5954 H   0  0  0  0  0  0  0  0  0  0  0  0
   -1.4216   -0.1071    1.0434 C   0  0  1  0  0  0  0  0  0  0  0  0
   -0.9862   -0.1358    0.0433 H   0  0  0  0  0  0  0  0  0  0  0  0
   -1.7195    1.3598    1.4129 C   0  0  0  0  0  0  0  0  0  0  0  0
   -2.2960    1.3754    2.3401 H   0  0  0  0  0  0  0  0  0  0  0  0
   -0.7767    1.8816    1.5910 H   0  0  0  0  0  0  0  0  0  0  0  0
   -2.5163    2.1116    0.3367 C   0  0  0  0  0  0  0  0  0  0  0  0
   -1.9554    2.1204   -0.5989 H   0  0  0  0  0  0  0  0  0  0  0  0
   -3.4719    1.6103    0.1792 H   0  0  0  0  0  0  0  0  0  0  0  0
   -2.7665    3.5575    0.7864 C   0  0  0  0  0  0  0  0  0  0  0  0
   -3.3049    3.5389    1.7367 H   0  0  0  0  0  0  0  0  0  0  0  0
   -1.8013    4.0465    0.9375 H   0  0  0  0  0  0  0  0  0  0  0  0
   -3.5523    4.3135   -0.2105 N   0  3  0  0  0  0  0  0  0  0  0  0
   -3.7863    3.8312   -1.0613 H   0  0  0  0  0  0  0  0  0  0  0  0
   -3.9758    5.5605   -0.0892 C   0  0  0  0  0  0  0  0  0  0  0  0
   -3.7284    6.2765    0.9716 N   0  0  0  0  0  0  0  0  0  0  0  0
   -3.2000    5.8651    1.7206 H   0  0  0  0  0  0  0  0  0  0  0  0
   -4.0568    7.2217    1.0475 H   0  0  0  0  0  0  0  0  0  0  0  0
   -4.6637    6.1195   -1.0440 N   0  0  0  0  0  0  0  0  0  0  0  0
   -4.8799    5.6070   -1.8816 H   0  0  0  0  0  0  0  0  0  0  0  0
   -4.9831    7.0658   -0.9479 H   0  0  0  0  0  0  0  0  0  0  0  0
   -0.4436   -0.7553    2.0256 C   0  0  0  0  0  0  0  0  0  0  0  0
   -0.7963   -1.7330    2.6742 O   0  0  0  0  0  0  0  0  0  0  0  0
    0.7588   -0.1857    2.1540 N   0  0  0  0  0  0  0  0  0  0  0  0
    0.9778    0.5928    1.5542 H   0  0  0  0  0  0  0  0  0  0  0  0
    1.8082   -0.6807    3.0466 C   0  0  0  0  0  0  0  0  0  0  0  0
    2.1252   -1.6759    2.7277 H   0  0  0  0  0  0  0  0  0  0  0  0
    2.6689   -0.0108    3.0294 H   0  0  0  0  0  0  0  0  0  0  0  0
    1.4275   -0.7509    4.0678 H   0  0  0  0  0  0  0  0  0  0  0  0
  5  6  2  0  0  0  0
  5  7  1  0  0  0  0
  2  3  1  0  0  0  0
  2  4  1  0  0  0  0
  2  5  1  0  0  0  0
  1  2  1  0  0  0  0
 29 30  2  0  0  0  0
 29 31  1  0  0  0  0
 26 27  1  0  0  0  0
 26 28  1  0  0  0  0
 23 24  1  0  0  0  0
 23 25  1  0  0  0  0
 22 23  1  0  0  0  0
 22 26  1  0  0  0  0
 20 21  1  0  0  0  0
 20 22  2  0  0  0  0
 17 18  1  0  0  0  0
 17 19  1  0  0  0  0
 17 20  1  0  0  0  0
 14 15  1  0  0  0  0
 14 16  1  0  0  0  0
 14 17  1  0  0  0  0
 11 12  1  0  0  0  0
 11 13  1  0  0  0  0
 11 14  1  0  0  0  0
  9 10  1  0  0  0  0
  9 11  1  0  0  0  0
  9 29  1  0  0  0  0
  7  8  1  0  0  0  0
  7  9  1  0  0  0  0
 33 34  1  0  0  0  0
 33 35  1  0  0  0  0
 33 36  1  0  0  0  0
 31 32  1  0  0  0  0
 31 33  1  0  0  0  0
M  CHG  1  20   1
M  END
$$$$
default_name
  -OEChem-01062215323D

 36 35  0     1  0  0  0  0  0999 V2000
   -4.2256   -3.6731    1.8584 H   0  0  0  0  0  0  0  0  0  0  0  0
   -4.2396   -2.6781    1.4144 C   0  0  0  0  0  0  0  0  0  0  0  0
   -4.9506   -2.0521    1.9514 H   0  0  0  0  0  0  0  0  0  0  0  0
   -4.5266   -2.7521    0.3674 H   0  0  0  0  0  0  0  0  0  0  0  0
   -2.8576   -2.0761    1.5184 C   0  0  0  0  0  0  0  0  0  0  0  0
   -1.9456   -2.7051    2.0404 O   0  0  0  0  0  0  0  0  0  0  0  0
   -2.6926   -0.8481    1.0174 N   0  0  0  0  0  0  0  0  0  0  0  0
   -3.4926   -0.3971    0.5954 H   0  0  0  0  0  0  0  0  0  0  0  0
   -1.4216   -0.1071    1.0434 C   0  0  1  0  0  0  0  0  0  0  0  0
   -0.9862   -0.1358    0.0433 H   0  0  0  0  0  0  0  0  0  0  0  0
   -1.7195    1.3598    1.4129 C   0  0  0  0  0  0  0  0  0  0  0  0
   -2.2960    1.3754    2.3401 H   0  0  0  0  0  0  0  0  0  0  0  0
   -0.7767    1.8816    1.5910 H   0  0  0  0  0  0  0  0  0  0  0  0
   -2.5163    2.1116    0.3367 C   0  0  0  0  0  0  0  0  0  0  0  0
   -1.9554    2.1204   -0.5989 H   0  0  0  0  0  0  0  0  0  0  0  0
   -3.4719    1.6103    0.1792 H   0  0  0  0  0  0  0  0  0  0  0  0
   -2.7665    3.5575    0.7864 C   0  0  0  0  0  0  0  0  0  0  0  0
   -3.3049    3.5389    1.7367 H   0  0  0  0  0  0  0  0  0  0  0  0
   -1.8013    4.0465    0.9375 H   0  0  0  0  0  0  0  0  0  0  0  0
   -3.5523    4.3135   -0.2105 N   0  3  0  0  0  0  0  0  0  0  0  0
   -3.7863    3.8312   -1.0613 H   0  0  0  0  0  0  0  0  0  0  0  0
   -3.9758    5.5605   -0.0892 C   0  0  0  0  0  0  0  0  0  0  0  0
   -3.7284    6.2765    0.9716 N   0  0  0  0  0  0  0  0  0  0  0  0
   -3.2000    5.8651    1.7206 H   0  0  0  0  0  0  0  0  0  0  0  0
   -4.0568    7.2217    1.0475 H   0  0  0  0  0  0  0  0  0  0  0  0
   -4.6637    6.1195   -1.0440 N   0  0  0  0  0  0  0  0  0  0  0  0
   -4.8799    5.6070   -1.8816 H   0  0  0  0  0  0  0  0  0  0  0  0
   -4.9831    7.0658   -0.9479 H   0  0  0  0  0  0  0  0  0  0  0  0
   -0.4436   -0.7553    2.0256 C   0  0  0  0  0  0  0  0  0  0  0  0
   -0.6798   -1.8744    2.4649 O   0  0  0  0  0  0  0  0  0  0  0  0
    0.6224   -0.0354    2.3890 N   0  0  0  0  0  0  0  0  0  0  0  0
    0.7579    0.8605    1.9499 H   0  0  0  0  0  0  0  0  0  0  0  0
    1.6521   -0.5078    3.3161 C   0  0  0  0  0  0  0  0  0  0  0  0
    2.1677   -1.3697    2.8874 H   0  0  0  0  0  0  0  0  0  0  0  0
    2.3796    0.2814    3.5103 H   0  0  0  0  0  0  0  0  0  0  0  0
    1.1937   -0.8142    4.2589 H   0  0  0  0  0  0  0  0  0  0  0  0
  5  6  2  0  0  0  0
  5  7  1  0  0  0  0
  2  3  1  0  0  0  0
  2  4  1  0  0  0  0
  2  5  1  0  0  0  0
  1  2  1  0  0  0  0
 29 30  2  0  0  0  0
 29 31  1  0  0  0  0
 26 27  1  0  0  0  0
 26 28  1  0  0  0  0
 23 24  1  0  0  0  0
 23 25  1  0  0  0  0
 22 23  1  0  0  0  0
 22 26  1  0  0  0  0
 20 21  1  0  0  0  0
 20 22  2  0  0  0  0
 17 18  1  0  0  0  0
 17 19  1  0  0  0  0
 17 20  1  0  0  0  0
 14 15  1  0  0  0  0
 14 16  1  0  0  0  0
 14 17  1  0  0  0  0
 11 12  1  0  0  0  0
 11 13  1  0  0  0  0
 11 14  1  0  0  0  0
  9 10  1  0  0  0  0
  9 11  1  0  0  0  0
  9 29  1  0  0  0  0
  7  8  1  0  0  0  0
  7  9  1  0  0  0  0
 33 34  1  0  0  0  0
 33 35  1  0  0  0  0
 33 36  1  0  0  0  0
 31 32  1  0  0  0  0
 31 33  1  0  0  0  0
M  CHG  1  20   1
M  END
$$$$
default_name
  -OEChem-01062215323D

 36 35  0     1  0  0  0  0  0999 V2000
   -4.2256   -3.6731    1.8584 H   0  0  0  0  0  0  0  0  0  0  0  0
   -4.2396   -2.6781    1.4144 C   0  0  0  0  0  0  0  0  0  0  0  0
   -4.9506   -2.0521    1.9514 H   0  0  0  0  0  0  0  0  0  0  0  0
   -4.5266   -2.7521    0.3674 H   0  0  0  0  0  0  0  0  0  0  0  0
   -2.8576   -2.0761    1.5184 C   0  0  0  0  0  0  0  0  0  0  0  0
   -1.9456   -2.7051    2.0404 O   0  0  0  0  0  0  0  0  0  0  0  0
   -2.6926   -0.8481    1.0174 N   0  0  0  0  0  0  0  0  0  0  0  0
   -3.4926   -0.3971    0.5954 H   0  0  0  0  0  0  0  0  0  0  0  0
   -1.4216   -0.1071    1.0434 C   0  0  1  0  0  0  0  0  0  0  0  0
   -0.9862   -0.1358    0.0433 H   0  0  0  0  0  0  0  0  0  0  0  0
   -1.7195    1.3598    1.4129 C   0  0  0  0  0  0  0  0  0  0  0  0
   -2.2960    1.3754    2.3401 H   0  0  0  0  0  0  0  0  0  0  0  0
   -0.7767    1.8816    1.5910 H   0  0  0  0  0  0  0  0  0  0  0  0
   -2.5163    2.1116    0.3367 C   0  0  0  0  0  0  0  0  0  0  0  0
   -1.9554    2.1204   -0.5989 H   0  0  0  0  0  0  0  0  0  0  0  0
   -3.4719    1.6103    0.1792 H   0  0  0  0  0  0  0  0  0  0  0  0
   -2.7665    3.5575    0.7864 C   0  0  0  0  0  0  0  0  0  0  0  0
   -3.3049    3.5389    1.7367 H   0  0  0  0  0  0  0  0  0  0  0  0
   -1.8013    4.0465    0.9375 H   0  0  0  0  0  0  0  0  0  0  0  0
   -3.5523    4.3135   -0.2105 N   0  3  0  0  0  0  0  0  0  0  0  0
   -3.7863    3.8312   -1.0613 H   0  0  0  0  0  0  0  0  0  0  0  0
   -3.9758    5.5605   -0.0892 C   0  0  0  0  0  0  0  0  0  0  0  0
   -3.7284    6.2765    0.9716 N   0  0  0  0  0  0  0  0  0  0  0  0
   -3.2000    5.8651    1.7206 H   0  0  0  0  0  0  0  0  0  0  0  0
   -4.0568    7.2217    1.0475 H   0  0  0  0  0  0  0  0  0  0  0  0
   -4.6637    6.1195   -1.0440 N   0  0  0  0  0  0  0  0  0  0  0  0
   -4.8799    5.6070   -1.8816 H   0  0  0  0  0  0  0  0  0  0  0  0
   -4.9831    7.0658   -0.9479 H   0  0  0  0  0  0  0  0  0  0  0  0
   -0.4436   -0.7553    2.0256 C   0  0  0  0  0  0  0  0  0  0  0  0
   -0.5208   -1.9569    2.2522 O   0  0  0  0  0  0  0  0  0  0  0  0
    0.4399    0.0482    2.6259 N   0  0  0  0  0  0  0  0  0  0  0  0
    0.4576    1.0171    2.3523 H   0  0  0  0  0  0  0  0  0  0  0  0
    1.4430   -0.4113    3.5880 C   0  0  0  0  0  0  0  0  0  0  0  0
    2.1404   -1.0934    3.0970 H   0  0  0  0  0  0  0  0  0  0  0  0
    1.9989    0.4360    3.9914 H   0  0  0  0  0  0  0  0  0  0  0  0
    0.9574   -0.9458    4.4073 H   0  0  0  0  0  0  0  0  0  0  0  0
  5  6  2  0  0  0  0
  5  7  1  0  0  0  0
  2  3  1  0  0  0  0
  2  4  1  0  0  0  0
  2  5  1  0  0  0  0
  1  2  1  0  0  0  0
 29 30  2  0  0  0  0
 29 31  1  0  0  0  0
 26 27  1  0  0  0  0
 26 28  1  0  0  0  0
 23 24  1  0  0  0  0
 23 25  1  0  0  0  0
 22 23  1  0  0  0  0
 22 26  1  0  0  0  0
 20 21  1  0  0  0  0
 20 22  2  0  0  0  0
 17 18  1  0  0  0  0
 17 19  1  0  0  0  0
 17 20  1  0  0  0  0
 14 15  1  0  0  0  0
 14 16  1  0  0  0  0
 14 17  1  0  0  0  0
 11 12  1  0  0  0  0
 11 13  1  0  0  0  0
 11 14  1  0  0  0  0
  9 10  1  0  0  0  0
  9 11  1  0  0  0  0
  9 29  1  0  0  0  0
  7  8  1  0  0  0  0
  7  9  1  0  0  0  0
 33 34  1  0  0  0  0
 33 35  1  0  0  0  0
 33 36  1  0  0  0  0
 31 32  1  0  0  0  0
 31 33  1  0  0  0  0
M  CHG  1  20   1
M  END
$$$$
default_name
  -OEChem-01062215323D

 36 35  0     1  0  0  0  0  0999 V2000
   -4.2256   -3.6731    1.8584 H   0  0  0  0  0  0  0  0  0  0  0  0
   -4.2396   -2.6781    1.4144 C   0  0  0  0  0  0  0  0  0  0  0  0
   -4.9506   -2.0521    1.9514 H   0  0  0  0  0  0  0  0  0  0  0  0
   -4.5266   -2.7521    0.3674 H   0  0  0  0  0  0  0  0  0  0  0  0
   -2.8576   -2.0761    1.5184 C   0  0  0  0  0  0  0  0  0  0  0  0
   -1.9456   -2.7051    2.0404 O   0  0  0  0  0  0  0  0  0  0  0  0
   -2.6926   -0.8481    1.0174 N   0  0  0  0  0  0  0  0  0  0  0  0
   -3.4926   -0.3971    0.5954 H   0  0  0  0  0  0  0  0  0  0  0  0
   -1.4216   -0.1071    1.0434 C   0  0  1  0  0  0  0  0  0  0  0  0
   -0.9862   -0.1358    0.0433 H   0  0  0  0  0  0  0  0  0  0  0  0
   -1.7195    1.3598    1.4129 C   0  0  0  0  0  0  0  0  0  0  0  0
   -2.2960    1.3754    2.3401 H   0  0  0  0  0  0  0  0  0  0  0  0
   -0.7767    1.8816    1.5910 H   0  0  0  0  0  0  0  0  0  0  0  0
   -2.5163    2.1116    0.3367 C   0  0  0  0  0  0  0  0  0  0  0  0
   -1.9554    2.1204   -0.5989 H   0  0  0  0  0  0  0  0  0  0  0  0
   -3.4719    1.6103    0.1792 H   0  0  0  0  0  0  0  0  0  0  0  0
   -2.7665    3.5575    0.7864 C   0  0  0  0  0  0  0  0  0  0  0  0
   -3.3049    3.5389    1.7367 H   0  0  0  0  0  0  0  0  0  0  0  0
   -1.8013    4.0465    0.9375 H   0  0  0  0  0  0  0  0  0  0  0  0
   -3.5523    4.3135   -0.2105 N   0  3  0  0  0  0  0  0  0  0  0  0
   -3.7863    3.8312   -1.0613 H   0  0  0  0  0  0  0  0  0  0  0  0
   -3.9758    5.5605   -0.0892 C   0  0  0  0  0  0  0  0  0  0  0  0
   -3.7284    6.2765    0.9716 N   0  0  0  0  0  0  0  0  0  0  0  0
   -3.2000    5.8651    1.7206 H   0  0  0  0  0  0  0  0  0  0  0  0
   -4.0568    7.2217    1.0475 H   0  0  0  0  0  0  0  0  0  0  0  0
   -4.6637    6.1195   -1.0440 N   0  0  0  0  0  0  0  0  0  0  0  0
   -4.8799    5.6070   -1.8816 H   0  0  0  0  0  0  0  0  0  0  0  0
   -4.9831    7.0658   -0.9479 H   0  0  0  0  0  0  0  0  0  0  0  0
   -0.4436   -0.7553    2.0256 C   0  0  0  0  0  0  0  0  0  0  0  0
   -0.3302   -1.9750    2.0504 O   0  0  0  0  0  0  0  0  0  0  0  0
    0.2238    0.0595    2.8486 N   0  0  0  0  0  0  0  0  0  0  0  0
    0.0973    1.0519    2.7339 H   0  0  0  0  0  0  0  0  0  0  0  0
    1.1952   -0.3978    3.8436 C   0  0  0  0  0  0  0  0  0  0  0  0
    2.0451   -0.8656    3.3422 H   0  0  0  0  0  0  0  0  0  0  0  0
    1.5527    0.4425    4.4400 H   0  0  0  0  0  0  0  0  0  0  0  0
    0.7347   -1.1368    4.5031 H   0  0  0  0  0  0  0  0  0  0  0  0
  5  6  2  0  0  0  0
  5  7  1  0  0  0  0
  2  3  1  0  0  0  0
  2  4  1  0  0  0  0
  2  5  1  0  0  0  0
  1  2  1  0  0  0  0
 29 30  2  0  0  0  0
 29 31  1  0  0  0  0
 26 27  1  0  0  0  0
 26 28  1  0  0  0  0
 23 24  1  0  0  0  0
 23 25  1  0  0  0  0
 22 23  1  0  0  0  0
 22 26  1  0  0  0  0
 20 21  1  0  0  0  0
 20 22  2  0  0  0  0
 17 18  1  0  0  0  0
 17 19  1  0  0  0  0
 17 20  1  0  0  0  0
 14 15  1  0  0  0  0
 14 16  1  0  0  0  0
 14 17  1  0  0  0  0
 11 12  1  0  0  0  0
 11 13  1  0  0  0  0
 11 14  1  0  0  0  0
  9 10  1  0  0  0  0
  9 11  1  0  0  0  0
  9 29  1  0  0  0  0
  7  8  1  0  0  0  0
  7  9  1  0  0  0  0
 33 34  1  0  0  0  0
 33 35  1  0  0  0  0
 33 36  1  0  0  0  0
 31 32  1  0  0  0  0
 31 33  1  0  0  0  0
M  CHG  1  20   1
M  END
$$$$
default_name
  -OEChem-01062215323D

 36 35  0     1  0  0  0  0  0999 V2000
   -4.2256   -3.6731    1.8584 H   0  0  0  0  0  0  0  0  0  0  0  0
   -4.2396   -2.6781    1.4144 C   0  0  0  0  0  0  0  0  0  0  0  0
   -4.9506   -2.0521    1.9514 H   0  0  0  0  0  0  0  0  0  0  0  0
   -4.5266   -2.7521    0.3674 H   0  0  0  0  0  0  0  0  0  0  0  0
   -2.8576   -2.0761    1.5184 C   0  0  0  0  0  0  0  0  0  0  0  0
   -1.9456   -2.7051    2.0404 O   0  0  0  0  0  0  0  0  0  0  0  0
   -2.6926   -0.8481    1.0174 N   0  0  0  0  0  0  0  0  0  0  0  0
   -3.4926   -0.3971    0.5954 H   0  0  0  0  0  0  0  0  0  0  0  0
   -1.4216   -0.1071    1.0434 C   0  0  1  0  0  0  0  0  0  0  0  0
   -0.9862   -0.1358    0.0433 H   0  0  0  0  0  0  0  0  0  0  0  0
   -1.7195    1.3598    1.4129 C   0  0  0  0  0  0  0  0  0  0  0  0
   -2.2960    1.3754    2.3401 H   0  0  0  0  0  0  0  0  0  0  0  0
   -0.7767    1.8816    1.5910 H   0  0  0  0  0  0  0  0  0  0  0  0
   -2.5163    2.1116    0.3367 C   0  0  0  0  0  0  0  0  0  0  0  0
   -1.9554    2.1204   -0.5989 H   0  0  0  0  0  0  0  0  0  0  0  0
   -3.4719    1.6103    0.1792 H   0  0  0  0  0  0  0  0  0  0  0  0
   -2.7665    3.5575    0.7864 C   0  0  0  0  0  0  0  0  0  0  0  0
   -3.3049    3.5389    1.7367 H   0  0  0  0  0  0  0  0  0  0  0  0
   -1.8013    4.0465    0.9375 H   0  0  0  0  0  0  0  0  0  0  0  0
   -3.5523    4.3135   -0.2105 N   0  3  0  0  0  0  0  0  0  0  0  0
   -3.7863    3.8312   -1.0613 H   0  0  0  0  0  0  0  0  0  0  0  0
   -3.9758    5.5605   -0.0892 C   0  0  0  0  0  0  0  0  0  0  0  0
   -3.7284    6.2765    0.9716 N   0  0  0  0  0  0  0  0  0  0  0  0
   -3.2000    5.8651    1.7206 H   0  0  0  0  0  0  0  0  0  0  0  0
   -4.0568    7.2217    1.0475 H   0  0  0  0  0  0  0  0  0  0  0  0
   -4.6637    6.1195   -1.0440 N   0  0  0  0  0  0  0  0  0  0  0  0
   -4.8799    5.6070   -1.8816 H   0  0  0  0  0  0  0  0  0  0  0  0
   -4.9831    7.0658   -0.9479 H   0  0  0  0  0  0  0  0  0  0  0  0
   -0.4436   -0.7553    2.0256 C   0  0  0  0  0  0  0  0  0  0  0  0
   -0.1210   -1.9274    1.8735 O   0  0  0  0  0  0  0  0  0  0  0  0
   -0.0113   -0.0023    3.0419 N   0  0  0  0  0  0  0  0  0  0  0  0
   -0.2982    0.9625    3.0688 H   0  0  0  0  0  0  0  0  0  0  0  0
    0.9256   -0.4683    4.0656 C   0  0  0  0  0  0  0  0  0  0  0  0
    1.8884   -0.7020    3.6062 H   0  0  0  0  0  0  0  0  0  0  0  0
    1.0715    0.3005    4.8255 H   0  0  0  0  0  0  0  0  0  0  0  0
    0.5408   -1.3740    4.5395 H   0  0  0  0  0  0  0  0  0  0  0  0
  5  6  2  0  0  0  0
  5  7  1  0  0  0  0
  2  3  1  0  0  0  0
  2  4  1  0  0  0  0
  2  5  1  0  0  0  0
  1  2  1  0  0  0  0
 29 30  2  0  0  0  0
 29 31  1  0  0  0  0
 26 27  1  0  0  0  0
 26 28  1  0  0  0  0
 23 24  1  0  0  0  0
 23 25  1  0  0  0  0
 22 23  1  0  0  0  0
 22 26  1  0  0  0  0
 20 21  1  0  0  0  0
 20 22  2  0  0  0  0
 17 18  1  0  0  0  0
 17 19  1  0  0  0  0
 17 20  1  0  0  0  0
 14 15  1  0  0  0  0
 14 16  1  0  0  0  0
 14 17  1  0  0  0  0
 11 12  1  0  0  0  0
 11 13  1  0  0  0  0
 11 14  1  0  0  0  0
  9 10  1  0  0  0  0
  9 11  1  0  0  0  0
  9 29  1  0  0  0  0
  7  8  1  0  0  0  0
  7  9  1  0  0  0  0
 33 34  1  0  0  0  0
 33 35  1  0  0  0  0
 33 36  1  0  0  0  0
 31 32  1  0  0  0  0
 31 33  1  0  0  0  0
M  CHG  1  20   1
M  END
$$$$
default_name
  -OEChem-01062215323D

 36 35  0     1  0  0  0  0  0999 V2000
   -4.2256   -3.6731    1.8584 H   0  0  0  0  0  0  0  0  0  0  0  0
   -4.2396   -2.6781    1.4144 C   0  0  0  0  0  0  0  0  0  0  0  0
   -4.9506   -2.0521    1.9514 H   0  0  0  0  0  0  0  0  0  0  0  0
   -4.5266   -2.7521    0.3674 H   0  0  0  0  0  0  0  0  0  0  0  0
   -2.8576   -2.0761    1.5184 C   0  0  0  0  0  0  0  0  0  0  0  0
   -1.9456   -2.7051    2.0404 O   0  0  0  0  0  0  0  0  0  0  0  0
   -2.6926   -0.8481    1.0174 N   0  0  0  0  0  0  0  0  0  0  0  0
   -3.4926   -0.3971    0.5954 H   0  0  0  0  0  0  0  0  0  0  0  0
   -1.4216   -0.1071    1.0434 C   0  0  1  0  0  0  0  0  0  0  0  0
   -0.9862   -0.1358    0.0433 H   0  0  0  0  0  0  0  0  0  0  0  0
   -1.7195    1.3598    1.4129 C   0  0  0  0  0  0  0  0  0  0  0  0
   -2.2960    1.3754    2.3401 H   0  0  0  0  0  0  0  0  0  0  0  0
   -0.7767    1.8816    1.5910 H   0  0  0  0  0  0  0  0  0  0  0  0
   -2.5163    2.1116    0.3367 C   0  0  0  0  0  0  0  0  0  0  0  0
   -1.9554    2.1204   -0.5989 H   0  0  0  0  0  0  0  0  0  0  0  0
   -3.4719    1.6103    0.1792 H   0  0  0  0  0  0  0  0  0  0  0  0
   -2.7665    3.5575    0.7864 C   0  0  0  0  0  0  0  0  0  0  0  0
   -3.3049    3.5389    1.7367 H   0  0  0  0  0  0  0  0  0  0  0  0
   -1.8013    4.0465    0.9375 H   0  0  0  0  0  0  0  0  0  0  0  0
   -3.5523    4.3135   -0.2105 N   0  3  0  0  0  0  0  0  0  0  0  0
   -3.7863    3.8312   -1.0613 H   0  0  0  0  0  0  0  0  0  0  0  0
   -3.9758    5.5605   -0.0892 C   0  0  0  0  0  0  0  0  0  0  0  0
   -3.7284    6.2765    0.9716 N   0  0  0  0  0  0  0  0  0  0  0  0
   -3.2000    5.8651    1.7206 H   0  0  0  0  0  0  0  0  0  0  0  0
   -4.0568    7.2217    1.0475 H   0  0  0  0  0  0  0  0  0  0  0  0
   -4.6637    6.1195   -1.0440 N   0  0  0  0  0  0  0  0  0  0  0  0
   -4.8799    5.6070   -1.8816 H   0  0  0  0  0  0  0  0  0  0  0  0
   -4.9831    7.0658   -0.9479 H   0  0  0  0  0  0  0  0  0  0  0  0
   -0.4436   -0.7553    2.0256 C   0  0  0  0  0  0  0  0  0  0  0  0
    0.0926   -1.8175    1.7334 O   0  0  0  0  0  0  0  0  0  0  0  0
   -0.2492   -0.1331    3.1925 N   0  0  0  0  0  0  0  0  0  0  0  0
   -0.7022    0.7550    3.3341 H   0  0  0  0  0  0  0  0  0  0  0  0
    0.6525   -0.6179    4.2388 C   0  0  0  0  0  0  0  0  0  0  0  0
    1.6808   -0.6137    3.8711 H   0  0  0  0  0  0  0  0  0  0  0  0
    0.5879    0.0196    5.1215 H   0  0  0  0  0  0  0  0  0  0  0  0
    0.3890   -1.6414    4.5142 H   0  0  0  0  0  0  0  0  0  0  0  0
  5  6  2  0  0  0  0
  5  7  1  0  0  0  0
  2  3  1  0  0  0  0
  2  4  1  0  0  0  0
  2  5  1  0  0  0  0
  1  2  1  0  0  0  0
 29 30  2  0  0  0  0
 29 31  1  0  0  0  0
 26 27  1  0  0  0  0
 26 28  1  0  0  0  0
 23 24  1  0  0  0  0
 23 25  1  0  0  0  0
 22 23  1  0  0  0  0
 22 26  1  0  0  0  0
 20 21  1  0  0  0  0
 20 22  2  0  0  0  0
 17 18  1  0  0  0  0
 17 19  1  0  0  0  0
 17 20  1  0  0  0  0
 14 15  1  0  0  0  0
 14 16  1  0  0  0  0
 14 17  1  0  0  0  0
 11 12  1  0  0  0  0
 11 13  1  0  0  0  0
 11 14  1  0  0  0  0
  9 10  1  0  0  0  0
  9 11  1  0  0  0  0
  9 29  1  0  0  0  0
  7  8  1  0  0  0  0
  7  9  1  0  0  0  0
 33 34  1  0  0  0  0
 33 35  1  0  0  0  0
 33 36  1  0  0  0  0
 31 32  1  0  0  0  0
 31 33  1  0  0  0  0
M  CHG  1  20   1
M  END
$$$$
default_name
  -OEChem-01062215323D

 36 35  0     1  0  0  0  0  0999 V2000
   -4.2256   -3.6731    1.8584 H   0  0  0  0  0  0  0  0  0  0  0  0
   -4.2396   -2.6781    1.4144 C   0  0  0  0  0  0  0  0  0  0  0  0
   -4.9506   -2.0521    1.9514 H   0  0  0  0  0  0  0  0  0  0  0  0
   -4.5266   -2.7521    0.3674 H   0  0  0  0  0  0  0  0  0  0  0  0
   -2.8576   -2.0761    1.5184 C   0  0  0  0  0  0  0  0  0  0  0  0
   -1.9456   -2.7051    2.0404 O   0  0  0  0  0  0  0  0  0  0  0  0
   -2.6926   -0.8481    1.0174 N   0  0  0  0  0  0  0  0  0  0  0  0
   -3.4926   -0.3971    0.5954 H   0  0  0  0  0  0  0  0  0  0  0  0
   -1.4216   -0.1071    1.0434 C   0  0  1  0  0  0  0  0  0  0  0  0
   -0.9862   -0.1358    0.0433 H   0  0  0  0  0  0  0  0  0  0  0  0
   -1.7195    1.3598    1.4129 C   0  0  0  0  0  0  0  0  0  0  0  0
   -2.2960    1.3754    2.3401 H   0  0  0  0  0  0  0  0  0  0  0  0
   -0.7767    1.8816    1.5910 H   0  0  0  0  0  0  0  0  0  0  0  0
   -2.5163    2.1116    0.3367 C   0  0  0  0  0  0  0  0  0  0  0  0
   -1.9554    2.1204   -0.5989 H   0  0  0  0  0  0  0  0  0  0  0  0
   -3.4719    1.6103    0.1792 H   0  0  0  0  0  0  0  0  0  0  0  0
   -2.7665    3.5575    0.7864 C   0  0  0  0  0  0  0  0  0  0  0  0
   -3.3049    3.5389    1.7367 H   0  0  0  0  0  0  0  0  0  0  0  0
   -1.8013    4.0465    0.9375 H   0  0  0  0  0  0  0  0  0  0  0  0
   -3.5523    4.3135   -0.2105 N   0  3  0  0  0  0  0  0  0  0  0  0
   -3.7863    3.8312   -1.0613 H   0  0  0  0  0  0  0  0  0  0  0  0
   -3.9758    5.5605   -0.0892 C   0  0  0  0  0  0  0  0  0  0  0  0
   -3.7284    6.2765    0.9716 N   0  0  0  0  0  0  0  0  0  0  0  0
   -3.2000    5.8651    1.7206 H   0  0  0  0  0  0  0  0  0  0  0  0
   -4.0568    7.2217    1.0475 H   0  0  0  0  0  0  0  0  0  0  0  0
   -4.6637    6.1195   -1.0440 N   0  0  0  0  0  0  0  0  0  0  0  0
   -4.8799    5.6070   -1.8816 H   0  0  0  0  0  0  0  0  0  0  0  0
   -4.9831    7.0658   -0.9479 H   0  0  0  0  0  0  0  0  0  0  0  0
   -0.4436   -0.7553    2.0256 C   0  0  0  0  0  0  0  0  0  0  0  0
    0.2960   -1.6526    1.6396 O   0  0  0  0  0  0  0  0  0  0  0  0
   -0.4739   -0.3238    3.2904 N   0  0  0  0  0  0  0  0  0  0  0  0
   -1.0870    0.4436    3.5118 H   0  0  0  0  0  0  0  0  0  0  0  0
    0.3946   -0.8364    4.3514 C   0  0  0  0  0  0  0  0  0  0  0  0
    1.4366   -0.6068    4.1189 H   0  0  0  0  0  0  0  0  0  0  0  0
    0.1351   -0.3810    5.3080 H   0  0  0  0  0  0  0  0  0  0  0  0
    0.2896   -1.9207    4.4289 H   0  0  0  0  0  0  0  0  0  0  0  0
  5  6  2  0  0  0  0
  5  7  1  0  0  0  0
  2  3  1  0  0  0  0
  2  4  1  0  0  0  0
  2  5  1  0  0  0  0
  1  2  1  0  0  0  0
 29 30  2  0  0  0  0
 29 31  1  0  0  0  0
 26 27  1  0  0  0  0
 26 28  1  0  0  0  0
 23 24  1  0  0  0  0
 23 25  1  0  0  0  0
 22 23  1  0  0  0  0
 22 26  1  0  0  0  0
 20 21  1  0  0  0  0
 20 22  2  0  0  0  0
 17 18  1  0  0  0  0
 17 19  1  0  0  0  0
 17 20  1  0  0  0  0
 14 15  1  0  0  0  0
 14 16  1  0  0  0  0
 14 17  1  0  0  0  0
 11 12  1  0  0  0  0
 11 13  1  0  0  0  0
 11 14  1  0  0  0  0
  9 10  1  0  0  0  0
  9 11  1  0  0  0  0
  9 29  1  0  0  0  0
  7  8  1  0  0  0  0
  7  9  1  0  0  0  0
 33 34  1  0  0  0  0
 33 35  1  0  0  0  0
 33 36  1  0  0  0  0
 31 32  1  0  0  0  0
 31 33  1  0  0  0  0
M  CHG  1  20   1
M  END
$$$$
default_name
  -OEChem-01062215323D

 36 35  0     1  0  0  0  0  0999 V2000
   -4.2256   -3.6731    1.8584 H   0  0  0  0  0  0  0  0  0  0  0  0
   -4.2396   -2.6781    1.4144 C   0  0  0  0  0  0  0  0  0  0  0  0
   -4.9506   -2.0521    1.9514 H   0  0  0  0  0  0  0  0  0  0  0  0
   -4.5266   -2.7521    0.3674 H   0  0  0  0  0  0  0  0  0  0  0  0
   -2.8576   -2.0761    1.5184 C   0  0  0  0  0  0  0  0  0  0  0  0
   -1.9456   -2.7051    2.0404 O   0  0  0  0  0  0  0  0  0  0  0  0
   -2.6926   -0.8481    1.0174 N   0  0  0  0  0  0  0  0  0  0  0  0
   -3.4926   -0.3971    0.5954 H   0  0  0  0  0  0  0  0  0  0  0  0
   -1.4216   -0.1071    1.0434 C   0  0  1  0  0  0  0  0  0  0  0  0
   -0.9862   -0.1358    0.0433 H   0  0  0  0  0  0  0  0  0  0  0  0
   -1.7195    1.3598    1.4129 C   0  0  0  0  0  0  0  0  0  0  0  0
   -2.2960    1.3754    2.3401 H   0  0  0  0  0  0  0  0  0  0  0  0
   -0.7767    1.8816    1.5910 H   0  0  0  0  0  0  0  0  0  0  0  0
   -2.5163    2.1116    0.3367 C   0  0  0  0  0  0  0  0  0  0  0  0
   -1.9554    2.1204   -0.5989 H   0  0  0  0  0  0  0  0  0  0  0  0
   -3.4719    1.6103    0.1792 H   0  0  0  0  0  0  0  0  0  0  0  0
   -2.7665    3.5575    0.7864 C   0  0  0  0  0  0  0  0  0  0  0  0
   -3.3049    3.5389    1.7367 H   0  0  0  0  0  0  0  0  0  0  0  0
   -1.8013    4.0465    0.9375 H   0  0  0  0  0  0  0  0  0  0  0  0
   -3.5523    4.3135   -0.2105 N   0  3  0  0  0  0  0  0  0  0  0  0
   -3.7863    3.8312   -1.0613 H   0  0  0  0  0  0  0  0  0  0  0  0
   -3.9758    5.5605   -0.0892 C   0  0  0  0  0  0  0  0  0  0  0  0
   -3.7284    6.2765    0.9716 N   0  0  0  0  0  0  0  0  0  0  0  0
   -3.2000    5.8651    1.7206 H   0  0  0  0  0  0  0  0  0  0  0  0
   -4.0568    7.2217    1.0475 H   0  0  0  0  0  0  0  0  0  0  0  0
   -4.6637    6.1195   -1.0440 N   0  0  0  0  0  0  0  0  0  0  0  0
   -4.8799    5.6070   -1.8816 H   0  0  0  0  0  0  0  0  0  0  0  0
   -4.9831    7.0658   -0.9479 H   0  0  0  0  0  0  0  0  0  0  0  0
   -0.4436   -0.7553    2.0256 C   0  0  0  0  0  0  0  0  0  0  0  0
    0.4754   -1.4440    1.5987 O   0  0  0  0  0  0  0  0  0  0  0  0
   -0.6699   -0.5616    3.3287 N   0  0  0  0  0  0  0  0  0  0  0  0
   -1.4264    0.0495    3.5897 H   0  0  0  0  0  0  0  0  0  0  0  0
    0.1694   -1.1089    4.3958 C   0  0  0  0  0  0  0  0  0  0  0  0
    1.1725   -0.6816    4.3326 H   0  0  0  0  0  0  0  0  0  0  0  0
   -0.2562   -0.8741    5.3723 H   0  0  0  0  0  0  0  0  0  0  0  0
    0.2493   -2.1929    4.2894 H   0  0  0  0  0  0  0  0  0  0  0  0
  5  6  2  0  0  0  0
  5  7  1  0  0  0  0
  2  3  1  0  0  0  0
  2  4  1  0  0  0  0
  2  5  1  0  0  0  0
  1  2  1  0  0  0  0
 29 30  2  0  0  0  0
 29 31  1  0  0  0  0
 26 27  1  0  0  0  0
 26 28  1  0  0  0  0
 23 24  1  0  0  0  0
 23 25  1  0  0  0  0
 22 23  1  0  0  0  0
 22 26  1  0  0  0  0
 20 21  1  0  0  0  0
 20 22  2  0  0  0  0
 17 18  1  0  0  0  0
 17 19  1  0  0  0  0
 17 20  1  0  0  0  0
 14 15  1  0  0  0  0
 14 16  1  0  0  0  0
 14 17  1  0  0  0  0
 11 12  1  0  0  0  0
 11 13  1  0  0  0  0
 11 14  1  0  0  0  0
  9 10  1  0  0  0  0
  9 11  1  0  0  0  0
  9 29  1  0  0  0  0
  7  8  1  0  0  0  0
  7  9  1  0  0  0  0
 33 34  1  0  0  0  0
 33 35  1  0  0  0  0
 33 36  1  0  0  0  0
 31 32  1  0  0  0  0
 31 33  1  0  0  0  0
M  CHG  1  20   1
M  END
$$$$
default_name
  -OEChem-01062215323D

 36 35  0     1  0  0  0  0  0999 V2000
   -4.2256   -3.6731    1.8584 H   0  0  0  0  0  0  0  0  0  0  0  0
   -4.2396   -2.6781    1.4144 C   0  0  0  0  0  0  0  0  0  0  0  0
   -4.9506   -2.0521    1.9514 H   0  0  0  0  0  0  0  0  0  0  0  0
   -4.5266   -2.7521    0.3674 H   0  0  0  0  0  0  0  0  0  0  0  0
   -2.8576   -2.0761    1.5184 C   0  0  0  0  0  0  0  0  0  0  0  0
   -1.9456   -2.7051    2.0404 O   0  0  0  0  0  0  0  0  0  0  0  0
   -2.6926   -0.8481    1.0174 N   0  0  0  0  0  0  0  0  0  0  0  0
   -3.4926   -0.3971    0.5954 H   0  0  0  0  0  0  0  0  0  0  0  0
   -1.4216   -0.1071    1.0434 C   0  0  1  0  0  0  0  0  0  0  0  0
   -0.9862   -0.1358    0.0433 H   0  0  0  0  0  0  0  0  0  0  0  0
   -1.7195    1.3598    1.4129 C   0  0  0  0  0  0  0  0  0  0  0  0
   -2.2960    1.3754    2.3401 H   0  0  0  0  0  0  0  0  0  0  0  0
   -0.7767    1.8816    1.5910 H   0  0  0  0  0  0  0  0  0  0  0  0
   -2.5163    2.1116    0.3367 C   0  0  0  0  0  0  0  0  0  0  0  0
   -1.9554    2.1204   -0.5989 H   0  0  0  0  0  0  0  0  0  0  0  0
   -3.4719    1.6103    0.1792 H   0  0  0  0  0  0  0  0  0  0  0  0
   -2.7665    3.5575    0.7864 C   0  0  0  0  0  0  0  0  0  0  0  0
   -3.3049    3.5389    1.7367 H   0  0  0  0  0  0  0  0  0  0  0  0
   -1.8013    4.0465    0.9375 H   0  0  0  0  0  0  0  0  0  0  0  0
   -3.5523    4.3135   -0.2105 N   0  3  0  0  0  0  0  0  0  0  0  0
   -3.7863    3.8312   -1.0613 H   0  0  0  0  0  0  0  0  0  0  0  0
   -3.9758    5.5605   -0.0892 C   0  0  0  0  0  0  0  0  0  0  0  0
   -3.7284    6.2765    0.9716 N   0  0  0  0  0  0  0  0  0  0  0  0
   -3.2000    5.8651    1.7206 H   0  0  0  0  0  0  0  0  0  0  0  0
   -4.0568    7.2217    1.0475 H   0  0  0  0  0  0  0  0  0  0  0  0
   -4.6637    6.1195   -1.0440 N   0  0  0  0  0  0  0  0  0  0  0  0
   -4.8799    5.6070   -1.8816 H   0  0  0  0  0  0  0  0  0  0  0  0
   -4.9831    7.0658   -0.9479 H   0  0  0  0  0  0  0  0  0  0  0  0
   -0.4436   -0.7553    2.0256 C   0  0  0  0  0  0  0  0  0  0  0  0
    0.6185   -1.2060    1.6133 O   0  0  0  0  0  0  0  0  0  0  0  0
   -0.8240   -0.8301    3.3048 N   0  0  0  0  0  0  0  0  0  0  0  0
   -1.6974   -0.4004    3.5625 H   0  0  0  0  0  0  0  0  0  0  0  0
   -0.0077   -1.4169    4.3689 C   0  0  0  0  0  0  0  0  0  0  0  0
    0.9063   -0.8331    4.4976 H   0  0  0  0  0  0  0  0  0  0  0  0
   -0.5593   -1.4260    5.3098 H   0  0  0  0  0  0  0  0  0  0  0  0
    0.2708   -2.4395    4.1052 H   0  0  0  0  0  0  0  0  0  0  0  0
  5  6  2  0  0  0  0
  5  7  1  0  0  0  0
  2  3  1  0  0  0  0
  2  4  1  0  0  0  0
  2  5  1  0  0  0  0
  1  2  1  0  0  0  0
 29 30  2  0  0  0  0
 29 31  1  0  0  0  0
 26 27  1  0  0  0  0
 26 28  1  0  0  0  0
 23 24  1  0  0  0  0
 23 25  1  0  0  0  0
 22 23  1  0  0  0  0
 22 26  1  0  0  0  0
 20 21  1  0  0  0  0
 20 22  2  0  0  0  0
 17 18  1  0  0  0  0
 17 19  1  0  0  0  0
 17 20  1  0  0  0  0
 14 15  1  0  0  0  0
 14 16  1  0  0  0  0
 14 17  1  0  0  0  0
 11 12  1  0  0  0  0
 11 13  1  0  0  0  0
 11 14  1  0  0  0  0
  9 10  1  0  0  0  0
  9 11  1  0  0  0  0
  9 29  1  0  0  0  0
  7  8  1  0  0  0  0
  7  9  1  0  0  0  0
 33 34  1  0  0  0  0
 33 35  1  0  0  0  0
 33 36  1  0  0  0  0
 31 32  1  0  0  0  0
 31 33  1  0  0  0  0
M  CHG  1  20   1
M  END
$$$$
default_name
  -OEChem-01062215323D

 36 35  0     1  0  0  0  0  0999 V2000
   -4.2256   -3.6731    1.8584 H   0  0  0  0  0  0  0  0  0  0  0  0
   -4.2396   -2.6781    1.4144 C   0  0  0  0  0  0  0  0  0  0  0  0
   -4.9506   -2.0521    1.9514 H   0  0  0  0  0  0  0  0  0  0  0  0
   -4.5266   -2.7521    0.3674 H   0  0  0  0  0  0  0  0  0  0  0  0
   -2.8576   -2.0761    1.5184 C   0  0  0  0  0  0  0  0  0  0  0  0
   -1.9456   -2.7051    2.0404 O   0  0  0  0  0  0  0  0  0  0  0  0
   -2.6926   -0.8481    1.0174 N   0  0  0  0  0  0  0  0  0  0  0  0
   -3.4926   -0.3971    0.5954 H   0  0  0  0  0  0  0  0  0  0  0  0
   -1.4216   -0.1071    1.0434 C   0  0  1  0  0  0  0  0  0  0  0  0
   -0.9862   -0.1358    0.0433 H   0  0  0  0  0  0  0  0  0  0  0  0
   -1.7195    1.3598    1.4129 C   0  0  0  0  0  0  0  0  0  0  0  0
   -2.2960    1.3754    2.3401 H   0  0  0  0  0  0  0  0  0  0  0  0
   -0.7767    1.8816    1.5910 H   0  0  0  0  0  0  0  0  0  0  0  0
   -2.5163    2.1116    0.3367 C   0  0  0  0  0  0  0  0  0  0  0  0
   -1.9554    2.1204   -0.5989 H   0  0  0  0  0  0  0  0  0  0  0  0
   -3.4719    1.6103    0.1792 H   0  0  0  0  0  0  0  0  0  0  0  0
   -2.7665    3.5575    0.7864 C   0  0  0  0  0  0  0  0  0  0  0  0
   -3.3049    3.5389    1.7367 H   0  0  0  0  0  0  0  0  0  0  0  0
   -1.8013    4.0465    0.9375 H   0  0  0  0  0  0  0  0  0  0  0  0
   -3.5523    4.3135   -0.2105 N   0  3  0  0  0  0  0  0  0  0  0  0
   -3.7863    3.8312   -1.0613 H   0  0  0  0  0  0  0  0  0  0  0  0
   -3.9758    5.5605   -0.0892 C   0  0  0  0  0  0  0  0  0  0  0  0
   -3.7284    6.2765    0.9716 N   0  0  0  0  0  0  0  0  0  0  0  0
   -3.2000    5.8651    1.7206 H   0  0  0  0  0  0  0  0  0  0  0  0
   -4.0568    7.2217    1.0475 H   0  0  0  0  0  0  0  0  0  0  0  0
   -4.6637    6.1195   -1.0440 N   0  0  0  0  0  0  0  0  0  0  0  0
   -4.8799    5.6070   -1.8816 H   0  0  0  0  0  0  0  0  0  0  0  0
   -4.9831    7.0658   -0.9479 H   0  0  0  0  0  0  0  0  0  0  0  0
   -0.4436   -0.7553    2.0256 C   0  0  0  0  0  0  0  0  0  0  0  0
    0.7155   -0.9547    1.6824 O   0  0  0  0  0  0  0  0  0  0  0  0
   -0.9256   -1.1112    3.2205 N   0  0  0  0  0  0  0  0  0  0  0  0
   -1.8814   -0.8756    3.4322 H   0  0  0  0  0  0  0  0  0  0  0  0
   -0.1246   -1.7393    4.2725 C   0  0  0  0  0  0  0  0  0  0  0  0
    0.6562   -1.0509    4.6028 H   0  0  0  0  0  0  0  0  0  0  0  0
   -0.7535   -1.9991    5.1250 H   0  0  0  0  0  0  0  0  0  0  0  0
    0.3529   -2.6436    3.8888 H   0  0  0  0  0  0  0  0  0  0  0  0
  5  6  2  0  0  0  0
  5  7  1  0  0  0  0
  2  3  1  0  0  0  0
  2  4  1  0  0  0  0
  2  5  1  0  0  0  0
  1  2  1  0  0  0  0
 29 30  2  0  0  0  0
 29 31  1  0  0  0  0
 26 27  1  0  0  0  0
 26 28  1  0  0  0  0
 23 24  1  0  0  0  0
 23 25  1  0  0  0  0
 22 23  1  0  0  0  0
 22 26  1  0  0  0  0
 20 21  1  0  0  0  0
 20 22  2  0  0  0  0
 17 18  1  0  0  0  0
 17 19  1  0  0  0  0
 17 20  1  0  0  0  0
 14 15  1  0  0  0  0
 14 16  1  0  0  0  0
 14 17  1  0  0  0  0
 11 12  1  0  0  0  0
 11 13  1  0  0  0  0
 11 14  1  0  0  0  0
  9 10  1  0  0  0  0
  9 11  1  0  0  0  0
  9 29  1  0  0  0  0
  7  8  1  0  0  0  0
  7  9  1  0  0  0  0
 33 34  1  0  0  0  0
 33 35  1  0  0  0  0
 33 36  1  0  0  0  0
 31 32  1  0  0  0  0
 31 33  1  0  0  0  0
M  CHG  1  20   1
M  END
$$$$
default_name
  -OEChem-01062215323D

 36 35  0     1  0  0  0  0  0999 V2000
   -4.2256   -3.6731    1.8584 H   0  0  0  0  0  0  0  0  0  0  0  0
   -4.2396   -2.6781    1.4144 C   0  0  0  0  0  0  0  0  0  0  0  0
   -4.9506   -2.0521    1.9514 H   0  0  0  0  0  0  0  0  0  0  0  0
   -4.5266   -2.7521    0.3674 H   0  0  0  0  0  0  0  0  0  0  0  0
   -2.8576   -2.0761    1.5184 C   0  0  0  0  0  0  0  0  0  0  0  0
   -1.9456   -2.7051    2.0404 O   0  0  0  0  0  0  0  0  0  0  0  0
   -2.6926   -0.8481    1.0174 N   0  0  0  0  0  0  0  0  0  0  0  0
   -3.4926   -0.3971    0.5954 H   0  0  0  0  0  0  0  0  0  0  0  0
   -1.4216   -0.1071    1.0434 C   0  0  1  0  0  0  0  0  0  0  0  0
   -0.9862   -0.1358    0.0433 H   0  0  0  0  0  0  0  0  0  0  0  0
   -1.7195    1.3598    1.4129 C   0  0  0  0  0  0  0  0  0  0  0  0
   -2.2960    1.3754    2.3401 H   0  0  0  0  0  0  0  0  0  0  0  0
   -0.7767    1.8816    1.5910 H   0  0  0  0  0  0  0  0  0  0  0  0
   -2.5163    2.1116    0.3367 C   0  0  0  0  0  0  0  0  0  0  0  0
   -1.9554    2.1204   -0.5989 H   0  0  0  0  0  0  0  0  0  0  0  0
   -3.4719    1.6103    0.1792 H   0  0  0  0  0  0  0  0  0  0  0  0
   -2.7665    3.5575    0.7864 C   0  0  0  0  0  0  0  0  0  0  0  0
   -3.3049    3.5389    1.7367 H   0  0  0  0  0  0  0  0  0  0  0  0
   -1.8013    4.0465    0.9375 H   0  0  0  0  0  0  0  0  0  0  0  0
   -3.5523    4.3135   -0.2105 N   0  3  0  0  0  0  0  0  0  0  0  0
   -3.7863    3.8312   -1.0613 H   0  0  0  0  0  0  0  0  0  0  0  0
   -3.9758    5.5605   -0.0892 C   0  0  0  0  0  0  0  0  0  0  0  0
   -3.7284    6.2765    0.9716 N   0  0  0  0  0  0  0  0  0  0  0  0
   -3.2000    5.8651    1.7206 H   0  0  0  0  0  0  0  0  0  0  0  0
   -4.0568    7.2217    1.0475 H   0  0  0  0  0  0  0  0  0  0  0  0
   -4.6637    6.1195   -1.0440 N   0  0  0  0  0  0  0  0  0  0  0  0
   -4.8799    5.6070   -1.8816 H   0  0  0  0  0  0  0  0  0  0  0  0
   -4.9831    7.0658   -0.9479 H   0  0  0  0  0  0  0  0  0  0  0  0
   -0.4436   -0.7553    2.0256 C   0  0  0  0  0  0  0  0  0  0  0  0
    0.7600   -0.7073    1.8015 O   0  0  0  0  0  0  0  0  0  0  0  0
   -0.9677   -1.3856    3.0814 N   0  0  0  0  0  0  0  0  0  0  0  0
   -1.9658   -1.3435    3.2075 H   0  0  0  0  0  0  0  0  0  0  0  0
   -0.1734   -2.0543    4.1132 C   0  0  0  0  0  0  0  0  0  0  0  0
    0.4394   -1.3203    4.6410 H   0  0  0  0  0  0  0  0  0  0  0  0
   -0.8256   -2.5544    4.8303 H   0  0  0  0  0  0  0  0  0  0  0  0
    0.4897   -2.7913    3.6551 H   0  0  0  0  0  0  0  0  0  0  0  0
  5  6  2  0  0  0  0
  5  7  1  0  0  0  0
  2  3  1  0  0  0  0
  2  4  1  0  0  0  0
  2  5  1  0  0  0  0
  1  2  1  0  0  0  0
 29 30  2  0  0  0  0
 29 31  1  0  0  0  0
 26 27  1  0  0  0  0
 26 28  1  0  0  0  0
 23 24  1  0  0  0  0
 23 25  1  0  0  0  0
 22 23  1  0  0  0  0
 22 26  1  0  0  0  0
 20 21  1  0  0  0  0
 20 22  2  0  0  0  0
 17 18  1  0  0  0  0
 17 19  1  0  0  0  0
 17 20  1  0  0  0  0
 14 15  1  0  0  0  0
 14 16  1  0  0  0  0
 14 17  1  0  0  0  0
 11 12  1  0  0  0  0
 11 13  1  0  0  0  0
 11 14  1  0  0  0  0
  9 10  1  0  0  0  0
  9 11  1  0  0  0  0
  9 29  1  0  0  0  0
  7  8  1  0  0  0  0
  7  9  1  0  0  0  0
 33 34  1  0  0  0  0
 33 35  1  0  0  0  0
 33 36  1  0  0  0  0
 31 32  1  0  0  0  0
 31 33  1  0  0  0  0
M  CHG  1  20   1
M  END
$$$$
default_name
  -OEChem-01062215323D

 36 35  0     1  0  0  0  0  0999 V2000
   -4.2256   -3.6731    1.8584 H   0  0  0  0  0  0  0  0  0  0  0  0
   -4.2396   -2.6781    1.4144 C   0  0  0  0  0  0  0  0  0  0  0  0
   -4.9506   -2.0521    1.9514 H   0  0  0  0  0  0  0  0  0  0  0  0
   -4.5266   -2.7521    0.3674 H   0  0  0  0  0  0  0  0  0  0  0  0
   -2.8576   -2.0761    1.5184 C   0  0  0  0  0  0  0  0  0  0  0  0
   -1.9456   -2.7051    2.0404 O   0  0  0  0  0  0  0  0  0  0  0  0
   -2.6926   -0.8481    1.0174 N   0  0  0  0  0  0  0  0  0  0  0  0
   -3.4926   -0.3971    0.5954 H   0  0  0  0  0  0  0  0  0  0  0  0
   -1.4216   -0.1071    1.0434 C   0  0  1  0  0  0  0  0  0  0  0  0
   -0.9862   -0.1358    0.0433 H   0  0  0  0  0  0  0  0  0  0  0  0
   -1.7195    1.3598    1.4129 C   0  0  0  0  0  0  0  0  0  0  0  0
   -2.2960    1.3754    2.3401 H   0  0  0  0  0  0  0  0  0  0  0  0
   -0.7767    1.8816    1.5910 H   0  0  0  0  0  0  0  0  0  0  0  0
   -2.5163    2.1116    0.3367 C   0  0  0  0  0  0  0  0  0  0  0  0
   -1.9554    2.1204   -0.5989 H   0  0  0  0  0  0  0  0  0  0  0  0
   -3.4719    1.6103    0.1792 H   0  0  0  0  0  0  0  0  0  0  0  0
   -2.7665    3.5575    0.7864 C   0  0  0  0  0  0  0  0  0  0  0  0
   -3.3049    3.5389    1.7367 H   0  0  0  0  0  0  0  0  0  0  0  0
   -1.8013    4.0465    0.9375 H   0  0  0  0  0  0  0  0  0  0  0  0
   -3.5523    4.3135   -0.2105 N   0  3  0  0  0  0  0  0  0  0  0  0
   -3.7863    3.8312   -1.0613 H   0  0  0  0  0  0  0  0  0  0  0  0
   -3.9758    5.5605   -0.0892 C   0  0  0  0  0  0  0  0  0  0  0  0
   -3.7284    6.2765    0.9716 N   0  0  0  0  0  0  0  0  0  0  0  0
   -3.2000    5.8651    1.7206 H   0  0  0  0  0  0  0  0  0  0  0  0
   -4.0568    7.2217    1.0475 H   0  0  0  0  0  0  0  0  0  0  0  0
   -4.6637    6.1195   -1.0440 N   0  0  0  0  0  0  0  0  0  0  0  0
   -4.8799    5.6070   -1.8816 H   0  0  0  0  0  0  0  0  0  0  0  0
   -4.9831    7.0658   -0.9479 H   0  0  0  0  0  0  0  0  0  0  0  0
   -0.4436   -0.7553    2.0256 C   0  0  0  0  0  0  0  0  0  0  0  0
    0.7487   -0.4807    1.9622 O   0  0  0  0  0  0  0  0  0  0  0  0
   -0.9476   -1.6347    2.8970 N   0  0  0  0  0  0  0  0  0  0  0  0
   -1.9451   -1.7724    2.9038 H   0  0  0  0  0  0  0  0  0  0  0  0
   -0.1508   -2.3402    3.9020 C   0  0  0  0  0  0  0  0  0  0  0  0
    0.2705   -1.6229    4.6095 H   0  0  0  0  0  0  0  0  0  0  0  0
   -0.7707   -3.0540    4.4460 H   0  0  0  0  0  0  0  0  0  0  0  0
    0.6721   -2.8726    3.4199 H   0  0  0  0  0  0  0  0  0  0  0  0
  5  6  2  0  0  0  0
  5  7  1  0  0  0  0
  2  3  1  0  0  0  0
  2  4  1  0  0  0  0
  2  5  1  0  0  0  0
  1  2  1  0  0  0  0
 29 30  2  0  0  0  0
 29 31  1  0  0  0  0
 26 27  1  0  0  0  0
 26 28  1  0  0  0  0
 23 24  1  0  0  0  0
 23 25  1  0  0  0  0
 22 23  1  0  0  0  0
 22 26  1  0  0  0  0
 20 21  1  0  0  0  0
 20 22  2  0  0  0  0
 17 18  1  0  0  0  0
 17 19  1  0  0  0  0
 17 20  1  0  0  0  0
 14 15  1  0  0  0  0
 14 16  1  0  0  0  0
 14 17  1  0  0  0  0
 11 12  1  0  0  0  0
 11 13  1  0  0  0  0
 11 14  1  0  0  0  0
  9 10  1  0  0  0  0
  9 11  1  0  0  0  0
  9 29  1  0  0  0  0
  7  8  1  0  0  0  0
  7  9  1  0  0  0  0
 33 34  1  0  0  0  0
 33 35  1  0  0  0  0
 33 36  1  0  0  0  0
 31 32  1  0  0  0  0
 31 33  1  0  0  0  0
M  CHG  1  20   1
M  END
$$$$
default_name
  -OEChem-01062215323D

 36 35  0     1  0  0  0  0  0999 V2000
   -4.2256   -3.6731    1.8584 H   0  0  0  0  0  0  0  0  0  0  0  0
   -4.2396   -2.6781    1.4144 C   0  0  0  0  0  0  0  0  0  0  0  0
   -4.9506   -2.0521    1.9514 H   0  0  0  0  0  0  0  0  0  0  0  0
   -4.5266   -2.7521    0.3674 H   0  0  0  0  0  0  0  0  0  0  0  0
   -2.8576   -2.0761    1.5184 C   0  0  0  0  0  0  0  0  0  0  0  0
   -1.9456   -2.7051    2.0404 O   0  0  0  0  0  0  0  0  0  0  0  0
   -2.6926   -0.8481    1.0174 N   0  0  0  0  0  0  0  0  0  0  0  0
   -3.4926   -0.3971    0.5954 H   0  0  0  0  0  0  0  0  0  0  0  0
   -1.4216   -0.1071    1.0434 C   0  0  1  0  0  0  0  0  0  0  0  0
   -0.9862   -0.1358    0.0433 H   0  0  0  0  0  0  0  0  0  0  0  0
   -1.7195    1.3598    1.4129 C   0  0  0  0  0  0  0  0  0  0  0  0
   -2.2960    1.3754    2.3401 H   0  0  0  0  0  0  0  0  0  0  0  0
   -0.7767    1.8816    1.5910 H   0  0  0  0  0  0  0  0  0  0  0  0
   -2.5163    2.1116    0.3367 C   0  0  0  0  0  0  0  0  0  0  0  0
   -1.9554    2.1204   -0.5989 H   0  0  0  0  0  0  0  0  0  0  0  0
   -3.4719    1.6103    0.1792 H   0  0  0  0  0  0  0  0  0  0  0  0
   -2.7665    3.5575    0.7864 C   0  0  0  0  0  0  0  0  0  0  0  0
   -3.3049    3.5389    1.7367 H   0  0  0  0  0  0  0  0  0  0  0  0
   -1.8013    4.0465    0.9375 H   0  0  0  0  0  0  0  0  0  0  0  0
   -3.5523    4.3135   -0.2105 N   0  3  0  0  0  0  0  0  0  0  0  0
   -3.7863    3.8312   -1.0613 H   0  0  0  0  0  0  0  0  0  0  0  0
   -3.9758    5.5605   -0.0892 C   0  0  0  0  0  0  0  0  0  0  0  0
   -3.7284    6.2765    0.9716 N   0  0  0  0  0  0  0  0  0  0  0  0
   -3.2000    5.8651    1.7206 H   0  0  0  0  0  0  0  0  0  0  0  0
   -4.0568    7.2217    1.0475 H   0  0  0  0  0  0  0  0  0  0  0  0
   -4.6637    6.1195   -1.0440 N   0  0  0  0  0  0  0  0  0  0  0  0
   -4.8799    5.6070   -1.8816 H   0  0  0  0  0  0  0  0  0  0  0  0
   -4.9831    7.0658   -0.9479 H   0  0  0  0  0  0  0  0  0  0  0  0
   -0.4436   -0.7553    2.0256 C   0  0  0  0  0  0  0  0  0  0  0  0
    0.6826   -0.2902    2.1538 O   0  0  0  0  0  0  0  0  0  0  0  0
   -0.8666   -1.8414    2.6799 N   0  0  0  0  0  0  0  0  0  0  0  0
   -1.8205   -2.1330    2.5417 H   0  0  0  0  0  0  0  0  0  0  0  0
   -0.0582   -2.5778    3.6531 C   0  0  0  0  0  0  0  0  0  0  0  0
    0.1610   -1.9380    4.5105 H   0  0  0  0  0  0  0  0  0  0  0  0
   -0.5925   -3.4639    3.9981 H   0  0  0  0  0  0  0  0  0  0  0  0
    0.8875   -2.8819    3.1992 H   0  0  0  0  0  0  0  0  0  0  0  0
  5  6  2  0  0  0  0
  5  7  1  0  0  0  0
  2  3  1  0  0  0  0
  2  4  1  0  0  0  0
  2  5  1  0  0  0  0
  1  2  1  0  0  0  0
 29 30  2  0  0  0  0
 29 31  1  0  0  0  0
 26 27  1  0  0  0  0
 26 28  1  0  0  0  0
 23 24  1  0  0  0  0
 23 25  1  0  0  0  0
 22 23  1  0  0  0  0
 22 26  1  0  0  0  0
 20 21  1  0  0  0  0
 20 22  2  0  0  0  0
 17 18  1  0  0  0  0
 17 19  1  0  0  0  0
 17 20  1  0  0  0  0
 14 15  1  0  0  0  0
 14 16  1  0  0  0  0
 14 17  1  0  0  0  0
 11 12  1  0  0  0  0
 11 13  1  0  0  0  0
 11 14  1  0  0  0  0
  9 10  1  0  0  0  0
  9 11  1  0  0  0  0
  9 29  1  0  0  0  0
  7  8  1  0  0  0  0
  7  9  1  0  0  0  0
 33 34  1  0  0  0  0
 33 35  1  0  0  0  0
 33 36  1  0  0  0  0
 31 32  1  0  0  0  0
 31 33  1  0  0  0  0
M  CHG  1  20   1
M  END
$$$$
default_name
  -OEChem-01062215323D

 36 35  0     1  0  0  0  0  0999 V2000
   -4.2256   -3.6731    1.8584 H   0  0  0  0  0  0  0  0  0  0  0  0
   -4.2396   -2.6781    1.4144 C   0  0  0  0  0  0  0  0  0  0  0  0
   -4.9506   -2.0521    1.9514 H   0  0  0  0  0  0  0  0  0  0  0  0
   -4.5266   -2.7521    0.3674 H   0  0  0  0  0  0  0  0  0  0  0  0
   -2.8576   -2.0761    1.5184 C   0  0  0  0  0  0  0  0  0  0  0  0
   -1.9456   -2.7051    2.0404 O   0  0  0  0  0  0  0  0  0  0  0  0
   -2.6926   -0.8481    1.0174 N   0  0  0  0  0  0  0  0  0  0  0  0
   -3.4926   -0.3971    0.5954 H   0  0  0  0  0  0  0  0  0  0  0  0
   -1.4216   -0.1071    1.0434 C   0  0  1  0  0  0  0  0  0  0  0  0
   -0.9862   -0.1358    0.0433 H   0  0  0  0  0  0  0  0  0  0  0  0
   -1.7195    1.3598    1.4129 C   0  0  0  0  0  0  0  0  0  0  0  0
   -2.2960    1.3754    2.3401 H   0  0  0  0  0  0  0  0  0  0  0  0
   -0.7767    1.8816    1.5910 H   0  0  0  0  0  0  0  0  0  0  0  0
   -2.5163    2.1116    0.3367 C   0  0  0  0  0  0  0  0  0  0  0  0
   -1.9554    2.1204   -0.5989 H   0  0  0  0  0  0  0  0  0  0  0  0
   -3.4719    1.6103    0.1792 H   0  0  0  0  0  0  0  0  0  0  0  0
   -2.7665    3.5575    0.7864 C   0  0  0  0  0  0  0  0  0  0  0  0
   -3.3049    3.5389    1.7367 H   0  0  0  0  0  0  0  0  0  0  0  0
   -1.8013    4.0465    0.9375 H   0  0  0  0  0  0  0  0  0  0  0  0
   -3.5523    4.3135   -0.2105 N   0  3  0  0  0  0  0  0  0  0  0  0
   -3.7863    3.8312   -1.0613 H   0  0  0  0  0  0  0  0  0  0  0  0
   -3.9758    5.5605   -0.0892 C   0  0  0  0  0  0  0  0  0  0  0  0
   -3.7284    6.2765    0.9716 N   0  0  0  0  0  0  0  0  0  0  0  0
   -3.2000    5.8651    1.7206 H   0  0  0  0  0  0  0  0  0  0  0  0
   -4.0568    7.2217    1.0475 H   0  0  0  0  0  0  0  0  0  0  0  0
   -4.6637    6.1195   -1.0440 N   0  0  0  0  0  0  0  0  0  0  0  0
   -4.8799    5.6070   -1.8816 H   0  0  0  0  0  0  0  0  0  0  0  0
   -4.9831    7.0658   -0.9479 H   0  0  0  0  0  0  0  0  0  0  0  0
   -0.4436   -0.7553    2.0256 C   0  0  0  0  0  0  0  0  0  0  0  0
    0.5661   -0.1489    2.3631 O   0  0  0  0  0  0  0  0  0  0  0  0
   -0.7302   -1.9917    2.4449 N   0  0  0  0  0  0  0  0  0  0  0  0
   -1.6005   -2.4007    2.1460 H   0  0  0  0  0  0  0  0  0  0  0  0
    0.0979   -2.7506    3.3835 C   0  0  0  0  0  0  0  0  0  0  0  0
    0.1185   -2.2441    4.3508 H   0  0  0  0  0  0  0  0  0  0  0  0
   -0.3032   -3.7561    3.5172 H   0  0  0  0  0  0  0  0  0  0  0  0
    1.1213   -2.8186    3.0081 H   0  0  0  0  0  0  0  0  0  0  0  0
  5  6  2  0  0  0  0
  5  7  1  0  0  0  0
  2  3  1  0  0  0  0
  2  4  1  0  0  0  0
  2  5  1  0  0  0  0
  1  2  1  0  0  0  0
 29 30  2  0  0  0  0
 29 31  1  0  0  0  0
 26 27  1  0  0  0  0
 26 28  1  0  0  0  0
 23 24  1  0  0  0  0
 23 25  1  0  0  0  0
 22 23  1  0  0  0  0
 22 26  1  0  0  0  0
 20 21  1  0  0  0  0
 20 22  2  0  0  0  0
 17 18  1  0  0  0  0
 17 19  1  0  0  0  0
 17 20  1  0  0  0  0
 14 15  1  0  0  0  0
 14 16  1  0  0  0  0
 14 17  1  0  0  0  0
 11 12  1  0  0  0  0
 11 13  1  0  0  0  0
 11 14  1  0  0  0  0
  9 10  1  0  0  0  0
  9 11  1  0  0  0  0
  9 29  1  0  0  0  0
  7  8  1  0  0  0  0
  7  9  1  0  0  0  0
 33 34  1  0  0  0  0
 33 35  1  0  0  0  0
 33 36  1  0  0  0  0
 31 32  1  0  0  0  0
 31 33  1  0  0  0  0
M  CHG  1  20   1
M  END
$$$$
default_name
  -OEChem-01062215323D

 36 35  0     1  0  0  0  0  0999 V2000
   -4.2256   -3.6731    1.8584 H   0  0  0  0  0  0  0  0  0  0  0  0
   -4.2396   -2.6781    1.4144 C   0  0  0  0  0  0  0  0  0  0  0  0
   -4.9506   -2.0521    1.9514 H   0  0  0  0  0  0  0  0  0  0  0  0
   -4.5266   -2.7521    0.3674 H   0  0  0  0  0  0  0  0  0  0  0  0
   -2.8576   -2.0761    1.5184 C   0  0  0  0  0  0  0  0  0  0  0  0
   -1.9456   -2.7051    2.0404 O   0  0  0  0  0  0  0  0  0  0  0  0
   -2.6926   -0.8481    1.0174 N   0  0  0  0  0  0  0  0  0  0  0  0
   -3.4926   -0.3971    0.5954 H   0  0  0  0  0  0  0  0  0  0  0  0
   -1.4216   -0.1071    1.0434 C   0  0  1  0  0  0  0  0  0  0  0  0
   -0.9862   -0.1358    0.0433 H   0  0  0  0  0  0  0  0  0  0  0  0
   -1.7195    1.3598    1.4129 C   0  0  0  0  0  0  0  0  0  0  0  0
   -2.2960    1.3754    2.3401 H   0  0  0  0  0  0  0  0  0  0  0  0
   -0.7767    1.8816    1.5910 H   0  0  0  0  0  0  0  0  0  0  0  0
   -2.5163    2.1116    0.3367 C   0  0  0  0  0  0  0  0  0  0  0  0
   -1.9554    2.1204   -0.5989 H   0  0  0  0  0  0  0  0  0  0  0  0
   -3.4719    1.6103    0.1792 H   0  0  0  0  0  0  0  0  0  0  0  0
   -2.7665    3.5575    0.7864 C   0  0  0  0  0  0  0  0  0  0  0  0
   -3.3049    3.5389    1.7367 H   0  0  0  0  0  0  0  0  0  0  0  0
   -1.8013    4.0465    0.9375 H   0  0  0  0  0  0  0  0  0  0  0  0
   -3.5523    4.3135   -0.2105 N   0  3  0  0  0  0  0  0  0  0  0  0
   -3.7863    3.8312   -1.0613 H   0  0  0  0  0  0  0  0  0  0  0  0
   -3.9758    5.5605   -0.0892 C   0  0  0  0  0  0  0  0  0  0  0  0
   -3.7284    6.2765    0.9716 N   0  0  0  0  0  0  0  0  0  0  0  0
   -3.2000    5.8651    1.7206 H   0  0  0  0  0  0  0  0  0  0  0  0
   -4.0568    7.2217    1.0475 H   0  0  0  0  0  0  0  0  0  0  0  0
   -4.6637    6.1195   -1.0440 N   0  0  0  0  0  0  0  0  0  0  0  0
   -4.8799    5.6070   -1.8816 H   0  0  0  0  0  0  0  0  0  0  0  0
   -4.9831    7.0658   -0.9479 H   0  0  0  0  0  0  0  0  0  0  0  0
   -0.4436   -0.7553    2.0256 C   0  0  0  0  0  0  0  0  0  0  0  0
    0.4071   -0.0664    2.5758 O   0  0  0  0  0  0  0  0  0  0  0  0
   -0.5478   -2.0754    2.2080 N   0  0  0  0  0  0  0  0  0  0  0  0
   -1.3002   -2.5572    1.7437 H   0  0  0  0  0  0  0  0  0  0  0  0
    0.3070   -2.8471    3.1116 C   0  0  0  0  0  0  0  0  0  0  0  0
    0.1459   -2.5205    4.1412 H   0  0  0  0  0  0  0  0  0  0  0  0
    0.0775   -3.9108    3.0360 H   0  0  0  0  0  0  0  0  0  0  0  0
    1.3576   -2.6870    2.8597 H   0  0  0  0  0  0  0  0  0  0  0  0
  5  6  2  0  0  0  0
  5  7  1  0  0  0  0
  2  3  1  0  0  0  0
  2  4  1  0  0  0  0
  2  5  1  0  0  0  0
  1  2  1  0  0  0  0
 29 30  2  0  0  0  0
 29 31  1  0  0  0  0
 26 27  1  0  0  0  0
 26 28  1  0  0  0  0
 23 24  1  0  0  0  0
 23 25  1  0  0  0  0
 22 23  1  0  0  0  0
 22 26  1  0  0  0  0
 20 21  1  0  0  0  0
 20 22  2  0  0  0  0
 17 18  1  0  0  0  0
 17 19  1  0  0  0  0
 17 20  1  0  0  0  0
 14 15  1  0  0  0  0
 14 16  1  0  0  0  0
 14 17  1  0  0  0  0
 11 12  1  0  0  0  0
 11 13  1  0  0  0  0
 11 14  1  0  0  0  0
  9 10  1  0  0  0  0
  9 11  1  0  0  0  0
  9 29  1  0  0  0  0
  7  8  1  0  0  0  0
  7  9  1  0  0  0  0
 33 34  1  0  0  0  0
 33 35  1  0  0  0  0
 33 36  1  0  0  0  0
 31 32  1  0  0  0  0
 31 33  1  0  0  0  0
M  CHG  1  20   1
M  END
$$$$
default_name
  -OEChem-01062215323D

 36 35  0     1  0  0  0  0  0999 V2000
   -4.2256   -3.6731    1.8584 H   0  0  0  0  0  0  0  0  0  0  0  0
   -4.2396   -2.6781    1.4144 C   0  0  0  0  0  0  0  0  0  0  0  0
   -4.9506   -2.0521    1.9514 H   0  0  0  0  0  0  0  0  0  0  0  0
   -4.5266   -2.7521    0.3674 H   0  0  0  0  0  0  0  0  0  0  0  0
   -2.8576   -2.0761    1.5184 C   0  0  0  0  0  0  0  0  0  0  0  0
   -1.9456   -2.7051    2.0404 O   0  0  0  0  0  0  0  0  0  0  0  0
   -2.6926   -0.8481    1.0174 N   0  0  0  0  0  0  0  0  0  0  0  0
   -3.4926   -0.3971    0.5954 H   0  0  0  0  0  0  0  0  0  0  0  0
   -1.4216   -0.1071    1.0434 C   0  0  1  0  0  0  0  0  0  0  0  0
   -0.9862   -0.1358    0.0433 H   0  0  0  0  0  0  0  0  0  0  0  0
   -1.7195    1.3598    1.4129 C   0  0  0  0  0  0  0  0  0  0  0  0
   -2.2960    1.3754    2.3401 H   0  0  0  0  0  0  0  0  0  0  0  0
   -0.7767    1.8816    1.5910 H   0  0  0  0  0  0  0  0  0  0  0  0
   -2.5163    2.1116    0.3367 C   0  0  0  0  0  0  0  0  0  0  0  0
   -1.9554    2.1204   -0.5989 H   0  0  0  0  0  0  0  0  0  0  0  0
   -3.4719    1.6103    0.1792 H   0  0  0  0  0  0  0  0  0  0  0  0
   -2.7665    3.5575    0.7864 C   0  0  0  0  0  0  0  0  0  0  0  0
   -3.3049    3.5389    1.7367 H   0  0  0  0  0  0  0  0  0  0  0  0
   -1.8013    4.0465    0.9375 H   0  0  0  0  0  0  0  0  0  0  0  0
   -3.5523    4.3135   -0.2105 N   0  3  0  0  0  0  0  0  0  0  0  0
   -3.7863    3.8312   -1.0613 H   0  0  0  0  0  0  0  0  0  0  0  0
   -3.9758    5.5605   -0.0892 C   0  0  0  0  0  0  0  0  0  0  0  0
   -3.7284    6.2765    0.9716 N   0  0  0  0  0  0  0  0  0  0  0  0
   -3.2000    5.8651    1.7206 H   0  0  0  0  0  0  0  0  0  0  0  0
   -4.0568    7.2217    1.0475 H   0  0  0  0  0  0  0  0  0  0  0  0
   -4.6637    6.1195   -1.0440 N   0  0  0  0  0  0  0  0  0  0  0  0
   -4.8799    5.6070   -1.8816 H   0  0  0  0  0  0  0  0  0  0  0  0
   -4.9831    7.0658   -0.9479 H   0  0  0  0  0  0  0  0  0  0  0  0
   -0.4436   -0.7553    2.0256 C   0  0  0  0  0  0  0  0  0  0  0  0
    0.2165   -0.0483    2.7775 O   0  0  0  0  0  0  0  0  0  0  0  0
   -0.3316   -2.0867    1.9853 N   0  0  0  0  0  0  0  0  0  0  0  0
   -0.9400   -2.5920    1.3620 H   0  0  0  0  0  0  0  0  0  0  0  0
    0.5548   -2.8606    2.8560 C   0  0  0  0  0  0  0  0  0  0  0  0
    0.2412   -2.7482    3.8960 H   0  0  0  0  0  0  0  0  0  0  0  0
    0.5237   -3.9173    2.5874 H   0  0  0  0  0  0  0  0  0  0  0  0
    1.5803   -2.4961    2.7640 H   0  0  0  0  0  0  0  0  0  0  0  0
  5  6  2  0  0  0  0
  5  7  1  0  0  0  0
  2  3  1  0  0  0  0
  2  4  1  0  0  0  0
  2  5  1  0  0  0  0
  1  2  1  0  0  0  0
 29 30  2  0  0  0  0
 29 31  1  0  0  0  0
 26 27  1  0  0  0  0
 26 28  1  0  0  0  0
 23 24  1  0  0  0  0
 23 25  1  0  0  0  0
 22 23  1  0  0  0  0
 22 26  1  0  0  0  0
 20 21  1  0  0  0  0
 20 22  2  0  0  0  0
 17 18  1  0  0  0  0
 17 19  1  0  0  0  0
 17 20  1  0  0  0  0
 14 15  1  0  0  0  0
 14 16  1  0  0  0  0
 14 17  1  0  0  0  0
 11 12  1  0  0  0  0
 11 13  1  0  0  0  0
 11 14  1  0  0  0  0
  9 10  1  0  0  0  0
  9 11  1  0  0  0  0
  9 29  1  0  0  0  0
  7  8  1  0  0  0  0
  7  9  1  0  0  0  0
 33 34  1  0  0  0  0
 33 35  1  0  0  0  0
 33 36  1  0  0  0  0
 31 32  1  0  0  0  0
 31 33  1  0  0  0  0
M  CHG  1  20   1
M  END
$$$$
default_name
  -OEChem-01062215323D

 36 35  0     1  0  0  0  0  0999 V2000
   -4.2256   -3.6731    1.8584 H   0  0  0  0  0  0  0  0  0  0  0  0
   -4.2396   -2.6781    1.4144 C   0  0  0  0  0  0  0  0  0  0  0  0
   -4.9506   -2.0521    1.9514 H   0  0  0  0  0  0  0  0  0  0  0  0
   -4.5266   -2.7521    0.3674 H   0  0  0  0  0  0  0  0  0  0  0  0
   -2.8576   -2.0761    1.5184 C   0  0  0  0  0  0  0  0  0  0  0  0
   -1.9456   -2.7051    2.0404 O   0  0  0  0  0  0  0  0  0  0  0  0
   -2.6926   -0.8481    1.0174 N   0  0  0  0  0  0  0  0  0  0  0  0
   -3.4926   -0.3971    0.5954 H   0  0  0  0  0  0  0  0  0  0  0  0
   -1.4216   -0.1071    1.0434 C   0  0  1  0  0  0  0  0  0  0  0  0
   -0.9862   -0.1358    0.0433 H   0  0  0  0  0  0  0  0  0  0  0  0
   -1.7195    1.3598    1.4129 C   0  0  0  0  0  0  0  0  0  0  0  0
   -2.2960    1.3754    2.3401 H   0  0  0  0  0  0  0  0  0  0  0  0
   -0.7767    1.8816    1.5910 H   0  0  0  0  0  0  0  0  0  0  0  0
   -2.5163    2.1116    0.3367 C   0  0  0  0  0  0  0  0  0  0  0  0
   -1.9554    2.1204   -0.5989 H   0  0  0  0  0  0  0  0  0  0  0  0
   -3.4719    1.6103    0.1792 H   0  0  0  0  0  0  0  0  0  0  0  0
   -2.7665    3.5575    0.7864 C   0  0  0  0  0  0  0  0  0  0  0  0
   -3.3049    3.5389    1.7367 H   0  0  0  0  0  0  0  0  0  0  0  0
   -1.8013    4.0465    0.9375 H   0  0  0  0  0  0  0  0  0  0  0  0
   -3.5523    4.3135   -0.2105 N   0  3  0  0  0  0  0  0  0  0  0  0
   -3.7863    3.8312   -1.0613 H   0  0  0  0  0  0  0  0  0  0  0  0
   -3.9758    5.5605   -0.0892 C   0  0  0  0  0  0  0  0  0  0  0  0
   -3.7284    6.2765    0.9716 N   0  0  0  0  0  0  0  0  0  0  0  0
   -3.2000    5.8651    1.7206 H   0  0  0  0  0  0  0  0  0  0  0  0
   -4.0568    7.2217    1.0475 H   0  0  0  0  0  0  0  0  0  0  0  0
   -4.6637    6.1195   -1.0440 N   0  0  0  0  0  0  0  0  0  0  0  0
   -4.8799    5.6070   -1.8816 H   0  0  0  0  0  0  0  0  0  0  0  0
   -4.9831    7.0658   -0.9479 H   0  0  0  0  0  0  0  0  0  0  0  0
   -0.4436   -0.7553    2.0256 C   0  0  0  0  0  0  0  0  0  0  0  0
    0.0073   -0.0958    2.9545 O   0  0  0  0  0  0  0  0  0  0  0  0
   -0.0965   -2.0248    1.7920 N   0  0  0  0  0  0  0  0  0  0  0  0
   -0.5444   -2.5026    1.0272 H   0  0  0  0  0  0  0  0  0  0  0  0
    0.8244   -2.7901    2.6340 C   0  0  0  0  0  0  0  0  0  0  0  0
    0.3979   -2.9118    3.6320 H   0  0  0  0  0  0  0  0  0  0  0  0
    1.0049   -3.7752    2.2020 H   0  0  0  0  0  0  0  0  0  0  0  0
    1.7741   -2.2589    2.7275 H   0  0  0  0  0  0  0  0  0  0  0  0
  5  6  2  0  0  0  0
  5  7  1  0  0  0  0
  2  3  1  0  0  0  0
  2  4  1  0  0  0  0
  2  5  1  0  0  0  0
  1  2  1  0  0  0  0
 29 30  2  0  0  0  0
 29 31  1  0  0  0  0
 26 27  1  0  0  0  0
 26 28  1  0  0  0  0
 23 24  1  0  0  0  0
 23 25  1  0  0  0  0
 22 23  1  0  0  0  0
 22 26  1  0  0  0  0
 20 21  1  0  0  0  0
 20 22  2  0  0  0  0
 17 18  1  0  0  0  0
 17 19  1  0  0  0  0
 17 20  1  0  0  0  0
 14 15  1  0  0  0  0
 14 16  1  0  0  0  0
 14 17  1  0  0  0  0
 11 12  1  0  0  0  0
 11 13  1  0  0  0  0
 11 14  1  0  0  0  0
  9 10  1  0  0  0  0
  9 11  1  0  0  0  0
  9 29  1  0  0  0  0
  7  8  1  0  0  0  0
  7  9  1  0  0  0  0
 33 34  1  0  0  0  0
 33 35  1  0  0  0  0
 33 36  1  0  0  0  0
 31 32  1  0  0  0  0
 31 33  1  0  0  0  0
M  CHG  1  20   1
M  END
$$$$
default_name
  -OEChem-01062215323D

 36 35  0     1  0  0  0  0  0999 V2000
   -4.2256   -3.6731    1.8584 H   0  0  0  0  0  0  0  0  0  0  0  0
   -4.2396   -2.6781    1.4144 C   0  0  0  0  0  0  0  0  0  0  0  0
   -4.9506   -2.0521    1.9514 H   0  0  0  0  0  0  0  0  0  0  0  0
   -4.5266   -2.7521    0.3674 H   0  0  0  0  0  0  0  0  0  0  0  0
   -2.8576   -2.0761    1.5184 C   0  0  0  0  0  0  0  0  0  0  0  0
   -1.9456   -2.7051    2.0404 O   0  0  0  0  0  0  0  0  0  0  0  0
   -2.6926   -0.8481    1.0174 N   0  0  0  0  0  0  0  0  0  0  0  0
   -3.4926   -0.3971    0.5954 H   0  0  0  0  0  0  0  0  0  0  0  0
   -1.4216   -0.1071    1.0434 C   0  0  1  0  0  0  0  0  0  0  0  0
   -0.9862   -0.1358    0.0433 H   0  0  0  0  0  0  0  0  0  0  0  0
   -1.7195    1.3598    1.4129 C   0  0  0  0  0  0  0  0  0  0  0  0
   -2.2960    1.3754    2.3401 H   0  0  0  0  0  0  0  0  0  0  0  0
   -0.7767    1.8816    1.5910 H   0  0  0  0  0  0  0  0  0  0  0  0
   -2.5163    2.1116    0.3367 C   0  0  0  0  0  0  0  0  0  0  0  0
   -1.9554    2.1204   -0.5989 H   0  0  0  0  0  0  0  0  0  0  0  0
   -3.4719    1.6103    0.1792 H   0  0  0  0  0  0  0  0  0  0  0  0
   -2.7665    3.5575    0.7864 C   0  0  0  0  0  0  0  0  0  0  0  0
   -3.3049    3.5389    1.7367 H   0  0  0  0  0  0  0  0  0  0  0  0
   -1.8013    4.0465    0.9375 H   0  0  0  0  0  0  0  0  0  0  0  0
   -3.5523    4.3135   -0.2105 N   0  3  0  0  0  0  0  0  0  0  0  0
   -3.7863    3.8312   -1.0613 H   0  0  0  0  0  0  0  0  0  0  0  0
   -3.9758    5.5605   -0.0892 C   0  0  0  0  0  0  0  0  0  0  0  0
   -3.7284    6.2765    0.9716 N   0  0  0  0  0  0  0  0  0  0  0  0
   -3.2000    5.8651    1.7206 H   0  0  0  0  0  0  0  0  0  0  0  0
   -4.0568    7.2217    1.0475 H   0  0  0  0  0  0  0  0  0  0  0  0
   -4.6637    6.1195   -1.0440 N   0  0  0  0  0  0  0  0  0  0  0  0
   -4.8799    5.6070   -1.8816 H   0  0  0  0  0  0  0  0  0  0  0  0
   -4.9831    7.0658   -0.9479 H   0  0  0  0  0  0  0  0  0  0  0  0
   -0.4436   -0.7553    2.0256 C   0  0  0  0  0  0  0  0  0  0  0  0
   -0.2063   -0.2058    3.0946 O   0  0  0  0  0  0  0  0  0  0  0  0
    0.1414   -1.8941    1.6414 N   0  0  0  0  0  0  0  0  0  0  0  0
   -0.1404   -2.2951    0.7618 H   0  0  0  0  0  0  0  0  0  0  0  0
    1.0975   -2.6406    2.4608 C   0  0  0  0  0  0  0  0  0  0  0  0
    0.6054   -3.0001    3.3671 H   0  0  0  0  0  0  0  0  0  0  0  0
    1.4884   -3.4943    1.9059 H   0  0  0  0  0  0  0  0  0  0  0  0
    1.9260   -1.9915    2.7528 H   0  0  0  0  0  0  0  0  0  0  0  0
  5  6  2  0  0  0  0
  5  7  1  0  0  0  0
  2  3  1  0  0  0  0
  2  4  1  0  0  0  0
  2  5  1  0  0  0  0
  1  2  1  0  0  0  0
 29 30  2  0  0  0  0
 29 31  1  0  0  0  0
 26 27  1  0  0  0  0
 26 28  1  0  0  0  0
 23 24  1  0  0  0  0
 23 25  1  0  0  0  0
 22 23  1  0  0  0  0
 22 26  1  0  0  0  0
 20 21  1  0  0  0  0
 20 22  2  0  0  0  0
 17 18  1  0  0  0  0
 17 19  1  0  0  0  0
 17 20  1  0  0  0  0
 14 15  1  0  0  0  0
 14 16  1  0  0  0  0
 14 17  1  0  0  0  0
 11 12  1  0  0  0  0
 11 13  1  0  0  0  0
 11 14  1  0  0  0  0
  9 10  1  0  0  0  0
  9 11  1  0  0  0  0
  9 29  1  0  0  0  0
  7  8  1  0  0  0  0
  7  9  1  0  0  0  0
 33 34  1  0  0  0  0
 33 35  1  0  0  0  0
 33 36  1  0  0  0  0
 31 32  1  0  0  0  0
 31 33  1  0  0  0  0
M  CHG  1  20   1
M  END
$$$$
default_name
  -OEChem-01062215323D

 36 35  0     1  0  0  0  0  0999 V2000
   -4.2256   -3.6731    1.8584 H   0  0  0  0  0  0  0  0  0  0  0  0
   -4.2396   -2.6781    1.4144 C   0  0  0  0  0  0  0  0  0  0  0  0
   -4.9506   -2.0521    1.9514 H   0  0  0  0  0  0  0  0  0  0  0  0
   -4.5266   -2.7521    0.3674 H   0  0  0  0  0  0  0  0  0  0  0  0
   -2.8576   -2.0761    1.5184 C   0  0  0  0  0  0  0  0  0  0  0  0
   -1.9456   -2.7051    2.0404 O   0  0  0  0  0  0  0  0  0  0  0  0
   -2.6926   -0.8481    1.0174 N   0  0  0  0  0  0  0  0  0  0  0  0
   -3.4926   -0.3971    0.5954 H   0  0  0  0  0  0  0  0  0  0  0  0
   -1.4216   -0.1071    1.0434 C   0  0  1  0  0  0  0  0  0  0  0  0
   -0.9862   -0.1358    0.0433 H   0  0  0  0  0  0  0  0  0  0  0  0
   -1.7195    1.3598    1.4129 C   0  0  0  0  0  0  0  0  0  0  0  0
   -2.2960    1.3754    2.3401 H   0  0  0  0  0  0  0  0  0  0  0  0
   -0.7767    1.8816    1.5910 H   0  0  0  0  0  0  0  0  0  0  0  0
   -2.5163    2.1116    0.3367 C   0  0  0  0  0  0  0  0  0  0  0  0
   -1.9554    2.1204   -0.5989 H   0  0  0  0  0  0  0  0  0  0  0  0
   -3.4719    1.6103    0.1792 H   0  0  0  0  0  0  0  0  0  0  0  0
   -2.7665    3.5575    0.7864 C   0  0  0  0  0  0  0  0  0  0  0  0
   -3.3049    3.5389    1.7367 H   0  0  0  0  0  0  0  0  0  0  0  0
   -1.8013    4.0465    0.9375 H   0  0  0  0  0  0  0  0  0  0  0  0
   -3.5523    4.3135   -0.2105 N   0  3  0  0  0  0  0  0  0  0  0  0
   -3.7863    3.8312   -1.0613 H   0  0  0  0  0  0  0  0  0  0  0  0
   -3.9758    5.5605   -0.0892 C   0  0  0  0  0  0  0  0  0  0  0  0
   -3.7284    6.2765    0.9716 N   0  0  0  0  0  0  0  0  0  0  0  0
   -3.2000    5.8651    1.7206 H   0  0  0  0  0  0  0  0  0  0  0  0
   -4.0568    7.2217    1.0475 H   0  0  0  0  0  0  0  0  0  0  0  0
   -4.6637    6.1195   -1.0440 N   0  0  0  0  0  0  0  0  0  0  0  0
   -4.8799    5.6070   -1.8816 H   0  0  0  0  0  0  0  0  0  0  0  0
   -4.9831    7.0658   -0.9479 H   0  0  0  0  0  0  0  0  0  0  0  0
   -0.4436   -0.7553    2.0256 C   0  0  0  0  0  0  0  0  0  0  0  0
   -0.4097   -0.3706    3.1883 O   0  0  0  0  0  0  0  0  0  0  0  0
    0.3661   -1.7033    1.5435 N   0  0  0  0  0  0  0  0  0  0  0  0
    0.2444   -1.9838    0.5842 H   0  0  0  0  0  0  0  0  0  0  0  0
    1.3554   -2.4221    2.3482 C   0  0  0  0  0  0  0  0  0  0  0  0
    0.8496   -3.0071    3.1193 H   0  0  0  0  0  0  0  0  0  0  0  0
    1.9413   -3.0937    1.7194 H   0  0  0  0  0  0  0  0  0  0  0  0
    2.0254   -1.7122    2.8381 H   0  0  0  0  0  0  0  0  0  0  0  0
  5  6  2  0  0  0  0
  5  7  1  0  0  0  0
  2  3  1  0  0  0  0
  2  4  1  0  0  0  0
  2  5  1  0  0  0  0
  1  2  1  0  0  0  0
 29 30  2  0  0  0  0
 29 31  1  0  0  0  0
 26 27  1  0  0  0  0
 26 28  1  0  0  0  0
 23 24  1  0  0  0  0
 23 25  1  0  0  0  0
 22 23  1  0  0  0  0
 22 26  1  0  0  0  0
 20 21  1  0  0  0  0
 20 22  2  0  0  0  0
 17 18  1  0  0  0  0
 17 19  1  0  0  0  0
 17 20  1  0  0  0  0
 14 15  1  0  0  0  0
 14 16  1  0  0  0  0
 14 17  1  0  0  0  0
 11 12  1  0  0  0  0
 11 13  1  0  0  0  0
 11 14  1  0  0  0  0
  9 10  1  0  0  0  0
  9 11  1  0  0  0  0
  9 29  1  0  0  0  0
  7  8  1  0  0  0  0
  7  9  1  0  0  0  0
 33 34  1  0  0  0  0
 33 35  1  0  0  0  0
 33 36  1  0  0  0  0
 31 32  1  0  0  0  0
 31 33  1  0  0  0  0
M  CHG  1  20   1
M  END
$$$$
default_name
  -OEChem-01062215323D

 36 35  0     1  0  0  0  0  0999 V2000
   -4.2256   -3.6731    1.8584 H   0  0  0  0  0  0  0  0  0  0  0  0
   -4.2396   -2.6781    1.4144 C   0  0  0  0  0  0  0  0  0  0  0  0
   -4.9506   -2.0521    1.9514 H   0  0  0  0  0  0  0  0  0  0  0  0
   -4.5266   -2.7521    0.3674 H   0  0  0  0  0  0  0  0  0  0  0  0
   -2.8576   -2.0761    1.5184 C   0  0  0  0  0  0  0  0  0  0  0  0
   -1.9456   -2.7051    2.0404 O   0  0  0  0  0  0  0  0  0  0  0  0
   -2.6926   -0.8481    1.0174 N   0  0  0  0  0  0  0  0  0  0  0  0
   -3.4926   -0.3971    0.5954 H   0  0  0  0  0  0  0  0  0  0  0  0
   -1.4216   -0.1071    1.0434 C   0  0  1  0  0  0  0  0  0  0  0  0
   -0.9862   -0.1358    0.0433 H   0  0  0  0  0  0  0  0  0  0  0  0
   -1.7195    1.3598    1.4129 C   0  0  0  0  0  0  0  0  0  0  0  0
   -2.2960    1.3754    2.3401 H   0  0  0  0  0  0  0  0  0  0  0  0
   -0.7767    1.8816    1.5910 H   0  0  0  0  0  0  0  0  0  0  0  0
   -2.5163    2.1116    0.3367 C   0  0  0  0  0  0  0  0  0  0  0  0
   -1.9554    2.1204   -0.5989 H   0  0  0  0  0  0  0  0  0  0  0  0
   -3.4719    1.6103    0.1792 H   0  0  0  0  0  0  0  0  0  0  0  0
   -2.7665    3.5575    0.7864 C   0  0  0  0  0  0  0  0  0  0  0  0
   -3.3049    3.5389    1.7367 H   0  0  0  0  0  0  0  0  0  0  0  0
   -1.8013    4.0465    0.9375 H   0  0  0  0  0  0  0  0  0  0  0  0
   -3.5523    4.3135   -0.2105 N   0  3  0  0  0  0  0  0  0  0  0  0
   -3.7863    3.8312   -1.0613 H   0  0  0  0  0  0  0  0  0  0  0  0
   -3.9758    5.5605   -0.0892 C   0  0  0  0  0  0  0  0  0  0  0  0
   -3.7284    6.2765    0.9716 N   0  0  0  0  0  0  0  0  0  0  0  0
   -3.2000    5.8651    1.7206 H   0  0  0  0  0  0  0  0  0  0  0  0
   -4.0568    7.2217    1.0475 H   0  0  0  0  0  0  0  0  0  0  0  0
   -4.6637    6.1195   -1.0440 N   0  0  0  0  0  0  0  0  0  0  0  0
   -4.8799    5.6070   -1.8816 H   0  0  0  0  0  0  0  0  0  0  0  0
   -4.9831    7.0658   -0.9479 H   0  0  0  0  0  0  0  0  0  0  0  0
   -0.4436   -0.7553    2.0256 C   0  0  0  0  0  0  0  0  0  0  0  0
   -0.5891   -0.5792    3.2293 O   0  0  0  0  0  0  0  0  0  0  0  0
    0.5621   -1.4656    1.5052 N   0  0  0  0  0  0  0  0  0  0  0  0
    0.5838   -1.5897    0.5062 H   0  0  0  0  0  0  0  0  0  0  0  0
    1.5806   -2.1495    2.3039 C   0  0  0  0  0  0  0  0  0  0  0  0
    1.1138   -2.9323    2.9056 H   0  0  0  0  0  0  0  0  0  0  0  0
    2.3326   -2.6006    1.6552 H   0  0  0  0  0  0  0  0  0  0  0  0
    2.0657   -1.4399    2.9776 H   0  0  0  0  0  0  0  0  0  0  0  0
  5  6  2  0  0  0  0
  5  7  1  0  0  0  0
  2  3  1  0  0  0  0
  2  4  1  0  0  0  0
  2  5  1  0  0  0  0
  1  2  1  0  0  0  0
 29 30  2  0  0  0  0
 29 31  1  0  0  0  0
 26 27  1  0  0  0  0
 26 28  1  0  0  0  0
 23 24  1  0  0  0  0
 23 25  1  0  0  0  0
 22 23  1  0  0  0  0
 22 26  1  0  0  0  0
 20 21  1  0  0  0  0
 20 22  2  0  0  0  0
 17 18  1  0  0  0  0
 17 19  1  0  0  0  0
 17 20  1  0  0  0  0
 14 15  1  0  0  0  0
 14 16  1  0  0  0  0
 14 17  1  0  0  0  0
 11 12  1  0  0  0  0
 11 13  1  0  0  0  0
 11 14  1  0  0  0  0
  9 10  1  0  0  0  0
  9 11  1  0  0  0  0
  9 29  1  0  0  0  0
  7  8  1  0  0  0  0
  7  9  1  0  0  0  0
 33 34  1  0  0  0  0
 33 35  1  0  0  0  0
 33 36  1  0  0  0  0
 31 32  1  0  0  0  0
 31 33  1  0  0  0  0
M  CHG  1  20   1
M  END
$$$$
default_name
  -OEChem-01062215323D

 36 35  0     1  0  0  0  0  0999 V2000
   -4.2256   -3.6731    1.8584 H   0  0  0  0  0  0  0  0  0  0  0  0
   -4.2396   -2.6781    1.4144 C   0  0  0  0  0  0  0  0  0  0  0  0
   -4.9506   -2.0521    1.9514 H   0  0  0  0  0  0  0  0  0  0  0  0
   -4.5266   -2.7521    0.3674 H   0  0  0  0  0  0  0  0  0  0  0  0
   -2.8576   -2.0761    1.5184 C   0  0  0  0  0  0  0  0  0  0  0  0
   -1.9456   -2.7051    2.0404 O   0  0  0  0  0  0  0  0  0  0  0  0
   -2.6926   -0.8481    1.0174 N   0  0  0  0  0  0  0  0  0  0  0  0
   -3.4926   -0.3971    0.5954 H   0  0  0  0  0  0  0  0  0  0  0  0
   -1.4216   -0.1071    1.0434 C   0  0  1  0  0  0  0  0  0  0  0  0
   -0.9862   -0.1358    0.0433 H   0  0  0  0  0  0  0  0  0  0  0  0
   -1.7195    1.3598    1.4129 C   0  0  0  0  0  0  0  0  0  0  0  0
   -2.2960    1.3754    2.3401 H   0  0  0  0  0  0  0  0  0  0  0  0
   -0.7767    1.8816    1.5910 H   0  0  0  0  0  0  0  0  0  0  0  0
   -2.5163    2.1116    0.3367 C   0  0  0  0  0  0  0  0  0  0  0  0
   -1.9554    2.1204   -0.5989 H   0  0  0  0  0  0  0  0  0  0  0  0
   -3.4719    1.6103    0.1792 H   0  0  0  0  0  0  0  0  0  0  0  0
   -2.7665    3.5575    0.7864 C   0  0  0  0  0  0  0  0  0  0  0  0
   -3.3049    3.5389    1.7367 H   0  0  0  0  0  0  0  0  0  0  0  0
   -1.8013    4.0465    0.9375 H   0  0  0  0  0  0  0  0  0  0  0  0
   -3.5523    4.3135   -0.2105 N   0  3  0  0  0  0  0  0  0  0  0  0
   -3.7863    3.8312   -1.0613 H   0  0  0  0  0  0  0  0  0  0  0  0
   -3.9758    5.5605   -0.0892 C   0  0  0  0  0  0  0  0  0  0  0  0
   -3.7284    6.2765    0.9716 N   0  0  0  0  0  0  0  0  0  0  0  0
   -3.2000    5.8651    1.7206 H   0  0  0  0  0  0  0  0  0  0  0  0
   -4.0568    7.2217    1.0475 H   0  0  0  0  0  0  0  0  0  0  0  0
   -4.6637    6.1195   -1.0440 N   0  0  0  0  0  0  0  0  0  0  0  0
   -4.8799    5.6070   -1.8816 H   0  0  0  0  0  0  0  0  0  0  0  0
   -4.9831    7.0658   -0.9479 H   0  0  0  0  0  0  0  0  0  0  0  0
   -0.4436   -0.7553    2.0256 C   0  0  0  0  0  0  0  0  0  0  0  0
   -0.7322   -0.8172    3.2147 O   0  0  0  0  0  0  0  0  0  0  0  0
    0.7162   -1.1970    1.5291 N   0  0  0  0  0  0  0  0  0  0  0  0
    0.8548   -1.1397    0.5334 H   0  0  0  0  0  0  0  0  0  0  0  0
    1.7577   -1.8416    2.3308 C   0  0  0  0  0  0  0  0  0  0  0  0
    1.3800   -2.7808    2.7406 H   0  0  0  0  0  0  0  0  0  0  0  0
    2.6356   -2.0487    1.7176 H   0  0  0  0  0  0  0  0  0  0  0  0
    2.0441   -1.1934    3.1618 H   0  0  0  0  0  0  0  0  0  0  0  0
  5  6  2  0  0  0  0
  5  7  1  0  0  0  0
  2  3  1  0  0  0  0
  2  4  1  0  0  0  0
  2  5  1  0  0  0  0
  1  2  1  0  0  0  0
 29 30  2  0  0  0  0
 29 31  1  0  0  0  0
 26 27  1  0  0  0  0
 26 28  1  0  0  0  0
 23 24  1  0  0  0  0
 23 25  1  0  0  0  0
 22 23  1  0  0  0  0
 22 26  1  0  0  0  0
 20 21  1  0  0  0  0
 20 22  2  0  0  0  0
 17 18  1  0  0  0  0
 17 19  1  0  0  0  0
 17 20  1  0  0  0  0
 14 15  1  0  0  0  0
 14 16  1  0  0  0  0
 14 17  1  0  0  0  0
 11 12  1  0  0  0  0
 11 13  1  0  0  0  0
 11 14  1  0  0  0  0
  9 10  1  0  0  0  0
  9 11  1  0  0  0  0
  9 29  1  0  0  0  0
  7  8  1  0  0  0  0
  7  9  1  0  0  0  0
 33 34  1  0  0  0  0
 33 35  1  0  0  0  0
 33 36  1  0  0  0  0
 31 32  1  0  0  0  0
 31 33  1  0  0  0  0
M  CHG  1  20   1
M  END
$$$$
default_name
  -OEChem-01062215323D

 36 35  0     1  0  0  0  0  0999 V2000
   -4.2256   -3.6731    1.8584 H   0  0  0  0  0  0  0  0  0  0  0  0
   -4.2396   -2.6781    1.4144 C   0  0  0  0  0  0  0  0  0  0  0  0
   -4.9506   -2.0521    1.9514 H   0  0  0  0  0  0  0  0  0  0  0  0
   -4.5266   -2.7521    0.3674 H   0  0  0  0  0  0  0  0  0  0  0  0
   -2.8576   -2.0761    1.5184 C   0  0  0  0  0  0  0  0  0  0  0  0
   -1.9456   -2.7051    2.0404 O   0  0  0  0  0  0  0  0  0  0  0  0
   -2.6926   -0.8481    1.0174 N   0  0  0  0  0  0  0  0  0  0  0  0
   -3.4926   -0.3971    0.5954 H   0  0  0  0  0  0  0  0  0  0  0  0
   -1.4216   -0.1071    1.0434 C   0  0  1  0  0  0  0  0  0  0  0  0
   -0.9862   -0.1358    0.0433 H   0  0  0  0  0  0  0  0  0  0  0  0
   -1.7195    1.3598    1.4129 C   0  0  0  0  0  0  0  0  0  0  0  0
   -2.2960    1.3754    2.3401 H   0  0  0  0  0  0  0  0  0  0  0  0
   -0.7767    1.8816    1.5910 H   0  0  0  0  0  0  0  0  0  0  0  0
   -2.5163    2.1116    0.3367 C   0  0  0  0  0  0  0  0  0  0  0  0
   -1.9554    2.1204   -0.5989 H   0  0  0  0  0  0  0  0  0  0  0  0
   -3.4719    1.6103    0.1792 H   0  0  0  0  0  0  0  0  0  0  0  0
   -2.7665    3.5575    0.7864 C   0  0  0  0  0  0  0  0  0  0  0  0
   -3.3049    3.5389    1.7367 H   0  0  0  0  0  0  0  0  0  0  0  0
   -1.8013    4.0465    0.9375 H   0  0  0  0  0  0  0  0  0  0  0  0
   -3.5523    4.3135   -0.2105 N   0  3  0  0  0  0  0  0  0  0  0  0
   -3.7863    3.8312   -1.0613 H   0  0  0  0  0  0  0  0  0  0  0  0
   -3.9758    5.5605   -0.0892 C   0  0  0  0  0  0  0  0  0  0  0  0
   -3.7284    6.2765    0.9716 N   0  0  0  0  0  0  0  0  0  0  0  0
   -3.2000    5.8651    1.7206 H   0  0  0  0  0  0  0  0  0  0  0  0
   -4.0568    7.2217    1.0475 H   0  0  0  0  0  0  0  0  0  0  0  0
   -4.6637    6.1195   -1.0440 N   0  0  0  0  0  0  0  0  0  0  0  0
   -4.8799    5.6070   -1.8816 H   0  0  0  0  0  0  0  0  0  0  0  0
   -4.9831    7.0658   -0.9479 H   0  0  0  0  0  0  0  0  0  0  0  0
   -0.4436   -0.7553    2.0256 C   0  0  0  0  0  0  0  0  0  0  0  0
   -0.8292   -1.0685    3.1455 O   0  0  0  0  0  0  0  0  0  0  0  0
    0.8178   -0.9159    1.6134 N   0  0  0  0  0  0  0  0  0  0  0  0
    1.0387   -0.6646    0.6638 H   0  0  0  0  0  0  0  0  0  0  0  0
    1.8746   -1.5191    2.4271 C   0  0  0  0  0  0  0  0  0  0  0  0
    1.6300   -2.5629    2.6354 H   0  0  0  0  0  0  0  0  0  0  0  0
    2.8298   -1.4756    1.9024 H   0  0  0  0  0  0  0  0  0  0  0  0
    1.9621   -0.9893    3.3782 H   0  0  0  0  0  0  0  0  0  0  0  0
  5  6  2  0  0  0  0
  5  7  1  0  0  0  0
  2  3  1  0  0  0  0
  2  4  1  0  0  0  0
  2  5  1  0  0  0  0
  1  2  1  0  0  0  0
 29 30  2  0  0  0  0
 29 31  1  0  0  0  0
 26 27  1  0  0  0  0
 26 28  1  0  0  0  0
 23 24  1  0  0  0  0
 23 25  1  0  0  0  0
 22 23  1  0  0  0  0
 22 26  1  0  0  0  0
 20 21  1  0  0  0  0
 20 22  2  0  0  0  0
 17 18  1  0  0  0  0
 17 19  1  0  0  0  0
 17 20  1  0  0  0  0
 14 15  1  0  0  0  0
 14 16  1  0  0  0  0
 14 17  1  0  0  0  0
 11 12  1  0  0  0  0
 11 13  1  0  0  0  0
 11 14  1  0  0  0  0
  9 10  1  0  0  0  0
  9 11  1  0  0  0  0
  9 29  1  0  0  0  0
  7  8  1  0  0  0  0
  7  9  1  0  0  0  0
 33 34  1  0  0  0  0
 33 35  1  0  0  0  0
 33 36  1  0  0  0  0
 31 32  1  0  0  0  0
 31 33  1  0  0  0  0
M  CHG  1  20   1
M  END
$$$$
default_name
  -OEChem-01062215323D

 36 35  0     1  0  0  0  0  0999 V2000
   -4.2256   -3.6731    1.8584 H   0  0  0  0  0  0  0  0  0  0  0  0
   -4.2396   -2.6781    1.4144 C   0  0  0  0  0  0  0  0  0  0  0  0
   -4.9506   -2.0521    1.9514 H   0  0  0  0  0  0  0  0  0  0  0  0
   -4.5266   -2.7521    0.3674 H   0  0  0  0  0  0  0  0  0  0  0  0
   -2.8576   -2.0761    1.5184 C   0  0  0  0  0  0  0  0  0  0  0  0
   -1.9456   -2.7051    2.0404 O   0  0  0  0  0  0  0  0  0  0  0  0
   -2.6926   -0.8481    1.0174 N   0  0  0  0  0  0  0  0  0  0  0  0
   -3.4926   -0.3971    0.5954 H   0  0  0  0  0  0  0  0  0  0  0  0
   -1.4216   -0.1071    1.0434 C   0  0  1  0  0  0  0  0  0  0  0  0
   -0.9862   -0.1358    0.0433 H   0  0  0  0  0  0  0  0  0  0  0  0
   -1.7195    1.3598    1.4129 C   0  0  0  0  0  0  0  0  0  0  0  0
   -2.2960    1.3754    2.3401 H   0  0  0  0  0  0  0  0  0  0  0  0
   -0.7767    1.8816    1.5910 H   0  0  0  0  0  0  0  0  0  0  0  0
   -2.5163    2.1116    0.3367 C   0  0  0  0  0  0  0  0  0  0  0  0
   -1.9554    2.1204   -0.5989 H   0  0  0  0  0  0  0  0  0  0  0  0
   -3.4719    1.6103    0.1792 H   0  0  0  0  0  0  0  0  0  0  0  0
   -2.7665    3.5575    0.7864 C   0  0  0  0  0  0  0  0  0  0  0  0
   -3.3049    3.5389    1.7367 H   0  0  0  0  0  0  0  0  0  0  0  0
   -1.8013    4.0465    0.9375 H   0  0  0  0  0  0  0  0  0  0  0  0
   -3.5523    4.3135   -0.2105 N   0  3  0  0  0  0  0  0  0  0  0  0
   -3.7863    3.8312   -1.0613 H   0  0  0  0  0  0  0  0  0  0  0  0
   -3.9758    5.5605   -0.0892 C   0  0  0  0  0  0  0  0  0  0  0  0
   -3.7284    6.2765    0.9716 N   0  0  0  0  0  0  0  0  0  0  0  0
   -3.2000    5.8651    1.7206 H   0  0  0  0  0  0  0  0  0  0  0  0
   -4.0568    7.2217    1.0475 H   0  0  0  0  0  0  0  0  0  0  0  0
   -4.6637    6.1195   -1.0440 N   0  0  0  0  0  0  0  0  0  0  0  0
   -4.8799    5.6070   -1.8816 H   0  0  0  0  0  0  0  0  0  0  0  0
   -4.9831    7.0658   -0.9479 H   0  0  0  0  0  0  0  0  0  0  0  0
   -0.4436   -0.7553    2.0256 C   0  0  0  0  0  0  0  0  0  0  0  0
   -0.8737   -1.3159    3.0265 O   0  0  0  0  0  0  0  0  0  0  0  0
    0.8599   -0.6415    1.7525 N   0  0  0  0  0  0  0  0  0  0  0  0
    1.1232   -0.1966    0.8885 H   0  0  0  0  0  0  0  0  0  0  0  0
    1.9234   -1.2042    2.5864 C   0  0  0  0  0  0  0  0  0  0  0  0
    1.8469   -2.2935    2.5972 H   0  0  0  0  0  0  0  0  0  0  0  0
    2.9020   -0.9203    2.1971 H   0  0  0  0  0  0  0  0  0  0  0  0
    1.8253   -0.8415    3.6119 H   0  0  0  0  0  0  0  0  0  0  0  0
  5  6  2  0  0  0  0
  5  7  1  0  0  0  0
  2  3  1  0  0  0  0
  2  4  1  0  0  0  0
  2  5  1  0  0  0  0
  1  2  1  0  0  0  0
 29 30  2  0  0  0  0
 29 31  1  0  0  0  0
 26 27  1  0  0  0  0
 26 28  1  0  0  0  0
 23 24  1  0  0  0  0
 23 25  1  0  0  0  0
 22 23  1  0  0  0  0
 22 26  1  0  0  0  0
 20 21  1  0  0  0  0
 20 22  2  0  0  0  0
 17 18  1  0  0  0  0
 17 19  1  0  0  0  0
 17 20  1  0  0  0  0
 14 15  1  0  0  0  0
 14 16  1  0  0  0  0
 14 17  1  0  0  0  0
 11 12  1  0  0  0  0
 11 13  1  0  0  0  0
 11 14  1  0  0  0  0
  9 10  1  0  0  0  0
  9 11  1  0  0  0  0
  9 29  1  0  0  0  0
  7  8  1  0  0  0  0
  7  9  1  0  0  0  0
 33 34  1  0  0  0  0
 33 35  1  0  0  0  0
 33 36  1  0  0  0  0
 31 32  1  0  0  0  0
 31 33  1  0  0  0  0
M  CHG  1  20   1
M  END
$$$$
default_name
  -OEChem-01062215323D

 36 35  0     1  0  0  0  0  0999 V2000
   -4.2256   -3.6731    1.8584 H   0  0  0  0  0  0  0  0  0  0  0  0
   -4.2396   -2.6781    1.4144 C   0  0  0  0  0  0  0  0  0  0  0  0
   -4.9506   -2.0521    1.9514 H   0  0  0  0  0  0  0  0  0  0  0  0
   -4.5266   -2.7521    0.3674 H   0  0  0  0  0  0  0  0  0  0  0  0
   -2.8576   -2.0761    1.5184 C   0  0  0  0  0  0  0  0  0  0  0  0
   -1.9456   -2.7051    2.0404 O   0  0  0  0  0  0  0  0  0  0  0  0
   -2.6926   -0.8481    1.0174 N   0  0  0  0  0  0  0  0  0  0  0  0
   -3.4926   -0.3971    0.5954 H   0  0  0  0  0  0  0  0  0  0  0  0
   -1.4216   -0.1071    1.0434 C   0  0  1  0  0  0  0  0  0  0  0  0
   -0.9862   -0.1358    0.0433 H   0  0  0  0  0  0  0  0  0  0  0  0
   -1.7195    1.3598    1.4129 C   0  0  0  0  0  0  0  0  0  0  0  0
   -2.2960    1.3754    2.3401 H   0  0  0  0  0  0  0  0  0  0  0  0
   -0.7767    1.8816    1.5910 H   0  0  0  0  0  0  0  0  0  0  0  0
   -2.5163    2.1116    0.3367 C   0  0  0  0  0  0  0  0  0  0  0  0
   -1.9554    2.1204   -0.5989 H   0  0  0  0  0  0  0  0  0  0  0  0
   -3.4719    1.6103    0.1792 H   0  0  0  0  0  0  0  0  0  0  0  0
   -2.7665    3.5575    0.7864 C   0  0  0  0  0  0  0  0  0  0  0  0
   -3.3049    3.5389    1.7367 H   0  0  0  0  0  0  0  0  0  0  0  0
   -1.8013    4.0465    0.9375 H   0  0  0  0  0  0  0  0  0  0  0  0
   -3.5523    4.3135   -0.2105 N   0  3  0  0  0  0  0  0  0  0  0  0
   -3.7863    3.8312   -1.0613 H   0  0  0  0  0  0  0  0  0  0  0  0
   -3.9758    5.5605   -0.0892 C   0  0  0  0  0  0  0  0  0  0  0  0
   -3.7284    6.2765    0.9716 N   0  0  0  0  0  0  0  0  0  0  0  0
   -3.2000    5.8651    1.7206 H   0  0  0  0  0  0  0  0  0  0  0  0
   -4.0568    7.2217    1.0475 H   0  0  0  0  0  0  0  0  0  0  0  0
   -4.6637    6.1195   -1.0440 N   0  0  0  0  0  0  0  0  0  0  0  0
   -4.8799    5.6070   -1.8816 H   0  0  0  0  0  0  0  0  0  0  0  0
   -4.9831    7.0658   -0.9479 H   0  0  0  0  0  0  0  0  0  0  0  0
   -0.4436   -0.7553    2.0256 C   0  0  0  0  0  0  0  0  0  0  0  0
   -0.8624   -1.5426    2.8657 O   0  0  0  0  0  0  0  0  0  0  0  0
    0.8398   -0.3925    1.9369 N   0  0  0  0  0  0  0  0  0  0  0  0
    1.1025    0.2323    1.1922 H   0  0  0  0  0  0  0  0  0  0  0  0
    1.9008   -0.9182    2.7977 C   0  0  0  0  0  0  0  0  0  0  0  0
    2.0158   -1.9910    2.6287 H   0  0  0  0  0  0  0  0  0  0  0  0
    2.8471   -0.4207    2.5815 H   0  0  0  0  0  0  0  0  0  0  0  0
    1.6429   -0.7602    3.8472 H   0  0  0  0  0  0  0  0  0  0  0  0
  5  6  2  0  0  0  0
  5  7  1  0  0  0  0
  2  3  1  0  0  0  0
  2  4  1  0  0  0  0
  2  5  1  0  0  0  0
  1  2  1  0  0  0  0
 29 30  2  0  0  0  0
 29 31  1  0  0  0  0
 26 27  1  0  0  0  0
 26 28  1  0  0  0  0
 23 24  1  0  0  0  0
 23 25  1  0  0  0  0
 22 23  1  0  0  0  0
 22 26  1  0  0  0  0
 20 21  1  0  0  0  0
 20 22  2  0  0  0  0
 17 18  1  0  0  0  0
 17 19  1  0  0  0  0
 17 20  1  0  0  0  0
 14 15  1  0  0  0  0
 14 16  1  0  0  0  0
 14 17  1  0  0  0  0
 11 12  1  0  0  0  0
 11 13  1  0  0  0  0
 11 14  1  0  0  0  0
  9 10  1  0  0  0  0
  9 11  1  0  0  0  0
  9 29  1  0  0  0  0
  7  8  1  0  0  0  0
  7  9  1  0  0  0  0
 33 34  1  0  0  0  0
 33 35  1  0  0  0  0
 33 36  1  0  0  0  0
 31 32  1  0  0  0  0
 31 33  1  0  0  0  0
M  CHG  1  20   1
M  END
$$$$
default_name
  -OEChem-01062215323D

 36 35  0     1  0  0  0  0  0999 V2000
   -4.2256   -3.6731    1.8584 H   0  0  0  0  0  0  0  0  0  0  0  0
   -4.2396   -2.6781    1.4144 C   0  0  0  0  0  0  0  0  0  0  0  0
   -4.9506   -2.0521    1.9514 H   0  0  0  0  0  0  0  0  0  0  0  0
   -4.5266   -2.7521    0.3674 H   0  0  0  0  0  0  0  0  0  0  0  0
   -2.8576   -2.0761    1.5184 C   0  0  0  0  0  0  0  0  0  0  0  0
   -1.9456   -2.7051    2.0404 O   0  0  0  0  0  0  0  0  0  0  0  0
   -2.6926   -0.8481    1.0174 N   0  0  0  0  0  0  0  0  0  0  0  0
   -3.4926   -0.3971    0.5954 H   0  0  0  0  0  0  0  0  0  0  0  0
   -1.4216   -0.1071    1.0434 C   0  0  1  0  0  0  0  0  0  0  0  0
   -1.1211    0.0966    0.0144 H   0  0  0  0  0  0  0  0  0  0  0  0
   -1.6536    1.2342    1.7674 C   0  0  0  0  0  0  0  0  0  0  0  0
   -2.1035    1.0313    2.7413 H   0  0  0  0  0  0  0  0  0  0  0  0
   -0.6902    1.7213    1.9339 H   0  0  0  0  0  0  0  0  0  0  0  0
   -2.5766    2.1917    0.9996 C   0  0  0  0  0  0  0  0  0  0  0  0
   -2.1429    2.4200    0.0250 H   0  0  0  0  0  0  0  0  0  0  0  0
   -3.5496    1.7198    0.8593 H   0  0  0  0  0  0  0  0  0  0  0  0
   -2.7510    3.4956    1.7901 C   0  0  0  0  0  0  0  0  0  0  0  0
   -3.1605    3.2549    2.7738 H   0  0  0  0  0  0  0  0  0  0  0  0
   -1.7693    3.9572    1.9203 H   0  0  0  0  0  0  0  0  0  0  0  0
   -3.6527    4.4397    1.0985 N   0  3  0  0  0  0  0  0  0  0  0  0
   -4.0009    4.1551    0.1990 H   0  0  0  0  0  0  0  0  0  0  0  0
   -4.0439    5.6197    1.5497 C   0  0  0  0  0  0  0  0  0  0  0  0
   -3.6524    6.0855    2.7026 N   0  0  0  0  0  0  0  0  0  0  0  0
   -3.0348    5.5275    3.2653 H   0  0  0  0  0  0  0  0  0  0  0  0
   -3.9584    6.9832    3.0301 H   0  0  0  0  0  0  0  0  0  0  0  0
   -4.8450    6.3643    0.8419 N   0  0  0  0  0  0  0  0  0  0  0  0
   -5.1741    6.0477   -0.0538 H   0  0  0  0  0  0  0  0  0  0  0  0
   -5.1394    7.2588    1.1880 H   0  0  0  0  0  0  0  0  0  0  0  0
   -0.3302   -0.9391    1.7201 C   0  0  0  0  0  0  0  0  0  0  0  0
   -0.6050   -2.0436    2.1735 O   0  0  0  0  0  0  0  0  0  0  0  0
    0.8845   -0.3894    1.8155 N   0  0  0  0  0  0  0  0  0  0  0  0
    1.0311    0.5075    1.3820 H   0  0  0  0  0  0  0  0  0  0  0  0
    2.0365   -1.0506    2.4307 C   0  0  0  0  0  0  0  0  0  0  0  0
    2.2988   -1.9432    1.8587 H   0  0  0  0  0  0  0  0  0  0  0  0
    2.8944   -0.3773    2.4523 H   0  0  0  0  0  0  0  0  0  0  0  0
    1.7920   -1.3545    3.4508 H   0  0  0  0  0  0  0  0  0  0  0  0
  5  6  2  0  0  0  0
  5  7  1  0  0  0  0
  2  3  1  0  0  0  0
  2  4  1  0  0  0  0
  2  5  1  0  0  0  0
  1  2  1  0  0  0  0
 29 30  2  0  0  0  0
 29 31  1  0  0  0  0
 26 27  1  0  0  0  0
 26 28  1  0  0  0  0
 23 24  1  0  0  0  0
 23 25  1  0  0  0  0
 22 23  1  0  0  0  0
 22 26  1  0  0  0  0
 20 21  1  0  0  0  0
 20 22  2  0  0  0  0
 17 18  1  0  0  0  0
 17 19  1  0  0  0  0
 17 20  1  0  0  0  0
 14 15  1  0  0  0  0
 14 16  1  0  0  0  0
 14 17  1  0  0  0  0
 11 12  1  0  0  0  0
 11 13  1  0  0  0  0
 11 14  1  0  0  0  0
  9 10  1  0  0  0  0
  9 11  1  0  0  0  0
  9 29  1  0  0  0  0
  7  8  1  0  0  0  0
  7  9  1  0  0  0  0
 33 34  1  0  0  0  0
 33 35  1  0  0  0  0
 33 36  1  0  0  0  0
 31 32  1  0  0  0  0
 31 33  1  0  0  0  0
M  CHG  1  20   1
M  END
$$$$
default_name
  -OEChem-01062215323D

 36 35  0     1  0  0  0  0  0999 V2000
   -4.2256   -3.6731    1.8584 H   0  0  0  0  0  0  0  0  0  0  0  0
   -4.2396   -2.6781    1.4144 C   0  0  0  0  0  0  0  0  0  0  0  0
   -4.9506   -2.0521    1.9514 H   0  0  0  0  0  0  0  0  0  0  0  0
   -4.5266   -2.7521    0.3674 H   0  0  0  0  0  0  0  0  0  0  0  0
   -2.8576   -2.0761    1.5184 C   0  0  0  0  0  0  0  0  0  0  0  0
   -1.9456   -2.7051    2.0404 O   0  0  0  0  0  0  0  0  0  0  0  0
   -2.6926   -0.8481    1.0174 N   0  0  0  0  0  0  0  0  0  0  0  0
   -3.4926   -0.3971    0.5954 H   0  0  0  0  0  0  0  0  0  0  0  0
   -1.4216   -0.1071    1.0434 C   0  0  1  0  0  0  0  0  0  0  0  0
   -1.1211    0.0966    0.0144 H   0  0  0  0  0  0  0  0  0  0  0  0
   -1.6536    1.2342    1.7674 C   0  0  0  0  0  0  0  0  0  0  0  0
   -2.1035    1.0313    2.7413 H   0  0  0  0  0  0  0  0  0  0  0  0
   -0.6902    1.7213    1.9339 H   0  0  0  0  0  0  0  0  0  0  0  0
   -2.5766    2.1917    0.9996 C   0  0  0  0  0  0  0  0  0  0  0  0
   -2.1429    2.4200    0.0250 H   0  0  0  0  0  0  0  0  0  0  0  0
   -3.5496    1.7198    0.8593 H   0  0  0  0  0  0  0  0  0  0  0  0
   -2.7510    3.4956    1.7901 C   0  0  0  0  0  0  0  0  0  0  0  0
   -3.1605    3.2549    2.7738 H   0  0  0  0  0  0  0  0  0  0  0  0
   -1.7693    3.9572    1.9203 H   0  0  0  0  0  0  0  0  0  0  0  0
   -3.6527    4.4397    1.0985 N   0  3  0  0  0  0  0  0  0  0  0  0
   -4.0009    4.1551    0.1990 H   0  0  0  0  0  0  0  0  0  0  0  0
   -4.0439    5.6197    1.5497 C   0  0  0  0  0  0  0  0  0  0  0  0
   -3.6524    6.0855    2.7026 N   0  0  0  0  0  0  0  0  0  0  0  0
   -3.0348    5.5275    3.2653 H   0  0  0  0  0  0  0  0  0  0  0  0
   -3.9584    6.9832    3.0301 H   0  0  0  0  0  0  0  0  0  0  0  0
   -4.8450    6.3643    0.8419 N   0  0  0  0  0  0  0  0  0  0  0  0
   -5.1741    6.0477   -0.0538 H   0  0  0  0  0  0  0  0  0  0  0  0
   -5.1394    7.2588    1.1880 H   0  0  0  0  0  0  0  0  0  0  0  0
   -0.3302   -0.9391    1.7201 C   0  0  0  0  0  0  0  0  0  0  0  0
   -0.5183   -2.1324    1.9246 O   0  0  0  0  0  0  0  0  0  0  0  0
    0.7816   -0.2980    2.0939 N   0  0  0  0  0  0  0  0  0  0  0  0
    0.8676    0.6758    1.8527 H   0  0  0  0  0  0  0  0  0  0  0  0
    1.9188   -0.9454    2.7500 C   0  0  0  0  0  0  0  0  0  0  0  0
    2.3650   -1.6797    2.0760 H   0  0  0  0  0  0  0  0  0  0  0  0
    2.6735   -0.2055    3.0198 H   0  0  0  0  0  0  0  0  0  0  0  0
    1.5845   -1.4634    3.6516 H   0  0  0  0  0  0  0  0  0  0  0  0
  5  6  2  0  0  0  0
  5  7  1  0  0  0  0
  2  3  1  0  0  0  0
  2  4  1  0  0  0  0
  2  5  1  0  0  0  0
  1  2  1  0  0  0  0
 29 30  2  0  0  0  0
 29 31  1  0  0  0  0
 26 27  1  0  0  0  0
 26 28  1  0  0  0  0
 23 24  1  0  0  0  0
 23 25  1  0  0  0  0
 22 23  1  0  0  0  0
 22 26  1  0  0  0  0
 20 21  1  0  0  0  0
 20 22  2  0  0  0  0
 17 18  1  0  0  0  0
 17 19  1  0  0  0  0
 17 20  1  0  0  0  0
 14 15  1  0  0  0  0
 14 16  1  0  0  0  0
 14 17  1  0  0  0  0
 11 12  1  0  0  0  0
 11 13  1  0  0  0  0
 11 14  1  0  0  0  0
  9 10  1  0  0  0  0
  9 11  1  0  0  0  0
  9 29  1  0  0  0  0
  7  8  1  0  0  0  0
  7  9  1  0  0  0  0
 33 34  1  0  0  0  0
 33 35  1  0  0  0  0
 33 36  1  0  0  0  0
 31 32  1  0  0  0  0
 31 33  1  0  0  0  0
M  CHG  1  20   1
M  END
$$$$
default_name
  -OEChem-01062215323D

 36 35  0     1  0  0  0  0  0999 V2000
   -4.2256   -3.6731    1.8584 H   0  0  0  0  0  0  0  0  0  0  0  0
   -4.2396   -2.6781    1.4144 C   0  0  0  0  0  0  0  0  0  0  0  0
   -4.9506   -2.0521    1.9514 H   0  0  0  0  0  0  0  0  0  0  0  0
   -4.5266   -2.7521    0.3674 H   0  0  0  0  0  0  0  0  0  0  0  0
   -2.8576   -2.0761    1.5184 C   0  0  0  0  0  0  0  0  0  0  0  0
   -1.9456   -2.7051    2.0404 O   0  0  0  0  0  0  0  0  0  0  0  0
   -2.6926   -0.8481    1.0174 N   0  0  0  0  0  0  0  0  0  0  0  0
   -3.4926   -0.3971    0.5954 H   0  0  0  0  0  0  0  0  0  0  0  0
   -1.4216   -0.1071    1.0434 C   0  0  1  0  0  0  0  0  0  0  0  0
   -1.1211    0.0966    0.0144 H   0  0  0  0  0  0  0  0  0  0  0  0
   -1.6536    1.2342    1.7674 C   0  0  0  0  0  0  0  0  0  0  0  0
   -2.1035    1.0313    2.7413 H   0  0  0  0  0  0  0  0  0  0  0  0
   -0.6902    1.7213    1.9339 H   0  0  0  0  0  0  0  0  0  0  0  0
   -2.5766    2.1917    0.9996 C   0  0  0  0  0  0  0  0  0  0  0  0
   -2.1429    2.4200    0.0250 H   0  0  0  0  0  0  0  0  0  0  0  0
   -3.5496    1.7198    0.8593 H   0  0  0  0  0  0  0  0  0  0  0  0
   -2.7510    3.4956    1.7901 C   0  0  0  0  0  0  0  0  0  0  0  0
   -3.1605    3.2549    2.7738 H   0  0  0  0  0  0  0  0  0  0  0  0
   -1.7693    3.9572    1.9203 H   0  0  0  0  0  0  0  0  0  0  0  0
   -3.6527    4.4397    1.0985 N   0  3  0  0  0  0  0  0  0  0  0  0
   -4.0009    4.1551    0.1990 H   0  0  0  0  0  0  0  0  0  0  0  0
   -4.0439    5.6197    1.5497 C   0  0  0  0  0  0  0  0  0  0  0  0
   -3.6524    6.0855    2.7026 N   0  0  0  0  0  0  0  0  0  0  0  0
   -3.0348    5.5275    3.2653 H   0  0  0  0  0  0  0  0  0  0  0  0
   -3.9584    6.9832    3.0301 H   0  0  0  0  0  0  0  0  0  0  0  0
   -4.8450    6.3643    0.8419 N   0  0  0  0  0  0  0  0  0  0  0  0
   -5.1741    6.0477   -0.0538 H   0  0  0  0  0  0  0  0  0  0  0  0
   -5.1394    7.2588    1.1880 H   0  0  0  0  0  0  0  0  0  0  0  0
   -0.3302   -0.9391    1.7201 C   0  0  0  0  0  0  0  0  0  0  0  0
   -0.3894   -2.1622    1.6800 O   0  0  0  0  0  0  0  0  0  0  0  0
    0.6325   -0.2729    2.3652 N   0  0  0  0  0  0  0  0  0  0  0  0
    0.6241    0.7327    2.3154 H   0  0  0  0  0  0  0  0  0  0  0  0
    1.7481   -0.9161    3.0614 C   0  0  0  0  0  0  0  0  0  0  0  0
    2.3682   -1.4577    2.3439 H   0  0  0  0  0  0  0  0  0  0  0  0
    2.3606   -0.1696    3.5686 H   0  0  0  0  0  0  0  0  0  0  0  0
    1.3684   -1.6294    3.7962 H   0  0  0  0  0  0  0  0  0  0  0  0
  5  6  2  0  0  0  0
  5  7  1  0  0  0  0
  2  3  1  0  0  0  0
  2  4  1  0  0  0  0
  2  5  1  0  0  0  0
  1  2  1  0  0  0  0
 29 30  2  0  0  0  0
 29 31  1  0  0  0  0
 26 27  1  0  0  0  0
 26 28  1  0  0  0  0
 23 24  1  0  0  0  0
 23 25  1  0  0  0  0
 22 23  1  0  0  0  0
 22 26  1  0  0  0  0
 20 21  1  0  0  0  0
 20 22  2  0  0  0  0
 17 18  1  0  0  0  0
 17 19  1  0  0  0  0
 17 20  1  0  0  0  0
 14 15  1  0  0  0  0
 14 16  1  0  0  0  0
 14 17  1  0  0  0  0
 11 12  1  0  0  0  0
 11 13  1  0  0  0  0
 11 14  1  0  0  0  0
  9 10  1  0  0  0  0
  9 11  1  0  0  0  0
  9 29  1  0  0  0  0
  7  8  1  0  0  0  0
  7  9  1  0  0  0  0
 33 34  1  0  0  0  0
 33 35  1  0  0  0  0
 33 36  1  0  0  0  0
 31 32  1  0  0  0  0
 31 33  1  0  0  0  0
M  CHG  1  20   1
M  END
$$$$
default_name
  -OEChem-01062215323D

 36 35  0     1  0  0  0  0  0999 V2000
   -4.2256   -3.6731    1.8584 H   0  0  0  0  0  0  0  0  0  0  0  0
   -4.2396   -2.6781    1.4144 C   0  0  0  0  0  0  0  0  0  0  0  0
   -4.9506   -2.0521    1.9514 H   0  0  0  0  0  0  0  0  0  0  0  0
   -4.5266   -2.7521    0.3674 H   0  0  0  0  0  0  0  0  0  0  0  0
   -2.8576   -2.0761    1.5184 C   0  0  0  0  0  0  0  0  0  0  0  0
   -1.9456   -2.7051    2.0404 O   0  0  0  0  0  0  0  0  0  0  0  0
   -2.6926   -0.8481    1.0174 N   0  0  0  0  0  0  0  0  0  0  0  0
   -3.4926   -0.3971    0.5954 H   0  0  0  0  0  0  0  0  0  0  0  0
   -1.4216   -0.1071    1.0434 C   0  0  1  0  0  0  0  0  0  0  0  0
   -1.1211    0.0966    0.0144 H   0  0  0  0  0  0  0  0  0  0  0  0
   -1.6536    1.2342    1.7674 C   0  0  0  0  0  0  0  0  0  0  0  0
   -2.1035    1.0313    2.7413 H   0  0  0  0  0  0  0  0  0  0  0  0
   -0.6902    1.7213    1.9339 H   0  0  0  0  0  0  0  0  0  0  0  0
   -2.5766    2.1917    0.9996 C   0  0  0  0  0  0  0  0  0  0  0  0
   -2.1429    2.4200    0.0250 H   0  0  0  0  0  0  0  0  0  0  0  0
   -3.5496    1.7198    0.8593 H   0  0  0  0  0  0  0  0  0  0  0  0
   -2.7510    3.4956    1.7901 C   0  0  0  0  0  0  0  0  0  0  0  0
   -3.1605    3.2549    2.7738 H   0  0  0  0  0  0  0  0  0  0  0  0
   -1.7693    3.9572    1.9203 H   0  0  0  0  0  0  0  0  0  0  0  0
   -3.6527    4.4397    1.0985 N   0  3  0  0  0  0  0  0  0  0  0  0
   -4.0009    4.1551    0.1990 H   0  0  0  0  0  0  0  0  0  0  0  0
   -4.0439    5.6197    1.5497 C   0  0  0  0  0  0  0  0  0  0  0  0
   -3.6524    6.0855    2.7026 N   0  0  0  0  0  0  0  0  0  0  0  0
   -3.0348    5.5275    3.2653 H   0  0  0  0  0  0  0  0  0  0  0  0
   -3.9584    6.9832    3.0301 H   0  0  0  0  0  0  0  0  0  0  0  0
   -4.8450    6.3643    0.8419 N   0  0  0  0  0  0  0  0  0  0  0  0
   -5.1741    6.0477   -0.0538 H   0  0  0  0  0  0  0  0  0  0  0  0
   -5.1394    7.2588    1.1880 H   0  0  0  0  0  0  0  0  0  0  0  0
   -0.3302   -0.9391    1.7201 C   0  0  0  0  0  0  0  0  0  0  0  0
   -0.2270   -2.1311    1.4563 O   0  0  0  0  0  0  0  0  0  0  0  0
    0.4475   -0.3158    2.6108 N   0  0  0  0  0  0  0  0  0  0  0  0
    0.3173    0.6744    2.7386 H   0  0  0  0  0  0  0  0  0  0  0  0
    1.5360   -0.9649    3.3435 C   0  0  0  0  0  0  0  0  0  0  0  0
    2.3081   -1.2923    2.6440 H   0  0  0  0  0  0  0  0  0  0  0  0
    1.9771   -0.2721    4.0612 H   0  0  0  0  0  0  0  0  0  0  0  0
    1.1582   -1.8411    3.8748 H   0  0  0  0  0  0  0  0  0  0  0  0
  5  6  2  0  0  0  0
  5  7  1  0  0  0  0
  2  3  1  0  0  0  0
  2  4  1  0  0  0  0
  2  5  1  0  0  0  0
  1  2  1  0  0  0  0
 29 30  2  0  0  0  0
 29 31  1  0  0  0  0
 26 27  1  0  0  0  0
 26 28  1  0  0  0  0
 23 24  1  0  0  0  0
 23 25  1  0  0  0  0
 22 23  1  0  0  0  0
 22 26  1  0  0  0  0
 20 21  1  0  0  0  0
 20 22  2  0  0  0  0
 17 18  1  0  0  0  0
 17 19  1  0  0  0  0
 17 20  1  0  0  0  0
 14 15  1  0  0  0  0
 14 16  1  0  0  0  0
 14 17  1  0  0  0  0
 11 12  1  0  0  0  0
 11 13  1  0  0  0  0
 11 14  1  0  0  0  0
  9 10  1  0  0  0  0
  9 11  1  0  0  0  0
  9 29  1  0  0  0  0
  7  8  1  0  0  0  0
  7  9  1  0  0  0  0
 33 34  1  0  0  0  0
 33 35  1  0  0  0  0
 33 36  1  0  0  0  0
 31 32  1  0  0  0  0
 31 33  1  0  0  0  0
M  CHG  1  20   1
M  END
$$$$
default_name
  -OEChem-01062215323D

 36 35  0     1  0  0  0  0  0999 V2000
   -4.2256   -3.6731    1.8584 H   0  0  0  0  0  0  0  0  0  0  0  0
   -4.2396   -2.6781    1.4144 C   0  0  0  0  0  0  0  0  0  0  0  0
   -4.9506   -2.0521    1.9514 H   0  0  0  0  0  0  0  0  0  0  0  0
   -4.5266   -2.7521    0.3674 H   0  0  0  0  0  0  0  0  0  0  0  0
   -2.8576   -2.0761    1.5184 C   0  0  0  0  0  0  0  0  0  0  0  0
   -1.9456   -2.7051    2.0404 O   0  0  0  0  0  0  0  0  0  0  0  0
   -2.6926   -0.8481    1.0174 N   0  0  0  0  0  0  0  0  0  0  0  0
   -3.4926   -0.3971    0.5954 H   0  0  0  0  0  0  0  0  0  0  0  0
   -1.4216   -0.1071    1.0434 C   0  0  1  0  0  0  0  0  0  0  0  0
   -1.1211    0.0966    0.0144 H   0  0  0  0  0  0  0  0  0  0  0  0
   -1.6536    1.2342    1.7674 C   0  0  0  0  0  0  0  0  0  0  0  0
   -2.1035    1.0313    2.7413 H   0  0  0  0  0  0  0  0  0  0  0  0
   -0.6902    1.7213    1.9339 H   0  0  0  0  0  0  0  0  0  0  0  0
   -2.5766    2.1917    0.9996 C   0  0  0  0  0  0  0  0  0  0  0  0
   -2.1429    2.4200    0.0250 H   0  0  0  0  0  0  0  0  0  0  0  0
   -3.5496    1.7198    0.8593 H   0  0  0  0  0  0  0  0  0  0  0  0
   -2.7510    3.4956    1.7901 C   0  0  0  0  0  0  0  0  0  0  0  0
   -3.1605    3.2549    2.7738 H   0  0  0  0  0  0  0  0  0  0  0  0
   -1.7693    3.9572    1.9203 H   0  0  0  0  0  0  0  0  0  0  0  0
   -3.6527    4.4397    1.0985 N   0  3  0  0  0  0  0  0  0  0  0  0
   -4.0009    4.1551    0.1990 H   0  0  0  0  0  0  0  0  0  0  0  0
   -4.0439    5.6197    1.5497 C   0  0  0  0  0  0  0  0  0  0  0  0
   -3.6524    6.0855    2.7026 N   0  0  0  0  0  0  0  0  0  0  0  0
   -3.0348    5.5275    3.2653 H   0  0  0  0  0  0  0  0  0  0  0  0
   -3.9584    6.9832    3.0301 H   0  0  0  0  0  0  0  0  0  0  0  0
   -4.8450    6.3643    0.8419 N   0  0  0  0  0  0  0  0  0  0  0  0
   -5.1741    6.0477   -0.0538 H   0  0  0  0  0  0  0  0  0  0  0  0
   -5.1394    7.2588    1.1880 H   0  0  0  0  0  0  0  0  0  0  0  0
   -0.3302   -0.9391    1.7201 C   0  0  0  0  0  0  0  0  0  0  0  0
   -0.0423   -2.0412    1.2689 O   0  0  0  0  0  0  0  0  0  0  0  0
    0.2391   -0.4238    2.8142 N   0  0  0  0  0  0  0  0  0  0  0  0
   -0.0320    0.5049    3.0934 H   0  0  0  0  0  0  0  0  0  0  0  0
    1.2970   -1.0883    3.5771 C   0  0  0  0  0  0  0  0  0  0  0  0
    2.1890   -1.1949    2.9561 H   0  0  0  0  0  0  0  0  0  0  0  0
    1.5490   -0.5059    4.4643 H   0  0  0  0  0  0  0  0  0  0  0  0
    0.9684   -2.0842    3.8821 H   0  0  0  0  0  0  0  0  0  0  0  0
  5  6  2  0  0  0  0
  5  7  1  0  0  0  0
  2  3  1  0  0  0  0
  2  4  1  0  0  0  0
  2  5  1  0  0  0  0
  1  2  1  0  0  0  0
 29 30  2  0  0  0  0
 29 31  1  0  0  0  0
 26 27  1  0  0  0  0
 26 28  1  0  0  0  0
 23 24  1  0  0  0  0
 23 25  1  0  0  0  0
 22 23  1  0  0  0  0
 22 26  1  0  0  0  0
 20 21  1  0  0  0  0
 20 22  2  0  0  0  0
 17 18  1  0  0  0  0
 17 19  1  0  0  0  0
 17 20  1  0  0  0  0
 14 15  1  0  0  0  0
 14 16  1  0  0  0  0
 14 17  1  0  0  0  0
 11 12  1  0  0  0  0
 11 13  1  0  0  0  0
 11 14  1  0  0  0  0
  9 10  1  0  0  0  0
  9 11  1  0  0  0  0
  9 29  1  0  0  0  0
  7  8  1  0  0  0  0
  7  9  1  0  0  0  0
 33 34  1  0  0  0  0
 33 35  1  0  0  0  0
 33 36  1  0  0  0  0
 31 32  1  0  0  0  0
 31 33  1  0  0  0  0
M  CHG  1  20   1
M  END
$$$$
default_name
  -OEChem-01062215323D

 36 35  0     1  0  0  0  0  0999 V2000
   -4.2256   -3.6731    1.8584 H   0  0  0  0  0  0  0  0  0  0  0  0
   -4.2396   -2.6781    1.4144 C   0  0  0  0  0  0  0  0  0  0  0  0
   -4.9506   -2.0521    1.9514 H   0  0  0  0  0  0  0  0  0  0  0  0
   -4.5266   -2.7521    0.3674 H   0  0  0  0  0  0  0  0  0  0  0  0
   -2.8576   -2.0761    1.5184 C   0  0  0  0  0  0  0  0  0  0  0  0
   -1.9456   -2.7051    2.0404 O   0  0  0  0  0  0  0  0  0  0  0  0
   -2.6926   -0.8481    1.0174 N   0  0  0  0  0  0  0  0  0  0  0  0
   -3.4926   -0.3971    0.5954 H   0  0  0  0  0  0  0  0  0  0  0  0
   -1.4216   -0.1071    1.0434 C   0  0  1  0  0  0  0  0  0  0  0  0
   -1.1211    0.0966    0.0144 H   0  0  0  0  0  0  0  0  0  0  0  0
   -1.6536    1.2342    1.7674 C   0  0  0  0  0  0  0  0  0  0  0  0
   -2.1035    1.0313    2.7413 H   0  0  0  0  0  0  0  0  0  0  0  0
   -0.6902    1.7213    1.9339 H   0  0  0  0  0  0  0  0  0  0  0  0
   -2.5766    2.1917    0.9996 C   0  0  0  0  0  0  0  0  0  0  0  0
   -2.1429    2.4200    0.0250 H   0  0  0  0  0  0  0  0  0  0  0  0
   -3.5496    1.7198    0.8593 H   0  0  0  0  0  0  0  0  0  0  0  0
   -2.7510    3.4956    1.7901 C   0  0  0  0  0  0  0  0  0  0  0  0
   -3.1605    3.2549    2.7738 H   0  0  0  0  0  0  0  0  0  0  0  0
   -1.7693    3.9572    1.9203 H   0  0  0  0  0  0  0  0  0  0  0  0
   -3.6527    4.4397    1.0985 N   0  3  0  0  0  0  0  0  0  0  0  0
   -4.0009    4.1551    0.1990 H   0  0  0  0  0  0  0  0  0  0  0  0
   -4.0439    5.6197    1.5497 C   0  0  0  0  0  0  0  0  0  0  0  0
   -3.6524    6.0855    2.7026 N   0  0  0  0  0  0  0  0  0  0  0  0
   -3.0348    5.5275    3.2653 H   0  0  0  0  0  0  0  0  0  0  0  0
   -3.9584    6.9832    3.0301 H   0  0  0  0  0  0  0  0  0  0  0  0
   -4.8450    6.3643    0.8419 N   0  0  0  0  0  0  0  0  0  0  0  0
   -5.1741    6.0477   -0.0538 H   0  0  0  0  0  0  0  0  0  0  0  0
   -5.1394    7.2588    1.1880 H   0  0  0  0  0  0  0  0  0  0  0  0
   -0.3302   -0.9391    1.7201 C   0  0  0  0  0  0  0  0  0  0  0  0
    0.1522   -1.8986    1.1304 O   0  0  0  0  0  0  0  0  0  0  0  0
    0.0216   -0.5895    2.9613 N   0  0  0  0  0  0  0  0  0  0  0  0
   -0.3998    0.2356    3.3557 H   0  0  0  0  0  0  0  0  0  0  0  0
    1.0474   -1.2780    3.7464 C   0  0  0  0  0  0  0  0  0  0  0  0
    2.0188   -1.1720    3.2587 H   0  0  0  0  0  0  0  0  0  0  0  0
    1.1055   -0.8551    4.7501 H   0  0  0  0  0  0  0  0  0  0  0  0
    0.8118   -2.3421    3.8175 H   0  0  0  0  0  0  0  0  0  0  0  0
  5  6  2  0  0  0  0
  5  7  1  0  0  0  0
  2  3  1  0  0  0  0
  2  4  1  0  0  0  0
  2  5  1  0  0  0  0
  1  2  1  0  0  0  0
 29 30  2  0  0  0  0
 29 31  1  0  0  0  0
 26 27  1  0  0  0  0
 26 28  1  0  0  0  0
 23 24  1  0  0  0  0
 23 25  1  0  0  0  0
 22 23  1  0  0  0  0
 22 26  1  0  0  0  0
 20 21  1  0  0  0  0
 20 22  2  0  0  0  0
 17 18  1  0  0  0  0
 17 19  1  0  0  0  0
 17 20  1  0  0  0  0
 14 15  1  0  0  0  0
 14 16  1  0  0  0  0
 14 17  1  0  0  0  0
 11 12  1  0  0  0  0
 11 13  1  0  0  0  0
 11 14  1  0  0  0  0
  9 10  1  0  0  0  0
  9 11  1  0  0  0  0
  9 29  1  0  0  0  0
  7  8  1  0  0  0  0
  7  9  1  0  0  0  0
 33 34  1  0  0  0  0
 33 35  1  0  0  0  0
 33 36  1  0  0  0  0
 31 32  1  0  0  0  0
 31 33  1  0  0  0  0
M  CHG  1  20   1
M  END
$$$$
default_name
  -OEChem-01062215323D

 36 35  0     1  0  0  0  0  0999 V2000
   -4.2256   -3.6731    1.8584 H   0  0  0  0  0  0  0  0  0  0  0  0
   -4.2396   -2.6781    1.4144 C   0  0  0  0  0  0  0  0  0  0  0  0
   -4.9506   -2.0521    1.9514 H   0  0  0  0  0  0  0  0  0  0  0  0
   -4.5266   -2.7521    0.3674 H   0  0  0  0  0  0  0  0  0  0  0  0
   -2.8576   -2.0761    1.5184 C   0  0  0  0  0  0  0  0  0  0  0  0
   -1.9456   -2.7051    2.0404 O   0  0  0  0  0  0  0  0  0  0  0  0
   -2.6926   -0.8481    1.0174 N   0  0  0  0  0  0  0  0  0  0  0  0
   -3.4926   -0.3971    0.5954 H   0  0  0  0  0  0  0  0  0  0  0  0
   -1.4216   -0.1071    1.0434 C   0  0  1  0  0  0  0  0  0  0  0  0
   -1.1211    0.0966    0.0144 H   0  0  0  0  0  0  0  0  0  0  0  0
   -1.6536    1.2342    1.7674 C   0  0  0  0  0  0  0  0  0  0  0  0
   -2.1035    1.0313    2.7413 H   0  0  0  0  0  0  0  0  0  0  0  0
   -0.6902    1.7213    1.9339 H   0  0  0  0  0  0  0  0  0  0  0  0
   -2.5766    2.1917    0.9996 C   0  0  0  0  0  0  0  0  0  0  0  0
   -2.1429    2.4200    0.0250 H   0  0  0  0  0  0  0  0  0  0  0  0
   -3.5496    1.7198    0.8593 H   0  0  0  0  0  0  0  0  0  0  0  0
   -2.7510    3.4956    1.7901 C   0  0  0  0  0  0  0  0  0  0  0  0
   -3.1605    3.2549    2.7738 H   0  0  0  0  0  0  0  0  0  0  0  0
   -1.7693    3.9572    1.9203 H   0  0  0  0  0  0  0  0  0  0  0  0
   -3.6527    4.4397    1.0985 N   0  3  0  0  0  0  0  0  0  0  0  0
   -4.0009    4.1551    0.1990 H   0  0  0  0  0  0  0  0  0  0  0  0
   -4.0439    5.6197    1.5497 C   0  0  0  0  0  0  0  0  0  0  0  0
   -3.6524    6.0855    2.7026 N   0  0  0  0  0  0  0  0  0  0  0  0
   -3.0348    5.5275    3.2653 H   0  0  0  0  0  0  0  0  0  0  0  0
   -3.9584    6.9832    3.0301 H   0  0  0  0  0  0  0  0  0  0  0  0
   -4.8450    6.3643    0.8419 N   0  0  0  0  0  0  0  0  0  0  0  0
   -5.1741    6.0477   -0.0538 H   0  0  0  0  0  0  0  0  0  0  0  0
   -5.1394    7.2588    1.1880 H   0  0  0  0  0  0  0  0  0  0  0  0
   -0.3302   -0.9391    1.7201 C   0  0  0  0  0  0  0  0  0  0  0  0
    0.3433   -1.7131    1.0504 O   0  0  0  0  0  0  0  0  0  0  0  0
   -0.1903   -0.8016    3.0423 N   0  0  0  0  0  0  0  0  0  0  0  0
   -0.7612   -0.1150    3.5076 H   0  0  0  0  0  0  0  0  0  0  0  0
    0.8043   -1.5211    3.8397 C   0  0  0  0  0  0  0  0  0  0  0  0
    1.8092   -1.2252    3.5312 H   0  0  0  0  0  0  0  0  0  0  0  0
    0.6769   -1.2960    4.8994 H   0  0  0  0  0  0  0  0  0  0  0  0
    0.6992   -2.5972    3.6855 H   0  0  0  0  0  0  0  0  0  0  0  0
  5  6  2  0  0  0  0
  5  7  1  0  0  0  0
  2  3  1  0  0  0  0
  2  4  1  0  0  0  0
  2  5  1  0  0  0  0
  1  2  1  0  0  0  0
 29 30  2  0  0  0  0
 29 31  1  0  0  0  0
 26 27  1  0  0  0  0
 26 28  1  0  0  0  0
 23 24  1  0  0  0  0
 23 25  1  0  0  0  0
 22 23  1  0  0  0  0
 22 26  1  0  0  0  0
 20 21  1  0  0  0  0
 20 22  2  0  0  0  0
 17 18  1  0  0  0  0
 17 19  1  0  0  0  0
 17 20  1  0  0  0  0
 14 15  1  0  0  0  0
 14 16  1  0  0  0  0
 14 17  1  0  0  0  0
 11 12  1  0  0  0  0
 11 13  1  0  0  0  0
 11 14  1  0  0  0  0
  9 10  1  0  0  0  0
  9 11  1  0  0  0  0
  9 29  1  0  0  0  0
  7  8  1  0  0  0  0
  7  9  1  0  0  0  0
 33 34  1  0  0  0  0
 33 35  1  0  0  0  0
 33 36  1  0  0  0  0
 31 32  1  0  0  0  0
 31 33  1  0  0  0  0
M  CHG  1  20   1
M  END
$$$$
default_name
  -OEChem-01062215323D

 36 35  0     1  0  0  0  0  0999 V2000
   -4.2256   -3.6731    1.8584 H   0  0  0  0  0  0  0  0  0  0  0  0
   -4.2396   -2.6781    1.4144 C   0  0  0  0  0  0  0  0  0  0  0  0
   -4.9506   -2.0521    1.9514 H   0  0  0  0  0  0  0  0  0  0  0  0
   -4.5266   -2.7521    0.3674 H   0  0  0  0  0  0  0  0  0  0  0  0
   -2.8576   -2.0761    1.5184 C   0  0  0  0  0  0  0  0  0  0  0  0
   -1.9456   -2.7051    2.0404 O   0  0  0  0  0  0  0  0  0  0  0  0
   -2.6926   -0.8481    1.0174 N   0  0  0  0  0  0  0  0  0  0  0  0
   -3.4926   -0.3971    0.5954 H   0  0  0  0  0  0  0  0  0  0  0  0
   -1.4216   -0.1071    1.0434 C   0  0  1  0  0  0  0  0  0  0  0  0
   -1.1211    0.0966    0.0144 H   0  0  0  0  0  0  0  0  0  0  0  0
   -1.6536    1.2342    1.7674 C   0  0  0  0  0  0  0  0  0  0  0  0
   -2.1035    1.0313    2.7413 H   0  0  0  0  0  0  0  0  0  0  0  0
   -0.6902    1.7213    1.9339 H   0  0  0  0  0  0  0  0  0  0  0  0
   -2.5766    2.1917    0.9996 C   0  0  0  0  0  0  0  0  0  0  0  0
   -2.1429    2.4200    0.0250 H   0  0  0  0  0  0  0  0  0  0  0  0
   -3.5496    1.7198    0.8593 H   0  0  0  0  0  0  0  0  0  0  0  0
   -2.7510    3.4956    1.7901 C   0  0  0  0  0  0  0  0  0  0  0  0
   -3.1605    3.2549    2.7738 H   0  0  0  0  0  0  0  0  0  0  0  0
   -1.7693    3.9572    1.9203 H   0  0  0  0  0  0  0  0  0  0  0  0
   -3.6527    4.4397    1.0985 N   0  3  0  0  0  0  0  0  0  0  0  0
   -4.0009    4.1551    0.1990 H   0  0  0  0  0  0  0  0  0  0  0  0
   -4.0439    5.6197    1.5497 C   0  0  0  0  0  0  0  0  0  0  0  0
   -3.6524    6.0855    2.7026 N   0  0  0  0  0  0  0  0  0  0  0  0
   -3.0348    5.5275    3.2653 H   0  0  0  0  0  0  0  0  0  0  0  0
   -3.9584    6.9832    3.0301 H   0  0  0  0  0  0  0  0  0  0  0  0
   -4.8450    6.3643    0.8419 N   0  0  0  0  0  0  0  0  0  0  0  0
   -5.1741    6.0477   -0.0538 H   0  0  0  0  0  0  0  0  0  0  0  0
   -5.1394    7.2588    1.1880 H   0  0  0  0  0  0  0  0  0  0  0  0
   -0.3302   -0.9391    1.7201 C   0  0  0  0  0  0  0  0  0  0  0  0
    0.5179   -1.4972    1.0342 O   0  0  0  0  0  0  0  0  0  0  0  0
   -0.3821   -1.0456    3.0515 N   0  0  0  0  0  0  0  0  0  0  0  0
   -1.0916   -0.5230    3.5387 H   0  0  0  0  0  0  0  0  0  0  0  0
    0.5841   -1.8010    3.8508 C   0  0  0  0  0  0  0  0  0  0  0  0
    1.5745   -1.3510    3.7552 H   0  0  0  0  0  0  0  0  0  0  0  0
    0.2923   -1.7984    4.9018 H   0  0  0  0  0  0  0  0  0  0  0  0
    0.6382   -2.8322    3.4950 H   0  0  0  0  0  0  0  0  0  0  0  0
  5  6  2  0  0  0  0
  5  7  1  0  0  0  0
  2  3  1  0  0  0  0
  2  4  1  0  0  0  0
  2  5  1  0  0  0  0
  1  2  1  0  0  0  0
 29 30  2  0  0  0  0
 29 31  1  0  0  0  0
 26 27  1  0  0  0  0
 26 28  1  0  0  0  0
 23 24  1  0  0  0  0
 23 25  1  0  0  0  0
 22 23  1  0  0  0  0
 22 26  1  0  0  0  0
 20 21  1  0  0  0  0
 20 22  2  0  0  0  0
 17 18  1  0  0  0  0
 17 19  1  0  0  0  0
 17 20  1  0  0  0  0
 14 15  1  0  0  0  0
 14 16  1  0  0  0  0
 14 17  1  0  0  0  0
 11 12  1  0  0  0  0
 11 13  1  0  0  0  0
 11 14  1  0  0  0  0
  9 10  1  0  0  0  0
  9 11  1  0  0  0  0
  9 29  1  0  0  0  0
  7  8  1  0  0  0  0
  7  9  1  0  0  0  0
 33 34  1  0  0  0  0
 33 35  1  0  0  0  0
 33 36  1  0  0  0  0
 31 32  1  0  0  0  0
 31 33  1  0  0  0  0
M  CHG  1  20   1
M  END
$$$$
default_name
  -OEChem-01062215323D

 36 35  0     1  0  0  0  0  0999 V2000
   -4.2256   -3.6731    1.8584 H   0  0  0  0  0  0  0  0  0  0  0  0
   -4.2396   -2.6781    1.4144 C   0  0  0  0  0  0  0  0  0  0  0  0
   -4.9506   -2.0521    1.9514 H   0  0  0  0  0  0  0  0  0  0  0  0
   -4.5266   -2.7521    0.3674 H   0  0  0  0  0  0  0  0  0  0  0  0
   -2.8576   -2.0761    1.5184 C   0  0  0  0  0  0  0  0  0  0  0  0
   -1.9456   -2.7051    2.0404 O   0  0  0  0  0  0  0  0  0  0  0  0
   -2.6926   -0.8481    1.0174 N   0  0  0  0  0  0  0  0  0  0  0  0
   -3.4926   -0.3971    0.5954 H   0  0  0  0  0  0  0  0  0  0  0  0
   -1.4216   -0.1071    1.0434 C   0  0  1  0  0  0  0  0  0  0  0  0
   -1.1211    0.0966    0.0144 H   0  0  0  0  0  0  0  0  0  0  0  0
   -1.6536    1.2342    1.7674 C   0  0  0  0  0  0  0  0  0  0  0  0
   -2.1035    1.0313    2.7413 H   0  0  0  0  0  0  0  0  0  0  0  0
   -0.6902    1.7213    1.9339 H   0  0  0  0  0  0  0  0  0  0  0  0
   -2.5766    2.1917    0.9996 C   0  0  0  0  0  0  0  0  0  0  0  0
   -2.1429    2.4200    0.0250 H   0  0  0  0  0  0  0  0  0  0  0  0
   -3.5496    1.7198    0.8593 H   0  0  0  0  0  0  0  0  0  0  0  0
   -2.7510    3.4956    1.7901 C   0  0  0  0  0  0  0  0  0  0  0  0
   -3.1605    3.2549    2.7738 H   0  0  0  0  0  0  0  0  0  0  0  0
   -1.7693    3.9572    1.9203 H   0  0  0  0  0  0  0  0  0  0  0  0
   -3.6527    4.4397    1.0985 N   0  3  0  0  0  0  0  0  0  0  0  0
   -4.0009    4.1551    0.1990 H   0  0  0  0  0  0  0  0  0  0  0  0
   -4.0439    5.6197    1.5497 C   0  0  0  0  0  0  0  0  0  0  0  0
   -3.6524    6.0855    2.7026 N   0  0  0  0  0  0  0  0  0  0  0  0
   -3.0348    5.5275    3.2653 H   0  0  0  0  0  0  0  0  0  0  0  0
   -3.9584    6.9832    3.0301 H   0  0  0  0  0  0  0  0  0  0  0  0
   -4.8450    6.3643    0.8419 N   0  0  0  0  0  0  0  0  0  0  0  0
   -5.1741    6.0477   -0.0538 H   0  0  0  0  0  0  0  0  0  0  0  0
   -5.1394    7.2588    1.1880 H   0  0  0  0  0  0  0  0  0  0  0  0
   -0.3302   -0.9391    1.7201 C   0  0  0  0  0  0  0  0  0  0  0  0
    0.6641   -1.2657    1.0830 O   0  0  0  0  0  0  0  0  0  0  0  0
   -0.5407   -1.3050    2.9884 N   0  0  0  0  0  0  0  0  0  0  0  0
   -1.3684   -0.9607    3.4469 H   0  0  0  0  0  0  0  0  0  0  0  0
    0.4018   -2.0985    3.7788 C   0  0  0  0  0  0  0  0  0  0  0  0
    1.3307   -1.5406    3.9153 H   0  0  0  0  0  0  0  0  0  0  0  0
   -0.0219   -2.3283    4.7573 H   0  0  0  0  0  0  0  0  0  0  0  0
    0.6330   -3.0309    3.2591 H   0  0  0  0  0  0  0  0  0  0  0  0
  5  6  2  0  0  0  0
  5  7  1  0  0  0  0
  2  3  1  0  0  0  0
  2  4  1  0  0  0  0
  2  5  1  0  0  0  0
  1  2  1  0  0  0  0
 29 30  2  0  0  0  0
 29 31  1  0  0  0  0
 26 27  1  0  0  0  0
 26 28  1  0  0  0  0
 23 24  1  0  0  0  0
 23 25  1  0  0  0  0
 22 23  1  0  0  0  0
 22 26  1  0  0  0  0
 20 21  1  0  0  0  0
 20 22  2  0  0  0  0
 17 18  1  0  0  0  0
 17 19  1  0  0  0  0
 17 20  1  0  0  0  0
 14 15  1  0  0  0  0
 14 16  1  0  0  0  0
 14 17  1  0  0  0  0
 11 12  1  0  0  0  0
 11 13  1  0  0  0  0
 11 14  1  0  0  0  0
  9 10  1  0  0  0  0
  9 11  1  0  0  0  0
  9 29  1  0  0  0  0
  7  8  1  0  0  0  0
  7  9  1  0  0  0  0
 33 34  1  0  0  0  0
 33 35  1  0  0  0  0
 33 36  1  0  0  0  0
 31 32  1  0  0  0  0
 31 33  1  0  0  0  0
M  CHG  1  20   1
M  END
$$$$
default_name
  -OEChem-01062215323D

 36 35  0     1  0  0  0  0  0999 V2000
   -4.2256   -3.6731    1.8584 H   0  0  0  0  0  0  0  0  0  0  0  0
   -4.2396   -2.6781    1.4144 C   0  0  0  0  0  0  0  0  0  0  0  0
   -4.9506   -2.0521    1.9514 H   0  0  0  0  0  0  0  0  0  0  0  0
   -4.5266   -2.7521    0.3674 H   0  0  0  0  0  0  0  0  0  0  0  0
   -2.8576   -2.0761    1.5184 C   0  0  0  0  0  0  0  0  0  0  0  0
   -1.9456   -2.7051    2.0404 O   0  0  0  0  0  0  0  0  0  0  0  0
   -2.6926   -0.8481    1.0174 N   0  0  0  0  0  0  0  0  0  0  0  0
   -3.4926   -0.3971    0.5954 H   0  0  0  0  0  0  0  0  0  0  0  0
   -1.4216   -0.1071    1.0434 C   0  0  1  0  0  0  0  0  0  0  0  0
   -1.1211    0.0966    0.0144 H   0  0  0  0  0  0  0  0  0  0  0  0
   -1.6536    1.2342    1.7674 C   0  0  0  0  0  0  0  0  0  0  0  0
   -2.1035    1.0313    2.7413 H   0  0  0  0  0  0  0  0  0  0  0  0
   -0.6902    1.7213    1.9339 H   0  0  0  0  0  0  0  0  0  0  0  0
   -2.5766    2.1917    0.9996 C   0  0  0  0  0  0  0  0  0  0  0  0
   -2.1429    2.4200    0.0250 H   0  0  0  0  0  0  0  0  0  0  0  0
   -3.5496    1.7198    0.8593 H   0  0  0  0  0  0  0  0  0  0  0  0
   -2.7510    3.4956    1.7901 C   0  0  0  0  0  0  0  0  0  0  0  0
   -3.1605    3.2549    2.7738 H   0  0  0  0  0  0  0  0  0  0  0  0
   -1.7693    3.9572    1.9203 H   0  0  0  0  0  0  0  0  0  0  0  0
   -3.6527    4.4397    1.0985 N   0  3  0  0  0  0  0  0  0  0  0  0
   -4.0009    4.1551    0.1990 H   0  0  0  0  0  0  0  0  0  0  0  0
   -4.0439    5.6197    1.5497 C   0  0  0  0  0  0  0  0  0  0  0  0
   -3.6524    6.0855    2.7026 N   0  0  0  0  0  0  0  0  0  0  0  0
   -3.0348    5.5275    3.2653 H   0  0  0  0  0  0  0  0  0  0  0  0
   -3.9584    6.9832    3.0301 H   0  0  0  0  0  0  0  0  0  0  0  0
   -4.8450    6.3643    0.8419 N   0  0  0  0  0  0  0  0  0  0  0  0
   -5.1741    6.0477   -0.0538 H   0  0  0  0  0  0  0  0  0  0  0  0
   -5.1394    7.2588    1.1880 H   0  0  0  0  0  0  0  0  0  0  0  0
   -0.3302   -0.9391    1.7201 C   0  0  0  0  0  0  0  0  0  0  0  0
    0.7720   -1.0344    1.1935 O   0  0  0  0  0  0  0  0  0  0  0  0
   -0.6553   -1.5621    2.8572 N   0  0  0  0  0  0  0  0  0  0  0  0
   -1.5727   -1.3982    3.2385 H   0  0  0  0  0  0  0  0  0  0  0  0
    0.2700   -2.3935    3.6287 C   0  0  0  0  0  0  0  0  0  0  0  0
    1.0944   -1.7813    4.0006 H   0  0  0  0  0  0  0  0  0  0  0  0
   -0.2445   -2.8493    4.4757 H   0  0  0  0  0  0  0  0  0  0  0  0
    0.6838   -3.1799    2.9938 H   0  0  0  0  0  0  0  0  0  0  0  0
  5  6  2  0  0  0  0
  5  7  1  0  0  0  0
  2  3  1  0  0  0  0
  2  4  1  0  0  0  0
  2  5  1  0  0  0  0
  1  2  1  0  0  0  0
 29 30  2  0  0  0  0
 29 31  1  0  0  0  0
 26 27  1  0  0  0  0
 26 28  1  0  0  0  0
 23 24  1  0  0  0  0
 23 25  1  0  0  0  0
 22 23  1  0  0  0  0
 22 26  1  0  0  0  0
 20 21  1  0  0  0  0
 20 22  2  0  0  0  0
 17 18  1  0  0  0  0
 17 19  1  0  0  0  0
 17 20  1  0  0  0  0
 14 15  1  0  0  0  0
 14 16  1  0  0  0  0
 14 17  1  0  0  0  0
 11 12  1  0  0  0  0
 11 13  1  0  0  0  0
 11 14  1  0  0  0  0
  9 10  1  0  0  0  0
  9 11  1  0  0  0  0
  9 29  1  0  0  0  0
  7  8  1  0  0  0  0
  7  9  1  0  0  0  0
 33 34  1  0  0  0  0
 33 35  1  0  0  0  0
 33 36  1  0  0  0  0
 31 32  1  0  0  0  0
 31 33  1  0  0  0  0
M  CHG  1  20   1
M  END
$$$$
default_name
  -OEChem-01062215323D

 36 35  0     1  0  0  0  0  0999 V2000
   -4.2256   -3.6731    1.8584 H   0  0  0  0  0  0  0  0  0  0  0  0
   -4.2396   -2.6781    1.4144 C   0  0  0  0  0  0  0  0  0  0  0  0
   -4.9506   -2.0521    1.9514 H   0  0  0  0  0  0  0  0  0  0  0  0
   -4.5266   -2.7521    0.3674 H   0  0  0  0  0  0  0  0  0  0  0  0
   -2.8576   -2.0761    1.5184 C   0  0  0  0  0  0  0  0  0  0  0  0
   -1.9456   -2.7051    2.0404 O   0  0  0  0  0  0  0  0  0  0  0  0
   -2.6926   -0.8481    1.0174 N   0  0  0  0  0  0  0  0  0  0  0  0
   -3.4926   -0.3971    0.5954 H   0  0  0  0  0  0  0  0  0  0  0  0
   -1.4216   -0.1071    1.0434 C   0  0  1  0  0  0  0  0  0  0  0  0
   -1.1211    0.0966    0.0144 H   0  0  0  0  0  0  0  0  0  0  0  0
   -1.6536    1.2342    1.7674 C   0  0  0  0  0  0  0  0  0  0  0  0
   -2.1035    1.0313    2.7413 H   0  0  0  0  0  0  0  0  0  0  0  0
   -0.6902    1.7213    1.9339 H   0  0  0  0  0  0  0  0  0  0  0  0
   -2.5766    2.1917    0.9996 C   0  0  0  0  0  0  0  0  0  0  0  0
   -2.1429    2.4200    0.0250 H   0  0  0  0  0  0  0  0  0  0  0  0
   -3.5496    1.7198    0.8593 H   0  0  0  0  0  0  0  0  0  0  0  0
   -2.7510    3.4956    1.7901 C   0  0  0  0  0  0  0  0  0  0  0  0
   -3.1605    3.2549    2.7738 H   0  0  0  0  0  0  0  0  0  0  0  0
   -1.7693    3.9572    1.9203 H   0  0  0  0  0  0  0  0  0  0  0  0
   -3.6527    4.4397    1.0985 N   0  3  0  0  0  0  0  0  0  0  0  0
   -4.0009    4.1551    0.1990 H   0  0  0  0  0  0  0  0  0  0  0  0
   -4.0439    5.6197    1.5497 C   0  0  0  0  0  0  0  0  0  0  0  0
   -3.6524    6.0855    2.7026 N   0  0  0  0  0  0  0  0  0  0  0  0
   -3.0348    5.5275    3.2653 H   0  0  0  0  0  0  0  0  0  0  0  0
   -3.9584    6.9832    3.0301 H   0  0  0  0  0  0  0  0  0  0  0  0
   -4.8450    6.3643    0.8419 N   0  0  0  0  0  0  0  0  0  0  0  0
   -5.1741    6.0477   -0.0538 H   0  0  0  0  0  0  0  0  0  0  0  0
   -5.1394    7.2588    1.1880 H   0  0  0  0  0  0  0  0  0  0  0  0
   -0.3302   -0.9391    1.7201 C   0  0  0  0  0  0  0  0  0  0  0  0
    0.8341   -0.8190    1.3581 O   0  0  0  0  0  0  0  0  0  0  0  0
   -0.7181   -1.7993    2.6668 N   0  0  0  0  0  0  0  0  0  0  0  0
   -1.6906   -1.8058    2.9276 H   0  0  0  0  0  0  0  0  0  0  0  0
    0.1976   -2.6659    3.4108 C   0  0  0  0  0  0  0  0  0  0  0  0
    0.8816   -2.0565    4.0053 H   0  0  0  0  0  0  0  0  0  0  0  0
   -0.3603   -3.3261    4.0761 H   0  0  0  0  0  0  0  0  0  0  0  0
    0.7874   -3.2691    2.7171 H   0  0  0  0  0  0  0  0  0  0  0  0
  5  6  2  0  0  0  0
  5  7  1  0  0  0  0
  2  3  1  0  0  0  0
  2  4  1  0  0  0  0
  2  5  1  0  0  0  0
  1  2  1  0  0  0  0
 29 30  2  0  0  0  0
 29 31  1  0  0  0  0
 26 27  1  0  0  0  0
 26 28  1  0  0  0  0
 23 24  1  0  0  0  0
 23 25  1  0  0  0  0
 22 23  1  0  0  0  0
 22 26  1  0  0  0  0
 20 21  1  0  0  0  0
 20 22  2  0  0  0  0
 17 18  1  0  0  0  0
 17 19  1  0  0  0  0
 17 20  1  0  0  0  0
 14 15  1  0  0  0  0
 14 16  1  0  0  0  0
 14 17  1  0  0  0  0
 11 12  1  0  0  0  0
 11 13  1  0  0  0  0
 11 14  1  0  0  0  0
  9 10  1  0  0  0  0
  9 11  1  0  0  0  0
  9 29  1  0  0  0  0
  7  8  1  0  0  0  0
  7  9  1  0  0  0  0
 33 34  1  0  0  0  0
 33 35  1  0  0  0  0
 33 36  1  0  0  0  0
 31 32  1  0  0  0  0
 31 33  1  0  0  0  0
M  CHG  1  20   1
M  END
$$$$
default_name
  -OEChem-01062215323D

 36 35  0     1  0  0  0  0  0999 V2000
   -4.2256   -3.6731    1.8584 H   0  0  0  0  0  0  0  0  0  0  0  0
   -4.2396   -2.6781    1.4144 C   0  0  0  0  0  0  0  0  0  0  0  0
   -4.9506   -2.0521    1.9514 H   0  0  0  0  0  0  0  0  0  0  0  0
   -4.5266   -2.7521    0.3674 H   0  0  0  0  0  0  0  0  0  0  0  0
   -2.8576   -2.0761    1.5184 C   0  0  0  0  0  0  0  0  0  0  0  0
   -1.9456   -2.7051    2.0404 O   0  0  0  0  0  0  0  0  0  0  0  0
   -2.6926   -0.8481    1.0174 N   0  0  0  0  0  0  0  0  0  0  0  0
   -3.4926   -0.3971    0.5954 H   0  0  0  0  0  0  0  0  0  0  0  0
   -1.4216   -0.1071    1.0434 C   0  0  1  0  0  0  0  0  0  0  0  0
   -1.1211    0.0966    0.0144 H   0  0  0  0  0  0  0  0  0  0  0  0
   -1.6536    1.2342    1.7674 C   0  0  0  0  0  0  0  0  0  0  0  0
   -2.1035    1.0313    2.7413 H   0  0  0  0  0  0  0  0  0  0  0  0
   -0.6902    1.7213    1.9339 H   0  0  0  0  0  0  0  0  0  0  0  0
   -2.5766    2.1917    0.9996 C   0  0  0  0  0  0  0  0  0  0  0  0
   -2.1429    2.4200    0.0250 H   0  0  0  0  0  0  0  0  0  0  0  0
   -3.5496    1.7198    0.8593 H   0  0  0  0  0  0  0  0  0  0  0  0
   -2.7510    3.4956    1.7901 C   0  0  0  0  0  0  0  0  0  0  0  0
   -3.1605    3.2549    2.7738 H   0  0  0  0  0  0  0  0  0  0  0  0
   -1.7693    3.9572    1.9203 H   0  0  0  0  0  0  0  0  0  0  0  0
   -3.6527    4.4397    1.0985 N   0  3  0  0  0  0  0  0  0  0  0  0
   -4.0009    4.1551    0.1990 H   0  0  0  0  0  0  0  0  0  0  0  0
   -4.0439    5.6197    1.5497 C   0  0  0  0  0  0  0  0  0  0  0  0
   -3.6524    6.0855    2.7026 N   0  0  0  0  0  0  0  0  0  0  0  0
   -3.0348    5.5275    3.2653 H   0  0  0  0  0  0  0  0  0  0  0  0
   -3.9584    6.9832    3.0301 H   0  0  0  0  0  0  0  0  0  0  0  0
   -4.8450    6.3643    0.8419 N   0  0  0  0  0  0  0  0  0  0  0  0
   -5.1741    6.0477   -0.0538 H   0  0  0  0  0  0  0  0  0  0  0  0
   -5.1394    7.2588    1.1880 H   0  0  0  0  0  0  0  0  0  0  0  0
   -0.3302   -0.9391    1.7201 C   0  0  0  0  0  0  0  0  0  0  0  0
    0.8464   -0.6342    1.5656 O   0  0  0  0  0  0  0  0  0  0  0  0
   -0.7249   -2.0005    2.4304 N   0  0  0  0  0  0  0  0  0  0  0  0
   -1.7142   -2.1555    2.5356 H   0  0  0  0  0  0  0  0  0  0  0  0
    0.1894   -2.8970    3.1397 C   0  0  0  0  0  0  0  0  0  0  0  0
    0.7069   -2.3476    3.9291 H   0  0  0  0  0  0  0  0  0  0  0  0
   -0.3613   -3.7261    3.5859 H   0  0  0  0  0  0  0  0  0  0  0  0
    0.9366   -3.2922    2.4480 H   0  0  0  0  0  0  0  0  0  0  0  0
  5  6  2  0  0  0  0
  5  7  1  0  0  0  0
  2  3  1  0  0  0  0
  2  4  1  0  0  0  0
  2  5  1  0  0  0  0
  1  2  1  0  0  0  0
 29 30  2  0  0  0  0
 29 31  1  0  0  0  0
 26 27  1  0  0  0  0
 26 28  1  0  0  0  0
 23 24  1  0  0  0  0
 23 25  1  0  0  0  0
 22 23  1  0  0  0  0
 22 26  1  0  0  0  0
 20 21  1  0  0  0  0
 20 22  2  0  0  0  0
 17 18  1  0  0  0  0
 17 19  1  0  0  0  0
 17 20  1  0  0  0  0
 14 15  1  0  0  0  0
 14 16  1  0  0  0  0
 14 17  1  0  0  0  0
 11 12  1  0  0  0  0
 11 13  1  0  0  0  0
 11 14  1  0  0  0  0
  9 10  1  0  0  0  0
  9 11  1  0  0  0  0
  9 29  1  0  0  0  0
  7  8  1  0  0  0  0
  7  9  1  0  0  0  0
 33 34  1  0  0  0  0
 33 35  1  0  0  0  0
 33 36  1  0  0  0  0
 31 32  1  0  0  0  0
 31 33  1  0  0  0  0
M  CHG  1  20   1
M  END
$$$$
default_name
  -OEChem-01062215323D

 36 35  0     1  0  0  0  0  0999 V2000
   -4.2256   -3.6731    1.8584 H   0  0  0  0  0  0  0  0  0  0  0  0
   -4.2396   -2.6781    1.4144 C   0  0  0  0  0  0  0  0  0  0  0  0
   -4.9506   -2.0521    1.9514 H   0  0  0  0  0  0  0  0  0  0  0  0
   -4.5266   -2.7521    0.3674 H   0  0  0  0  0  0  0  0  0  0  0  0
   -2.8576   -2.0761    1.5184 C   0  0  0  0  0  0  0  0  0  0  0  0
   -1.9456   -2.7051    2.0404 O   0  0  0  0  0  0  0  0  0  0  0  0
   -2.6926   -0.8481    1.0174 N   0  0  0  0  0  0  0  0  0  0  0  0
   -3.4926   -0.3971    0.5954 H   0  0  0  0  0  0  0  0  0  0  0  0
   -1.4216   -0.1071    1.0434 C   0  0  1  0  0  0  0  0  0  0  0  0
   -1.1211    0.0966    0.0144 H   0  0  0  0  0  0  0  0  0  0  0  0
   -1.6536    1.2342    1.7674 C   0  0  0  0  0  0  0  0  0  0  0  0
   -2.1035    1.0313    2.7413 H   0  0  0  0  0  0  0  0  0  0  0  0
   -0.6902    1.7213    1.9339 H   0  0  0  0  0  0  0  0  0  0  0  0
   -2.5766    2.1917    0.9996 C   0  0  0  0  0  0  0  0  0  0  0  0
   -2.1429    2.4200    0.0250 H   0  0  0  0  0  0  0  0  0  0  0  0
   -3.5496    1.7198    0.8593 H   0  0  0  0  0  0  0  0  0  0  0  0
   -2.7510    3.4956    1.7901 C   0  0  0  0  0  0  0  0  0  0  0  0
   -3.1605    3.2549    2.7738 H   0  0  0  0  0  0  0  0  0  0  0  0
   -1.7693    3.9572    1.9203 H   0  0  0  0  0  0  0  0  0  0  0  0
   -3.6527    4.4397    1.0985 N   0  3  0  0  0  0  0  0  0  0  0  0
   -4.0009    4.1551    0.1990 H   0  0  0  0  0  0  0  0  0  0  0  0
   -4.0439    5.6197    1.5497 C   0  0  0  0  0  0  0  0  0  0  0  0
   -3.6524    6.0855    2.7026 N   0  0  0  0  0  0  0  0  0  0  0  0
   -3.0348    5.5275    3.2653 H   0  0  0  0  0  0  0  0  0  0  0  0
   -3.9584    6.9832    3.0301 H   0  0  0  0  0  0  0  0  0  0  0  0
   -4.8450    6.3643    0.8419 N   0  0  0  0  0  0  0  0  0  0  0  0
   -5.1741    6.0477   -0.0538 H   0  0  0  0  0  0  0  0  0  0  0  0
   -5.1394    7.2588    1.1880 H   0  0  0  0  0  0  0  0  0  0  0  0
   -0.3302   -0.9391    1.7201 C   0  0  0  0  0  0  0  0  0  0  0  0
    0.8078   -0.4926    1.8018 O   0  0  0  0  0  0  0  0  0  0  0  0
   -0.6751   -2.1519    2.1639 N   0  0  0  0  0  0  0  0  0  0  0  0
   -1.6417   -2.4237    2.0890 H   0  0  0  0  0  0  0  0  0  0  0  0
    0.2462   -3.0711    2.8341 C   0  0  0  0  0  0  0  0  0  0  0  0
    0.5823   -2.6347    3.7771 H   0  0  0  0  0  0  0  0  0  0  0  0
   -0.2475   -4.0221    3.0383 H   0  0  0  0  0  0  0  0  0  0  0  0
    1.1212   -3.2479    2.2048 H   0  0  0  0  0  0  0  0  0  0  0  0
  5  6  2  0  0  0  0
  5  7  1  0  0  0  0
  2  3  1  0  0  0  0
  2  4  1  0  0  0  0
  2  5  1  0  0  0  0
  1  2  1  0  0  0  0
 29 30  2  0  0  0  0
 29 31  1  0  0  0  0
 26 27  1  0  0  0  0
 26 28  1  0  0  0  0
 23 24  1  0  0  0  0
 23 25  1  0  0  0  0
 22 23  1  0  0  0  0
 22 26  1  0  0  0  0
 20 21  1  0  0  0  0
 20 22  2  0  0  0  0
 17 18  1  0  0  0  0
 17 19  1  0  0  0  0
 17 20  1  0  0  0  0
 14 15  1  0  0  0  0
 14 16  1  0  0  0  0
 14 17  1  0  0  0  0
 11 12  1  0  0  0  0
 11 13  1  0  0  0  0
 11 14  1  0  0  0  0
  9 10  1  0  0  0  0
  9 11  1  0  0  0  0
  9 29  1  0  0  0  0
  7  8  1  0  0  0  0
  7  9  1  0  0  0  0
 33 34  1  0  0  0  0
 33 35  1  0  0  0  0
 33 36  1  0  0  0  0
 31 32  1  0  0  0  0
 31 33  1  0  0  0  0
M  CHG  1  20   1
M  END
$$$$
default_name
  -OEChem-01062215323D

 36 35  0     1  0  0  0  0  0999 V2000
   -4.2256   -3.6731    1.8584 H   0  0  0  0  0  0  0  0  0  0  0  0
   -4.2396   -2.6781    1.4144 C   0  0  0  0  0  0  0  0  0  0  0  0
   -4.9506   -2.0521    1.9514 H   0  0  0  0  0  0  0  0  0  0  0  0
   -4.5266   -2.7521    0.3674 H   0  0  0  0  0  0  0  0  0  0  0  0
   -2.8576   -2.0761    1.5184 C   0  0  0  0  0  0  0  0  0  0  0  0
   -1.9456   -2.7051    2.0404 O   0  0  0  0  0  0  0  0  0  0  0  0
   -2.6926   -0.8481    1.0174 N   0  0  0  0  0  0  0  0  0  0  0  0
   -3.4926   -0.3971    0.5954 H   0  0  0  0  0  0  0  0  0  0  0  0
   -1.4216   -0.1071    1.0434 C   0  0  1  0  0  0  0  0  0  0  0  0
   -1.1211    0.0966    0.0144 H   0  0  0  0  0  0  0  0  0  0  0  0
   -1.6536    1.2342    1.7674 C   0  0  0  0  0  0  0  0  0  0  0  0
   -2.1035    1.0313    2.7413 H   0  0  0  0  0  0  0  0  0  0  0  0
   -0.6902    1.7213    1.9339 H   0  0  0  0  0  0  0  0  0  0  0  0
   -2.5766    2.1917    0.9996 C   0  0  0  0  0  0  0  0  0  0  0  0
   -2.1429    2.4200    0.0250 H   0  0  0  0  0  0  0  0  0  0  0  0
   -3.5496    1.7198    0.8593 H   0  0  0  0  0  0  0  0  0  0  0  0
   -2.7510    3.4956    1.7901 C   0  0  0  0  0  0  0  0  0  0  0  0
   -3.1605    3.2549    2.7738 H   0  0  0  0  0  0  0  0  0  0  0  0
   -1.7693    3.9572    1.9203 H   0  0  0  0  0  0  0  0  0  0  0  0
   -3.6527    4.4397    1.0985 N   0  3  0  0  0  0  0  0  0  0  0  0
   -4.0009    4.1551    0.1990 H   0  0  0  0  0  0  0  0  0  0  0  0
   -4.0439    5.6197    1.5497 C   0  0  0  0  0  0  0  0  0  0  0  0
   -3.6524    6.0855    2.7026 N   0  0  0  0  0  0  0  0  0  0  0  0
   -3.0348    5.5275    3.2653 H   0  0  0  0  0  0  0  0  0  0  0  0
   -3.9584    6.9832    3.0301 H   0  0  0  0  0  0  0  0  0  0  0  0
   -4.8450    6.3643    0.8419 N   0  0  0  0  0  0  0  0  0  0  0  0
   -5.1741    6.0477   -0.0538 H   0  0  0  0  0  0  0  0  0  0  0  0
   -5.1394    7.2588    1.1880 H   0  0  0  0  0  0  0  0  0  0  0  0
   -0.3302   -0.9391    1.7201 C   0  0  0  0  0  0  0  0  0  0  0  0
    0.7211   -0.4039    2.0507 O   0  0  0  0  0  0  0  0  0  0  0  0
   -0.5721   -2.2433    1.8855 N   0  0  0  0  0  0  0  0  0  0  0  0
   -1.4782   -2.5920    1.6183 H   0  0  0  0  0  0  0  0  0  0  0  0
    0.3639   -3.1764    2.5148 C   0  0  0  0  0  0  0  0  0  0  0  0
    0.5161   -2.8983    3.5598 H   0  0  0  0  0  0  0  0  0  0  0  0
   -0.0266   -4.1939    2.4708 H   0  0  0  0  0  0  0  0  0  0  0  0
    1.3286   -3.1390    2.0041 H   0  0  0  0  0  0  0  0  0  0  0  0
  5  6  2  0  0  0  0
  5  7  1  0  0  0  0
  2  3  1  0  0  0  0
  2  4  1  0  0  0  0
  2  5  1  0  0  0  0
  1  2  1  0  0  0  0
 29 30  2  0  0  0  0
 29 31  1  0  0  0  0
 26 27  1  0  0  0  0
 26 28  1  0  0  0  0
 23 24  1  0  0  0  0
 23 25  1  0  0  0  0
 22 23  1  0  0  0  0
 22 26  1  0  0  0  0
 20 21  1  0  0  0  0
 20 22  2  0  0  0  0
 17 18  1  0  0  0  0
 17 19  1  0  0  0  0
 17 20  1  0  0  0  0
 14 15  1  0  0  0  0
 14 16  1  0  0  0  0
 14 17  1  0  0  0  0
 11 12  1  0  0  0  0
 11 13  1  0  0  0  0
 11 14  1  0  0  0  0
  9 10  1  0  0  0  0
  9 11  1  0  0  0  0
  9 29  1  0  0  0  0
  7  8  1  0  0  0  0
  7  9  1  0  0  0  0
 33 34  1  0  0  0  0
 33 35  1  0  0  0  0
 33 36  1  0  0  0  0
 31 32  1  0  0  0  0
 31 33  1  0  0  0  0
M  CHG  1  20   1
M  END
$$$$
default_name
  -OEChem-01062215323D

 36 35  0     1  0  0  0  0  0999 V2000
   -4.2256   -3.6731    1.8584 H   0  0  0  0  0  0  0  0  0  0  0  0
   -4.2396   -2.6781    1.4144 C   0  0  0  0  0  0  0  0  0  0  0  0
   -4.9506   -2.0521    1.9514 H   0  0  0  0  0  0  0  0  0  0  0  0
   -4.5266   -2.7521    0.3674 H   0  0  0  0  0  0  0  0  0  0  0  0
   -2.8576   -2.0761    1.5184 C   0  0  0  0  0  0  0  0  0  0  0  0
   -1.9456   -2.7051    2.0404 O   0  0  0  0  0  0  0  0  0  0  0  0
   -2.6926   -0.8481    1.0174 N   0  0  0  0  0  0  0  0  0  0  0  0
   -3.4926   -0.3971    0.5954 H   0  0  0  0  0  0  0  0  0  0  0  0
   -1.4216   -0.1071    1.0434 C   0  0  1  0  0  0  0  0  0  0  0  0
   -1.1211    0.0966    0.0144 H   0  0  0  0  0  0  0  0  0  0  0  0
   -1.6536    1.2342    1.7674 C   0  0  0  0  0  0  0  0  0  0  0  0
   -2.1035    1.0313    2.7413 H   0  0  0  0  0  0  0  0  0  0  0  0
   -0.6902    1.7213    1.9339 H   0  0  0  0  0  0  0  0  0  0  0  0
   -2.5766    2.1917    0.9996 C   0  0  0  0  0  0  0  0  0  0  0  0
   -2.1429    2.4200    0.0250 H   0  0  0  0  0  0  0  0  0  0  0  0
   -3.5496    1.7198    0.8593 H   0  0  0  0  0  0  0  0  0  0  0  0
   -2.7510    3.4956    1.7901 C   0  0  0  0  0  0  0  0  0  0  0  0
   -3.1605    3.2549    2.7738 H   0  0  0  0  0  0  0  0  0  0  0  0
   -1.7693    3.9572    1.9203 H   0  0  0  0  0  0  0  0  0  0  0  0
   -3.6527    4.4397    1.0985 N   0  3  0  0  0  0  0  0  0  0  0  0
   -4.0009    4.1551    0.1990 H   0  0  0  0  0  0  0  0  0  0  0  0
   -4.0439    5.6197    1.5497 C   0  0  0  0  0  0  0  0  0  0  0  0
   -3.6524    6.0855    2.7026 N   0  0  0  0  0  0  0  0  0  0  0  0
   -3.0348    5.5275    3.2653 H   0  0  0  0  0  0  0  0  0  0  0  0
   -3.9584    6.9832    3.0301 H   0  0  0  0  0  0  0  0  0  0  0  0
   -4.8450    6.3643    0.8419 N   0  0  0  0  0  0  0  0  0  0  0  0
   -5.1741    6.0477   -0.0538 H   0  0  0  0  0  0  0  0  0  0  0  0
   -5.1394    7.2588    1.1880 H   0  0  0  0  0  0  0  0  0  0  0  0
   -0.3302   -0.9391    1.7201 C   0  0  0  0  0  0  0  0  0  0  0  0
    0.5922   -0.3740    2.2953 O   0  0  0  0  0  0  0  0  0  0  0  0
   -0.4231   -2.2684    1.6142 N   0  0  0  0  0  0  0  0  0  0  0  0
   -1.2347   -2.6489    1.1556 H   0  0  0  0  0  0  0  0  0  0  0  0
    0.5346   -3.2056    2.2034 C   0  0  0  0  0  0  0  0  0  0  0  0
    0.5129   -3.1203    3.2920 H   0  0  0  0  0  0  0  0  0  0  0  0
    0.2863   -4.2298    1.9221 H   0  0  0  0  0  0  0  0  0  0  0  0
    1.5448   -2.9730    1.8595 H   0  0  0  0  0  0  0  0  0  0  0  0
  5  6  2  0  0  0  0
  5  7  1  0  0  0  0
  2  3  1  0  0  0  0
  2  4  1  0  0  0  0
  2  5  1  0  0  0  0
  1  2  1  0  0  0  0
 29 30  2  0  0  0  0
 29 31  1  0  0  0  0
 26 27  1  0  0  0  0
 26 28  1  0  0  0  0
 23 24  1  0  0  0  0
 23 25  1  0  0  0  0
 22 23  1  0  0  0  0
 22 26  1  0  0  0  0
 20 21  1  0  0  0  0
 20 22  2  0  0  0  0
 17 18  1  0  0  0  0
 17 19  1  0  0  0  0
 17 20  1  0  0  0  0
 14 15  1  0  0  0  0
 14 16  1  0  0  0  0
 14 17  1  0  0  0  0
 11 12  1  0  0  0  0
 11 13  1  0  0  0  0
 11 14  1  0  0  0  0
  9 10  1  0  0  0  0
  9 11  1  0  0  0  0
  9 29  1  0  0  0  0
  7  8  1  0  0  0  0
  7  9  1  0  0  0  0
 33 34  1  0  0  0  0
 33 35  1  0  0  0  0
 33 36  1  0  0  0  0
 31 32  1  0  0  0  0
 31 33  1  0  0  0  0
M  CHG  1  20   1
M  END
$$$$
default_name
  -OEChem-01062215323D

 36 35  0     1  0  0  0  0  0999 V2000
   -4.2256   -3.6731    1.8584 H   0  0  0  0  0  0  0  0  0  0  0  0
   -4.2396   -2.6781    1.4144 C   0  0  0  0  0  0  0  0  0  0  0  0
   -4.9506   -2.0521    1.9514 H   0  0  0  0  0  0  0  0  0  0  0  0
   -4.5266   -2.7521    0.3674 H   0  0  0  0  0  0  0  0  0  0  0  0
   -2.8576   -2.0761    1.5184 C   0  0  0  0  0  0  0  0  0  0  0  0
   -1.9456   -2.7051    2.0404 O   0  0  0  0  0  0  0  0  0  0  0  0
   -2.6926   -0.8481    1.0174 N   0  0  0  0  0  0  0  0  0  0  0  0
   -3.4926   -0.3971    0.5954 H   0  0  0  0  0  0  0  0  0  0  0  0
   -1.4216   -0.1071    1.0434 C   0  0  1  0  0  0  0  0  0  0  0  0
   -1.1211    0.0966    0.0144 H   0  0  0  0  0  0  0  0  0  0  0  0
   -1.6536    1.2342    1.7674 C   0  0  0  0  0  0  0  0  0  0  0  0
   -2.1035    1.0313    2.7413 H   0  0  0  0  0  0  0  0  0  0  0  0
   -0.6902    1.7213    1.9339 H   0  0  0  0  0  0  0  0  0  0  0  0
   -2.5766    2.1917    0.9996 C   0  0  0  0  0  0  0  0  0  0  0  0
   -2.1429    2.4200    0.0250 H   0  0  0  0  0  0  0  0  0  0  0  0
   -3.5496    1.7198    0.8593 H   0  0  0  0  0  0  0  0  0  0  0  0
   -2.7510    3.4956    1.7901 C   0  0  0  0  0  0  0  0  0  0  0  0
   -3.1605    3.2549    2.7738 H   0  0  0  0  0  0  0  0  0  0  0  0
   -1.7693    3.9572    1.9203 H   0  0  0  0  0  0  0  0  0  0  0  0
   -3.6527    4.4397    1.0985 N   0  3  0  0  0  0  0  0  0  0  0  0
   -4.0009    4.1551    0.1990 H   0  0  0  0  0  0  0  0  0  0  0  0
   -4.0439    5.6197    1.5497 C   0  0  0  0  0  0  0  0  0  0  0  0
   -3.6524    6.0855    2.7026 N   0  0  0  0  0  0  0  0  0  0  0  0
   -3.0348    5.5275    3.2653 H   0  0  0  0  0  0  0  0  0  0  0  0
   -3.9584    6.9832    3.0301 H   0  0  0  0  0  0  0  0  0  0  0  0
   -4.8450    6.3643    0.8419 N   0  0  0  0  0  0  0  0  0  0  0  0
   -5.1741    6.0477   -0.0538 H   0  0  0  0  0  0  0  0  0  0  0  0
   -5.1394    7.2588    1.1880 H   0  0  0  0  0  0  0  0  0  0  0  0
   -0.3302   -0.9391    1.7201 C   0  0  0  0  0  0  0  0  0  0  0  0
    0.4299   -0.4051    2.5190 O   0  0  0  0  0  0  0  0  0  0  0  0
   -0.2381   -2.2255    1.3686 N   0  0  0  0  0  0  0  0  0  0  0  0
   -0.9279   -2.5906    0.7324 H   0  0  0  0  0  0  0  0  0  0  0  0
    0.7467   -3.1569    1.9213 C   0  0  0  0  0  0  0  0  0  0  0  0
    0.5730   -3.2857    2.9918 H   0  0  0  0  0  0  0  0  0  0  0  0
    0.6698   -4.1274    1.4294 H   0  0  0  0  0  0  0  0  0  0  0  0
    1.7550   -2.7613    1.7809 H   0  0  0  0  0  0  0  0  0  0  0  0
  5  6  2  0  0  0  0
  5  7  1  0  0  0  0
  2  3  1  0  0  0  0
  2  4  1  0  0  0  0
  2  5  1  0  0  0  0
  1  2  1  0  0  0  0
 29 30  2  0  0  0  0
 29 31  1  0  0  0  0
 26 27  1  0  0  0  0
 26 28  1  0  0  0  0
 23 24  1  0  0  0  0
 23 25  1  0  0  0  0
 22 23  1  0  0  0  0
 22 26  1  0  0  0  0
 20 21  1  0  0  0  0
 20 22  2  0  0  0  0
 17 18  1  0  0  0  0
 17 19  1  0  0  0  0
 17 20  1  0  0  0  0
 14 15  1  0  0  0  0
 14 16  1  0  0  0  0
 14 17  1  0  0  0  0
 11 12  1  0  0  0  0
 11 13  1  0  0  0  0
 11 14  1  0  0  0  0
  9 10  1  0  0  0  0
  9 11  1  0  0  0  0
  9 29  1  0  0  0  0
  7  8  1  0  0  0  0
  7  9  1  0  0  0  0
 33 34  1  0  0  0  0
 33 35  1  0  0  0  0
 33 36  1  0  0  0  0
 31 32  1  0  0  0  0
 31 33  1  0  0  0  0
M  CHG  1  20   1
M  END
$$$$
default_name
  -OEChem-01062215323D

 36 35  0     1  0  0  0  0  0999 V2000
   -4.2256   -3.6731    1.8584 H   0  0  0  0  0  0  0  0  0  0  0  0
   -4.2396   -2.6781    1.4144 C   0  0  0  0  0  0  0  0  0  0  0  0
   -4.9506   -2.0521    1.9514 H   0  0  0  0  0  0  0  0  0  0  0  0
   -4.5266   -2.7521    0.3674 H   0  0  0  0  0  0  0  0  0  0  0  0
   -2.8576   -2.0761    1.5184 C   0  0  0  0  0  0  0  0  0  0  0  0
   -1.9456   -2.7051    2.0404 O   0  0  0  0  0  0  0  0  0  0  0  0
   -2.6926   -0.8481    1.0174 N   0  0  0  0  0  0  0  0  0  0  0  0
   -3.4926   -0.3971    0.5954 H   0  0  0  0  0  0  0  0  0  0  0  0
   -1.4216   -0.1071    1.0434 C   0  0  1  0  0  0  0  0  0  0  0  0
   -1.1211    0.0966    0.0144 H   0  0  0  0  0  0  0  0  0  0  0  0
   -1.6536    1.2342    1.7674 C   0  0  0  0  0  0  0  0  0  0  0  0
   -2.1035    1.0313    2.7413 H   0  0  0  0  0  0  0  0  0  0  0  0
   -0.6902    1.7213    1.9339 H   0  0  0  0  0  0  0  0  0  0  0  0
   -2.5766    2.1917    0.9996 C   0  0  0  0  0  0  0  0  0  0  0  0
   -2.1429    2.4200    0.0250 H   0  0  0  0  0  0  0  0  0  0  0  0
   -3.5496    1.7198    0.8593 H   0  0  0  0  0  0  0  0  0  0  0  0
   -2.7510    3.4956    1.7901 C   0  0  0  0  0  0  0  0  0  0  0  0
   -3.1605    3.2549    2.7738 H   0  0  0  0  0  0  0  0  0  0  0  0
   -1.7693    3.9572    1.9203 H   0  0  0  0  0  0  0  0  0  0  0  0
   -3.6527    4.4397    1.0985 N   0  3  0  0  0  0  0  0  0  0  0  0
   -4.0009    4.1551    0.1990 H   0  0  0  0  0  0  0  0  0  0  0  0
   -4.0439    5.6197    1.5497 C   0  0  0  0  0  0  0  0  0  0  0  0
   -3.6524    6.0855    2.7026 N   0  0  0  0  0  0  0  0  0  0  0  0
   -3.0348    5.5275    3.2653 H   0  0  0  0  0  0  0  0  0  0  0  0
   -3.9584    6.9832    3.0301 H   0  0  0  0  0  0  0  0  0  0  0  0
   -4.8450    6.3643    0.8419 N   0  0  0  0  0  0  0  0  0  0  0  0
   -5.1741    6.0477   -0.0538 H   0  0  0  0  0  0  0  0  0  0  0  0
   -5.1394    7.2588    1.1880 H   0  0  0  0  0  0  0  0  0  0  0  0
   -0.3302   -0.9391    1.7201 C   0  0  0  0  0  0  0  0  0  0  0  0
    0.2451   -0.4950    2.7064 O   0  0  0  0  0  0  0  0  0  0  0  0
   -0.0297   -2.1175    1.1652 N   0  0  0  0  0  0  0  0  0  0  0  0
   -0.5787   -2.4210    0.3776 H   0  0  0  0  0  0  0  0  0  0  0  0
    0.9856   -3.0334    1.6877 C   0  0  0  0  0  0  0  0  0  0  0  0
    0.6921   -3.3831    2.6798 H   0  0  0  0  0  0  0  0  0  0  0  0
    1.0979   -3.8935    1.0263 H   0  0  0  0  0  0  0  0  0  0  0  0
    1.9448   -2.5181    1.7736 H   0  0  0  0  0  0  0  0  0  0  0  0
  5  6  2  0  0  0  0
  5  7  1  0  0  0  0
  2  3  1  0  0  0  0
  2  4  1  0  0  0  0
  2  5  1  0  0  0  0
  1  2  1  0  0  0  0
 29 30  2  0  0  0  0
 29 31  1  0  0  0  0
 26 27  1  0  0  0  0
 26 28  1  0  0  0  0
 23 24  1  0  0  0  0
 23 25  1  0  0  0  0
 22 23  1  0  0  0  0
 22 26  1  0  0  0  0
 20 21  1  0  0  0  0
 20 22  2  0  0  0  0
 17 18  1  0  0  0  0
 17 19  1  0  0  0  0
 17 20  1  0  0  0  0
 14 15  1  0  0  0  0
 14 16  1  0  0  0  0
 14 17  1  0  0  0  0
 11 12  1  0  0  0  0
 11 13  1  0  0  0  0
 11 14  1  0  0  0  0
  9 10  1  0  0  0  0
  9 11  1  0  0  0  0
  9 29  1  0  0  0  0
  7  8  1  0  0  0  0
  7  9  1  0  0  0  0
 33 34  1  0  0  0  0
 33 35  1  0  0  0  0
 33 36  1  0  0  0  0
 31 32  1  0  0  0  0
 31 33  1  0  0  0  0
M  CHG  1  20   1
M  END
$$$$
default_name
  -OEChem-01062215323D

 36 35  0     1  0  0  0  0  0999 V2000
   -4.2256   -3.6731    1.8584 H   0  0  0  0  0  0  0  0  0  0  0  0
   -4.2396   -2.6781    1.4144 C   0  0  0  0  0  0  0  0  0  0  0  0
   -4.9506   -2.0521    1.9514 H   0  0  0  0  0  0  0  0  0  0  0  0
   -4.5266   -2.7521    0.3674 H   0  0  0  0  0  0  0  0  0  0  0  0
   -2.8576   -2.0761    1.5184 C   0  0  0  0  0  0  0  0  0  0  0  0
   -1.9456   -2.7051    2.0404 O   0  0  0  0  0  0  0  0  0  0  0  0
   -2.6926   -0.8481    1.0174 N   0  0  0  0  0  0  0  0  0  0  0  0
   -3.4926   -0.3971    0.5954 H   0  0  0  0  0  0  0  0  0  0  0  0
   -1.4216   -0.1071    1.0434 C   0  0  1  0  0  0  0  0  0  0  0  0
   -1.1211    0.0966    0.0144 H   0  0  0  0  0  0  0  0  0  0  0  0
   -1.6536    1.2342    1.7674 C   0  0  0  0  0  0  0  0  0  0  0  0
   -2.1035    1.0313    2.7413 H   0  0  0  0  0  0  0  0  0  0  0  0
   -0.6902    1.7213    1.9339 H   0  0  0  0  0  0  0  0  0  0  0  0
   -2.5766    2.1917    0.9996 C   0  0  0  0  0  0  0  0  0  0  0  0
   -2.1429    2.4200    0.0250 H   0  0  0  0  0  0  0  0  0  0  0  0
   -3.5496    1.7198    0.8593 H   0  0  0  0  0  0  0  0  0  0  0  0
   -2.7510    3.4956    1.7901 C   0  0  0  0  0  0  0  0  0  0  0  0
   -3.1605    3.2549    2.7738 H   0  0  0  0  0  0  0  0  0  0  0  0
   -1.7693    3.9572    1.9203 H   0  0  0  0  0  0  0  0  0  0  0  0
   -3.6527    4.4397    1.0985 N   0  3  0  0  0  0  0  0  0  0  0  0
   -4.0009    4.1551    0.1990 H   0  0  0  0  0  0  0  0  0  0  0  0
   -4.0439    5.6197    1.5497 C   0  0  0  0  0  0  0  0  0  0  0  0
   -3.6524    6.0855    2.7026 N   0  0  0  0  0  0  0  0  0  0  0  0
   -3.0348    5.5275    3.2653 H   0  0  0  0  0  0  0  0  0  0  0  0
   -3.9584    6.9832    3.0301 H   0  0  0  0  0  0  0  0  0  0  0  0
   -4.8450    6.3643    0.8419 N   0  0  0  0  0  0  0  0  0  0  0  0
   -5.1741    6.0477   -0.0538 H   0  0  0  0  0  0  0  0  0  0  0  0
   -5.1394    7.2588    1.1880 H   0  0  0  0  0  0  0  0  0  0  0  0
   -0.3302   -0.9391    1.7201 C   0  0  0  0  0  0  0  0  0  0  0  0
    0.0506   -0.6376    2.8449 O   0  0  0  0  0  0  0  0  0  0  0  0
    0.1878   -1.9518    1.0181 N   0  0  0  0  0  0  0  0  0  0  0  0
   -0.2108   -2.1518    0.1153 H   0  0  0  0  0  0  0  0  0  0  0  0
    1.2352   -2.8437    1.5184 C   0  0  0  0  0  0  0  0  0  0  0  0
    0.8623   -3.4060    2.3772 H   0  0  0  0  0  0  0  0  0  0  0  0
    1.5414   -3.5443    0.7405 H   0  0  0  0  0  0  0  0  0  0  0  0
    2.1014   -2.2603    1.8382 H   0  0  0  0  0  0  0  0  0  0  0  0
  5  6  2  0  0  0  0
  5  7  1  0  0  0  0
  2  3  1  0  0  0  0
  2  4  1  0  0  0  0
  2  5  1  0  0  0  0
  1  2  1  0  0  0  0
 29 30  2  0  0  0  0
 29 31  1  0  0  0  0
 26 27  1  0  0  0  0
 26 28  1  0  0  0  0
 23 24  1  0  0  0  0
 23 25  1  0  0  0  0
 22 23  1  0  0  0  0
 22 26  1  0  0  0  0
 20 21  1  0  0  0  0
 20 22  2  0  0  0  0
 17 18  1  0  0  0  0
 17 19  1  0  0  0  0
 17 20  1  0  0  0  0
 14 15  1  0  0  0  0
 14 16  1  0  0  0  0
 14 17  1  0  0  0  0
 11 12  1  0  0  0  0
 11 13  1  0  0  0  0
 11 14  1  0  0  0  0
  9 10  1  0  0  0  0
  9 11  1  0  0  0  0
  9 29  1  0  0  0  0
  7  8  1  0  0  0  0
  7  9  1  0  0  0  0
 33 34  1  0  0  0  0
 33 35  1  0  0  0  0
 33 36  1  0  0  0  0
 31 32  1  0  0  0  0
 31 33  1  0  0  0  0
M  CHG  1  20   1
M  END
$$$$
default_name
  -OEChem-01062215323D

 36 35  0     1  0  0  0  0  0999 V2000
   -4.2256   -3.6731    1.8584 H   0  0  0  0  0  0  0  0  0  0  0  0
   -4.2396   -2.6781    1.4144 C   0  0  0  0  0  0  0  0  0  0  0  0
   -4.9506   -2.0521    1.9514 H   0  0  0  0  0  0  0  0  0  0  0  0
   -4.5266   -2.7521    0.3674 H   0  0  0  0  0  0  0  0  0  0  0  0
   -2.8576   -2.0761    1.5184 C   0  0  0  0  0  0  0  0  0  0  0  0
   -1.9456   -2.7051    2.0404 O   0  0  0  0  0  0  0  0  0  0  0  0
   -2.6926   -0.8481    1.0174 N   0  0  0  0  0  0  0  0  0  0  0  0
   -3.4926   -0.3971    0.5954 H   0  0  0  0  0  0  0  0  0  0  0  0
   -1.4216   -0.1071    1.0434 C   0  0  1  0  0  0  0  0  0  0  0  0
   -1.1211    0.0966    0.0144 H   0  0  0  0  0  0  0  0  0  0  0  0
   -1.6536    1.2342    1.7674 C   0  0  0  0  0  0  0  0  0  0  0  0
   -2.1035    1.0313    2.7413 H   0  0  0  0  0  0  0  0  0  0  0  0
   -0.6902    1.7213    1.9339 H   0  0  0  0  0  0  0  0  0  0  0  0
   -2.5766    2.1917    0.9996 C   0  0  0  0  0  0  0  0  0  0  0  0
   -2.1429    2.4200    0.0250 H   0  0  0  0  0  0  0  0  0  0  0  0
   -3.5496    1.7198    0.8593 H   0  0  0  0  0  0  0  0  0  0  0  0
   -2.7510    3.4956    1.7901 C   0  0  0  0  0  0  0  0  0  0  0  0
   -3.1605    3.2549    2.7738 H   0  0  0  0  0  0  0  0  0  0  0  0
   -1.7693    3.9572    1.9203 H   0  0  0  0  0  0  0  0  0  0  0  0
   -3.6527    4.4397    1.0985 N   0  3  0  0  0  0  0  0  0  0  0  0
   -4.0009    4.1551    0.1990 H   0  0  0  0  0  0  0  0  0  0  0  0
   -4.0439    5.6197    1.5497 C   0  0  0  0  0  0  0  0  0  0  0  0
   -3.6524    6.0855    2.7026 N   0  0  0  0  0  0  0  0  0  0  0  0
   -3.0348    5.5275    3.2653 H   0  0  0  0  0  0  0  0  0  0  0  0
   -3.9584    6.9832    3.0301 H   0  0  0  0  0  0  0  0  0  0  0  0
   -4.8450    6.3643    0.8419 N   0  0  0  0  0  0  0  0  0  0  0  0
   -5.1741    6.0477   -0.0538 H   0  0  0  0  0  0  0  0  0  0  0  0
   -5.1394    7.2588    1.1880 H   0  0  0  0  0  0  0  0  0  0  0  0
   -0.3302   -0.9391    1.7201 C   0  0  0  0  0  0  0  0  0  0  0  0
   -0.1405   -0.8232    2.9249 O   0  0  0  0  0  0  0  0  0  0  0  0
    0.3997   -1.7397    0.9371 N   0  0  0  0  0  0  0  0  0  0  0  0
    0.1506   -1.8012   -0.0366 H   0  0  0  0  0  0  0  0  0  0  0  0
    1.4784   -2.6006    1.4251 C   0  0  0  0  0  0  0  0  0  0  0  0
    1.0719   -3.3527    2.1046 H   0  0  0  0  0  0  0  0  0  0  0  0
    1.9700   -3.1034    0.5912 H   0  0  0  0  0  0  0  0  0  0  0  0
    2.2140   -2.0052    1.9702 H   0  0  0  0  0  0  0  0  0  0  0  0
  5  6  2  0  0  0  0
  5  7  1  0  0  0  0
  2  3  1  0  0  0  0
  2  4  1  0  0  0  0
  2  5  1  0  0  0  0
  1  2  1  0  0  0  0
 29 30  2  0  0  0  0
 29 31  1  0  0  0  0
 26 27  1  0  0  0  0
 26 28  1  0  0  0  0
 23 24  1  0  0  0  0
 23 25  1  0  0  0  0
 22 23  1  0  0  0  0
 22 26  1  0  0  0  0
 20 21  1  0  0  0  0
 20 22  2  0  0  0  0
 17 18  1  0  0  0  0
 17 19  1  0  0  0  0
 17 20  1  0  0  0  0
 14 15  1  0  0  0  0
 14 16  1  0  0  0  0
 14 17  1  0  0  0  0
 11 12  1  0  0  0  0
 11 13  1  0  0  0  0
 11 14  1  0  0  0  0
  9 10  1  0  0  0  0
  9 11  1  0  0  0  0
  9 29  1  0  0  0  0
  7  8  1  0  0  0  0
  7  9  1  0  0  0  0
 33 34  1  0  0  0  0
 33 35  1  0  0  0  0
 33 36  1  0  0  0  0
 31 32  1  0  0  0  0
 31 33  1  0  0  0  0
M  CHG  1  20   1
M  END
$$$$
default_name
  -OEChem-01062215323D

 36 35  0     1  0  0  0  0  0999 V2000
   -4.2256   -3.6731    1.8584 H   0  0  0  0  0  0  0  0  0  0  0  0
   -4.2396   -2.6781    1.4144 C   0  0  0  0  0  0  0  0  0  0  0  0
   -4.9506   -2.0521    1.9514 H   0  0  0  0  0  0  0  0  0  0  0  0
   -4.5266   -2.7521    0.3674 H   0  0  0  0  0  0  0  0  0  0  0  0
   -2.8576   -2.0761    1.5184 C   0  0  0  0  0  0  0  0  0  0  0  0
   -1.9456   -2.7051    2.0404 O   0  0  0  0  0  0  0  0  0  0  0  0
   -2.6926   -0.8481    1.0174 N   0  0  0  0  0  0  0  0  0  0  0  0
   -3.4926   -0.3971    0.5954 H   0  0  0  0  0  0  0  0  0  0  0  0
   -1.4216   -0.1071    1.0434 C   0  0  1  0  0  0  0  0  0  0  0  0
   -1.1211    0.0966    0.0144 H   0  0  0  0  0  0  0  0  0  0  0  0
   -1.6536    1.2342    1.7674 C   0  0  0  0  0  0  0  0  0  0  0  0
   -2.1035    1.0313    2.7413 H   0  0  0  0  0  0  0  0  0  0  0  0
   -0.6902    1.7213    1.9339 H   0  0  0  0  0  0  0  0  0  0  0  0
   -2.5766    2.1917    0.9996 C   0  0  0  0  0  0  0  0  0  0  0  0
   -2.1429    2.4200    0.0250 H   0  0  0  0  0  0  0  0  0  0  0  0
   -3.5496    1.7198    0.8593 H   0  0  0  0  0  0  0  0  0  0  0  0
   -2.7510    3.4956    1.7901 C   0  0  0  0  0  0  0  0  0  0  0  0
   -3.1605    3.2549    2.7738 H   0  0  0  0  0  0  0  0  0  0  0  0
   -1.7693    3.9572    1.9203 H   0  0  0  0  0  0  0  0  0  0  0  0
   -3.6527    4.4397    1.0985 N   0  3  0  0  0  0  0  0  0  0  0  0
   -4.0009    4.1551    0.1990 H   0  0  0  0  0  0  0  0  0  0  0  0
   -4.0439    5.6197    1.5497 C   0  0  0  0  0  0  0  0  0  0  0  0
   -3.6524    6.0855    2.7026 N   0  0  0  0  0  0  0  0  0  0  0  0
   -3.0348    5.5275    3.2653 H   0  0  0  0  0  0  0  0  0  0  0  0
   -3.9584    6.9832    3.0301 H   0  0  0  0  0  0  0  0  0  0  0  0
   -4.8450    6.3643    0.8419 N   0  0  0  0  0  0  0  0  0  0  0  0
   -5.1741    6.0477   -0.0538 H   0  0  0  0  0  0  0  0  0  0  0  0
   -5.1394    7.2588    1.1880 H   0  0  0  0  0  0  0  0  0  0  0  0
   -0.3302   -0.9391    1.7201 C   0  0  0  0  0  0  0  0  0  0  0  0
   -0.3151   -1.0391    2.9411 O   0  0  0  0  0  0  0  0  0  0  0  0
    0.5915   -1.4956    0.9279 N   0  0  0  0  0  0  0  0  0  0  0  0
    0.4810   -1.3931   -0.0677 H   0  0  0  0  0  0  0  0  0  0  0  0
    1.6986   -2.3208    1.4140 C   0  0  0  0  0  0  0  0  0  0  0  0
    1.3066   -3.2270    1.8806 H   0  0  0  0  0  0  0  0  0  0  0  0
    2.3546   -2.6010    0.5888 H   0  0  0  0  0  0  0  0  0  0  0  0
    2.2750   -1.7702    2.1607 H   0  0  0  0  0  0  0  0  0  0  0  0
  5  6  2  0  0  0  0
  5  7  1  0  0  0  0
  2  3  1  0  0  0  0
  2  4  1  0  0  0  0
  2  5  1  0  0  0  0
  1  2  1  0  0  0  0
 29 30  2  0  0  0  0
 29 31  1  0  0  0  0
 26 27  1  0  0  0  0
 26 28  1  0  0  0  0
 23 24  1  0  0  0  0
 23 25  1  0  0  0  0
 22 23  1  0  0  0  0
 22 26  1  0  0  0  0
 20 21  1  0  0  0  0
 20 22  2  0  0  0  0
 17 18  1  0  0  0  0
 17 19  1  0  0  0  0
 17 20  1  0  0  0  0
 14 15  1  0  0  0  0
 14 16  1  0  0  0  0
 14 17  1  0  0  0  0
 11 12  1  0  0  0  0
 11 13  1  0  0  0  0
 11 14  1  0  0  0  0
  9 10  1  0  0  0  0
  9 11  1  0  0  0  0
  9 29  1  0  0  0  0
  7  8  1  0  0  0  0
  7  9  1  0  0  0  0
 33 34  1  0  0  0  0
 33 35  1  0  0  0  0
 33 36  1  0  0  0  0
 31 32  1  0  0  0  0
 31 33  1  0  0  0  0
M  CHG  1  20   1
M  END
$$$$
default_name
  -OEChem-01062215323D

 36 35  0     1  0  0  0  0  0999 V2000
   -4.2256   -3.6731    1.8584 H   0  0  0  0  0  0  0  0  0  0  0  0
   -4.2396   -2.6781    1.4144 C   0  0  0  0  0  0  0  0  0  0  0  0
   -4.9506   -2.0521    1.9514 H   0  0  0  0  0  0  0  0  0  0  0  0
   -4.5266   -2.7521    0.3674 H   0  0  0  0  0  0  0  0  0  0  0  0
   -2.8576   -2.0761    1.5184 C   0  0  0  0  0  0  0  0  0  0  0  0
   -1.9456   -2.7051    2.0404 O   0  0  0  0  0  0  0  0  0  0  0  0
   -2.6926   -0.8481    1.0174 N   0  0  0  0  0  0  0  0  0  0  0  0
   -3.4926   -0.3971    0.5954 H   0  0  0  0  0  0  0  0  0  0  0  0
   -1.4216   -0.1071    1.0434 C   0  0  1  0  0  0  0  0  0  0  0  0
   -1.1211    0.0966    0.0144 H   0  0  0  0  0  0  0  0  0  0  0  0
   -1.6536    1.2342    1.7674 C   0  0  0  0  0  0  0  0  0  0  0  0
   -2.1035    1.0313    2.7413 H   0  0  0  0  0  0  0  0  0  0  0  0
   -0.6902    1.7213    1.9339 H   0  0  0  0  0  0  0  0  0  0  0  0
   -2.5766    2.1917    0.9996 C   0  0  0  0  0  0  0  0  0  0  0  0
   -2.1429    2.4200    0.0250 H   0  0  0  0  0  0  0  0  0  0  0  0
   -3.5496    1.7198    0.8593 H   0  0  0  0  0  0  0  0  0  0  0  0
   -2.7510    3.4956    1.7901 C   0  0  0  0  0  0  0  0  0  0  0  0
   -3.1605    3.2549    2.7738 H   0  0  0  0  0  0  0  0  0  0  0  0
   -1.7693    3.9572    1.9203 H   0  0  0  0  0  0  0  0  0  0  0  0
   -3.6527    4.4397    1.0985 N   0  3  0  0  0  0  0  0  0  0  0  0
   -4.0009    4.1551    0.1990 H   0  0  0  0  0  0  0  0  0  0  0  0
   -4.0439    5.6197    1.5497 C   0  0  0  0  0  0  0  0  0  0  0  0
   -3.6524    6.0855    2.7026 N   0  0  0  0  0  0  0  0  0  0  0  0
   -3.0348    5.5275    3.2653 H   0  0  0  0  0  0  0  0  0  0  0  0
   -3.9584    6.9832    3.0301 H   0  0  0  0  0  0  0  0  0  0  0  0
   -4.8450    6.3643    0.8419 N   0  0  0  0  0  0  0  0  0  0  0  0
   -5.1741    6.0477   -0.0538 H   0  0  0  0  0  0  0  0  0  0  0  0
   -5.1394    7.2588    1.1880 H   0  0  0  0  0  0  0  0  0  0  0  0
   -0.3302   -0.9391    1.7201 C   0  0  0  0  0  0  0  0  0  0  0  0
   -0.4613   -1.2705    2.8923 O   0  0  0  0  0  0  0  0  0  0  0  0
    0.7501   -1.2362    0.9910 N   0  0  0  0  0  0  0  0  0  0  0  0
    0.7577   -0.9554    0.0241 H   0  0  0  0  0  0  0  0  0  0  0  0
    1.8808   -2.0232    1.4859 C   0  0  0  0  0  0  0  0  0  0  0  0
    1.5504   -3.0373    1.7205 H   0  0  0  0  0  0  0  0  0  0  0  0
    2.6689   -2.0712    0.7333 H   0  0  0  0  0  0  0  0  0  0  0  0
    2.2802   -1.5715    2.3966 H   0  0  0  0  0  0  0  0  0  0  0  0
  5  6  2  0  0  0  0
  5  7  1  0  0  0  0
  2  3  1  0  0  0  0
  2  4  1  0  0  0  0
  2  5  1  0  0  0  0
  1  2  1  0  0  0  0
 29 30  2  0  0  0  0
 29 31  1  0  0  0  0
 26 27  1  0  0  0  0
 26 28  1  0  0  0  0
 23 24  1  0  0  0  0
 23 25  1  0  0  0  0
 22 23  1  0  0  0  0
 22 26  1  0  0  0  0
 20 21  1  0  0  0  0
 20 22  2  0  0  0  0
 17 18  1  0  0  0  0
 17 19  1  0  0  0  0
 17 20  1  0  0  0  0
 14 15  1  0  0  0  0
 14 16  1  0  0  0  0
 14 17  1  0  0  0  0
 11 12  1  0  0  0  0
 11 13  1  0  0  0  0
 11 14  1  0  0  0  0
  9 10  1  0  0  0  0
  9 11  1  0  0  0  0
  9 29  1  0  0  0  0
  7  8  1  0  0  0  0
  7  9  1  0  0  0  0
 33 34  1  0  0  0  0
 33 35  1  0  0  0  0
 33 36  1  0  0  0  0
 31 32  1  0  0  0  0
 31 33  1  0  0  0  0
M  CHG  1  20   1
M  END
$$$$
default_name
  -OEChem-01062215323D

 36 35  0     1  0  0  0  0  0999 V2000
   -4.2256   -3.6731    1.8584 H   0  0  0  0  0  0  0  0  0  0  0  0
   -4.2396   -2.6781    1.4144 C   0  0  0  0  0  0  0  0  0  0  0  0
   -4.9506   -2.0521    1.9514 H   0  0  0  0  0  0  0  0  0  0  0  0
   -4.5266   -2.7521    0.3674 H   0  0  0  0  0  0  0  0  0  0  0  0
   -2.8576   -2.0761    1.5184 C   0  0  0  0  0  0  0  0  0  0  0  0
   -1.9456   -2.7051    2.0404 O   0  0  0  0  0  0  0  0  0  0  0  0
   -2.6926   -0.8481    1.0174 N   0  0  0  0  0  0  0  0  0  0  0  0
   -3.4926   -0.3971    0.5954 H   0  0  0  0  0  0  0  0  0  0  0  0
   -1.4216   -0.1071    1.0434 C   0  0  1  0  0  0  0  0  0  0  0  0
   -1.1211    0.0966    0.0144 H   0  0  0  0  0  0  0  0  0  0  0  0
   -1.6536    1.2342    1.7674 C   0  0  0  0  0  0  0  0  0  0  0  0
   -2.1035    1.0313    2.7413 H   0  0  0  0  0  0  0  0  0  0  0  0
   -0.6902    1.7213    1.9339 H   0  0  0  0  0  0  0  0  0  0  0  0
   -2.5766    2.1917    0.9996 C   0  0  0  0  0  0  0  0  0  0  0  0
   -2.1429    2.4200    0.0250 H   0  0  0  0  0  0  0  0  0  0  0  0
   -3.5496    1.7198    0.8593 H   0  0  0  0  0  0  0  0  0  0  0  0
   -2.7510    3.4956    1.7901 C   0  0  0  0  0  0  0  0  0  0  0  0
   -3.1605    3.2549    2.7738 H   0  0  0  0  0  0  0  0  0  0  0  0
   -1.7693    3.9572    1.9203 H   0  0  0  0  0  0  0  0  0  0  0  0
   -3.6527    4.4397    1.0985 N   0  3  0  0  0  0  0  0  0  0  0  0
   -4.0009    4.1551    0.1990 H   0  0  0  0  0  0  0  0  0  0  0  0
   -4.0439    5.6197    1.5497 C   0  0  0  0  0  0  0  0  0  0  0  0
   -3.6524    6.0855    2.7026 N   0  0  0  0  0  0  0  0  0  0  0  0
   -3.0348    5.5275    3.2653 H   0  0  0  0  0  0  0  0  0  0  0  0
   -3.9584    6.9832    3.0301 H   0  0  0  0  0  0  0  0  0  0  0  0
   -4.8450    6.3643    0.8419 N   0  0  0  0  0  0  0  0  0  0  0  0
   -5.1741    6.0477   -0.0538 H   0  0  0  0  0  0  0  0  0  0  0  0
   -5.1394    7.2588    1.1880 H   0  0  0  0  0  0  0  0  0  0  0  0
   -0.3302   -0.9391    1.7201 C   0  0  0  0  0  0  0  0  0  0  0  0
   -0.5691   -1.5019    2.7818 O   0  0  0  0  0  0  0  0  0  0  0  0
    0.8647   -0.9792    1.1222 N   0  0  0  0  0  0  0  0  0  0  0  0
    0.9621   -0.5179    0.2325 H   0  0  0  0  0  0  0  0  0  0  0  0
    2.0127   -1.7282    1.6360 C   0  0  0  0  0  0  0  0  0  0  0  0
    1.7868   -2.7967    1.6352 H   0  0  0  0  0  0  0  0  0  0  0  0
    2.8914   -1.5501    1.0149 H   0  0  0  0  0  0  0  0  0  0  0  0
    2.2293   -1.4225    2.6619 H   0  0  0  0  0  0  0  0  0  0  0  0
  5  6  2  0  0  0  0
  5  7  1  0  0  0  0
  2  3  1  0  0  0  0
  2  4  1  0  0  0  0
  2  5  1  0  0  0  0
  1  2  1  0  0  0  0
 29 30  2  0  0  0  0
 29 31  1  0  0  0  0
 26 27  1  0  0  0  0
 26 28  1  0  0  0  0
 23 24  1  0  0  0  0
 23 25  1  0  0  0  0
 22 23  1  0  0  0  0
 22 26  1  0  0  0  0
 20 21  1  0  0  0  0
 20 22  2  0  0  0  0
 17 18  1  0  0  0  0
 17 19  1  0  0  0  0
 17 20  1  0  0  0  0
 14 15  1  0  0  0  0
 14 16  1  0  0  0  0
 14 17  1  0  0  0  0
 11 12  1  0  0  0  0
 11 13  1  0  0  0  0
 11 14  1  0  0  0  0
  9 10  1  0  0  0  0
  9 11  1  0  0  0  0
  9 29  1  0  0  0  0
  7  8  1  0  0  0  0
  7  9  1  0  0  0  0
 33 34  1  0  0  0  0
 33 35  1  0  0  0  0
 33 36  1  0  0  0  0
 31 32  1  0  0  0  0
 31 33  1  0  0  0  0
M  CHG  1  20   1
M  END
$$$$
default_name
  -OEChem-01062215323D

 36 35  0     1  0  0  0  0  0999 V2000
   -4.2256   -3.6731    1.8584 H   0  0  0  0  0  0  0  0  0  0  0  0
   -4.2396   -2.6781    1.4144 C   0  0  0  0  0  0  0  0  0  0  0  0
   -4.9506   -2.0521    1.9514 H   0  0  0  0  0  0  0  0  0  0  0  0
   -4.5266   -2.7521    0.3674 H   0  0  0  0  0  0  0  0  0  0  0  0
   -2.8576   -2.0761    1.5184 C   0  0  0  0  0  0  0  0  0  0  0  0
   -1.9456   -2.7051    2.0404 O   0  0  0  0  0  0  0  0  0  0  0  0
   -2.6926   -0.8481    1.0174 N   0  0  0  0  0  0  0  0  0  0  0  0
   -3.4926   -0.3971    0.5954 H   0  0  0  0  0  0  0  0  0  0  0  0
   -1.4216   -0.1071    1.0434 C   0  0  1  0  0  0  0  0  0  0  0  0
   -1.1211    0.0966    0.0144 H   0  0  0  0  0  0  0  0  0  0  0  0
   -1.6536    1.2342    1.7674 C   0  0  0  0  0  0  0  0  0  0  0  0
   -2.1035    1.0313    2.7413 H   0  0  0  0  0  0  0  0  0  0  0  0
   -0.6902    1.7213    1.9339 H   0  0  0  0  0  0  0  0  0  0  0  0
   -2.5766    2.1917    0.9996 C   0  0  0  0  0  0  0  0  0  0  0  0
   -2.1429    2.4200    0.0250 H   0  0  0  0  0  0  0  0  0  0  0  0
   -3.5496    1.7198    0.8593 H   0  0  0  0  0  0  0  0  0  0  0  0
   -2.7510    3.4956    1.7901 C   0  0  0  0  0  0  0  0  0  0  0  0
   -3.1605    3.2549    2.7738 H   0  0  0  0  0  0  0  0  0  0  0  0
   -1.7693    3.9572    1.9203 H   0  0  0  0  0  0  0  0  0  0  0  0
   -3.6527    4.4397    1.0985 N   0  3  0  0  0  0  0  0  0  0  0  0
   -4.0009    4.1551    0.1990 H   0  0  0  0  0  0  0  0  0  0  0  0
   -4.0439    5.6197    1.5497 C   0  0  0  0  0  0  0  0  0  0  0  0
   -3.6524    6.0855    2.7026 N   0  0  0  0  0  0  0  0  0  0  0  0
   -3.0348    5.5275    3.2653 H   0  0  0  0  0  0  0  0  0  0  0  0
   -3.9584    6.9832    3.0301 H   0  0  0  0  0  0  0  0  0  0  0  0
   -4.8450    6.3643    0.8419 N   0  0  0  0  0  0  0  0  0  0  0  0
   -5.1741    6.0477   -0.0538 H   0  0  0  0  0  0  0  0  0  0  0  0
   -5.1394    7.2588    1.1880 H   0  0  0  0  0  0  0  0  0  0  0  0
   -0.3302   -0.9391    1.7201 C   0  0  0  0  0  0  0  0  0  0  0  0
   -0.6313   -1.7173    2.6172 O   0  0  0  0  0  0  0  0  0  0  0  0
    0.9275   -0.7420    1.3126 N   0  0  0  0  0  0  0  0  0  0  0  0
    1.0800   -0.1104    0.5434 H   0  0  0  0  0  0  0  0  0  0  0  0
    2.0851   -1.4559    1.8540 C   0  0  0  0  0  0  0  0  0  0  0  0
    1.9995   -2.5214    1.6305 H   0  0  0  0  0  0  0  0  0  0  0  0
    3.0072   -1.0733    1.4145 H   0  0  0  0  0  0  0  0  0  0  0  0
    2.1258   -1.3333    2.9386 H   0  0  0  0  0  0  0  0  0  0  0  0
  5  6  2  0  0  0  0
  5  7  1  0  0  0  0
  2  3  1  0  0  0  0
  2  4  1  0  0  0  0
  2  5  1  0  0  0  0
  1  2  1  0  0  0  0
 29 30  2  0  0  0  0
 29 31  1  0  0  0  0
 26 27  1  0  0  0  0
 26 28  1  0  0  0  0
 23 24  1  0  0  0  0
 23 25  1  0  0  0  0
 22 23  1  0  0  0  0
 22 26  1  0  0  0  0
 20 21  1  0  0  0  0
 20 22  2  0  0  0  0
 17 18  1  0  0  0  0
 17 19  1  0  0  0  0
 17 20  1  0  0  0  0
 14 15  1  0  0  0  0
 14 16  1  0  0  0  0
 14 17  1  0  0  0  0
 11 12  1  0  0  0  0
 11 13  1  0  0  0  0
 11 14  1  0  0  0  0
  9 10  1  0  0  0  0
  9 11  1  0  0  0  0
  9 29  1  0  0  0  0
  7  8  1  0  0  0  0
  7  9  1  0  0  0  0
 33 34  1  0  0  0  0
 33 35  1  0  0  0  0
 33 36  1  0  0  0  0
 31 32  1  0  0  0  0
 31 33  1  0  0  0  0
M  CHG  1  20   1
M  END
$$$$
default_name
  -OEChem-01062215323D

 36 35  0     1  0  0  0  0  0999 V2000
   -4.2256   -3.6731    1.8584 H   0  0  0  0  0  0  0  0  0  0  0  0
   -4.2396   -2.6781    1.4144 C   0  0  0  0  0  0  0  0  0  0  0  0
   -4.9506   -2.0521    1.9514 H   0  0  0  0  0  0  0  0  0  0  0  0
   -4.5266   -2.7521    0.3674 H   0  0  0  0  0  0  0  0  0  0  0  0
   -2.8576   -2.0761    1.5184 C   0  0  0  0  0  0  0  0  0  0  0  0
   -1.9456   -2.7051    2.0404 O   0  0  0  0  0  0  0  0  0  0  0  0
   -2.6926   -0.8481    1.0174 N   0  0  0  0  0  0  0  0  0  0  0  0
   -3.4926   -0.3971    0.5954 H   0  0  0  0  0  0  0  0  0  0  0  0
   -1.4216   -0.1071    1.0434 C   0  0  1  0  0  0  0  0  0  0  0  0
   -1.1211    0.0966    0.0144 H   0  0  0  0  0  0  0  0  0  0  0  0
   -1.6536    1.2342    1.7674 C   0  0  0  0  0  0  0  0  0  0  0  0
   -2.1035    1.0313    2.7413 H   0  0  0  0  0  0  0  0  0  0  0  0
   -0.6902    1.7213    1.9339 H   0  0  0  0  0  0  0  0  0  0  0  0
   -2.5766    2.1917    0.9996 C   0  0  0  0  0  0  0  0  0  0  0  0
   -2.1429    2.4200    0.0250 H   0  0  0  0  0  0  0  0  0  0  0  0
   -3.5496    1.7198    0.8593 H   0  0  0  0  0  0  0  0  0  0  0  0
   -2.7510    3.4956    1.7901 C   0  0  0  0  0  0  0  0  0  0  0  0
   -3.1605    3.2549    2.7738 H   0  0  0  0  0  0  0  0  0  0  0  0
   -1.7693    3.9572    1.9203 H   0  0  0  0  0  0  0  0  0  0  0  0
   -3.6527    4.4397    1.0985 N   0  3  0  0  0  0  0  0  0  0  0  0
   -4.0009    4.1551    0.1990 H   0  0  0  0  0  0  0  0  0  0  0  0
   -4.0439    5.6197    1.5497 C   0  0  0  0  0  0  0  0  0  0  0  0
   -3.6524    6.0855    2.7026 N   0  0  0  0  0  0  0  0  0  0  0  0
   -3.0348    5.5275    3.2653 H   0  0  0  0  0  0  0  0  0  0  0  0
   -3.9584    6.9832    3.0301 H   0  0  0  0  0  0  0  0  0  0  0  0
   -4.8450    6.3643    0.8419 N   0  0  0  0  0  0  0  0  0  0  0  0
   -5.1741    6.0477   -0.0538 H   0  0  0  0  0  0  0  0  0  0  0  0
   -5.1394    7.2588    1.1880 H   0  0  0  0  0  0  0  0  0  0  0  0
   -0.3302   -0.9391    1.7201 C   0  0  0  0  0  0  0  0  0  0  0  0
   -0.6435   -1.9020    2.4098 O   0  0  0  0  0  0  0  0  0  0  0  0
    0.9343   -0.5408    1.5490 N   0  0  0  0  0  0  0  0  0  0  0  0
    1.1036    0.2394    0.9354 H   0  0  0  0  0  0  0  0  0  0  0  0
    2.0932   -1.2248    2.1251 C   0  0  0  0  0  0  0  0  0  0  0  0
    2.1742   -2.2303    1.7068 H   0  0  0  0  0  0  0  0  0  0  0  0
    3.0082   -0.6733    1.9047 H   0  0  0  0  0  0  0  0  0  0  0  0
    1.9766   -1.3102    3.2076 H   0  0  0  0  0  0  0  0  0  0  0  0
  5  6  2  0  0  0  0
  5  7  1  0  0  0  0
  2  3  1  0  0  0  0
  2  4  1  0  0  0  0
  2  5  1  0  0  0  0
  1  2  1  0  0  0  0
 29 30  2  0  0  0  0
 29 31  1  0  0  0  0
 26 27  1  0  0  0  0
 26 28  1  0  0  0  0
 23 24  1  0  0  0  0
 23 25  1  0  0  0  0
 22 23  1  0  0  0  0
 22 26  1  0  0  0  0
 20 21  1  0  0  0  0
 20 22  2  0  0  0  0
 17 18  1  0  0  0  0
 17 19  1  0  0  0  0
 17 20  1  0  0  0  0
 14 15  1  0  0  0  0
 14 16  1  0  0  0  0
 14 17  1  0  0  0  0
 11 12  1  0  0  0  0
 11 13  1  0  0  0  0
 11 14  1  0  0  0  0
  9 10  1  0  0  0  0
  9 11  1  0  0  0  0
  9 29  1  0  0  0  0
  7  8  1  0  0  0  0
  7  9  1  0  0  0  0
 33 34  1  0  0  0  0
 33 35  1  0  0  0  0
 33 36  1  0  0  0  0
 31 32  1  0  0  0  0
 31 33  1  0  0  0  0
M  CHG  1  20   1
M  END
$$$$
default_name
  -OEChem-01062215323D

 36 35  0     1  0  0  0  0  0999 V2000
   -4.2256   -3.6731    1.8584 H   0  0  0  0  0  0  0  0  0  0  0  0
   -4.2396   -2.6781    1.4144 C   0  0  0  0  0  0  0  0  0  0  0  0
   -4.9506   -2.0521    1.9514 H   0  0  0  0  0  0  0  0  0  0  0  0
   -4.5266   -2.7521    0.3674 H   0  0  0  0  0  0  0  0  0  0  0  0
   -2.8576   -2.0761    1.5184 C   0  0  0  0  0  0  0  0  0  0  0  0
   -1.9456   -2.7051    2.0404 O   0  0  0  0  0  0  0  0  0  0  0  0
   -2.6926   -0.8481    1.0174 N   0  0  0  0  0  0  0  0  0  0  0  0
   -3.4926   -0.3971    0.5954 H   0  0  0  0  0  0  0  0  0  0  0  0
   -1.4216   -0.1071    1.0434 C   0  0  1  0  0  0  0  0  0  0  0  0
   -1.2563    0.3270    0.0560 H   0  0  0  0  0  0  0  0  0  0  0  0
   -1.5431    1.0340    2.0731 C   0  0  0  0  0  0  0  0  0  0  0  0
   -1.8638    0.6100    3.0268 H   0  0  0  0  0  0  0  0  0  0  0  0
   -0.5613    1.4902    2.2179 H   0  0  0  0  0  0  0  0  0  0  0  0
   -2.5488    2.1206    1.6656 C   0  0  0  0  0  0  0  0  0  0  0  0
   -2.2440    2.5691    0.7191 H   0  0  0  0  0  0  0  0  0  0  0  0
   -3.5366    1.6732    1.5508 H   0  0  0  0  0  0  0  0  0  0  0  0
   -2.6048    3.2115    2.7437 C   0  0  0  0  0  0  0  0  0  0  0  0
   -2.8846    2.7493    3.6932 H   0  0  0  0  0  0  0  0  0  0  0  0
   -1.6099    3.6513    2.8454 H   0  0  0  0  0  0  0  0  0  0  0  0
   -3.5796    4.2685    2.4041 N   0  3  0  0  0  0  0  0  0  0  0  0
   -4.0454    4.1852    1.5168 H   0  0  0  0  0  0  0  0  0  0  0  0
   -3.8962    5.3102    3.1549 C   0  0  0  0  0  0  0  0  0  0  0  0
   -3.3525    5.5143    4.3220 N   0  0  0  0  0  0  0  0  0  0  0  0
   -2.6723    4.8569    4.6605 H   0  0  0  0  0  0  0  0  0  0  0  0
   -3.6038    6.3102    4.8790 H   0  0  0  0  0  0  0  0  0  0  0  0
   -4.7754    6.1783    2.7420 N   0  0  0  0  0  0  0  0  0  0  0  0
   -5.2222    6.0633    1.8485 H   0  0  0  0  0  0  0  0  0  0  0  0
   -5.0128    6.9671    3.3147 H   0  0  0  0  0  0  0  0  0  0  0  0
   -0.2596   -1.0479    1.3691 C   0  0  0  0  0  0  0  0  0  0  0  0
   -0.4840   -2.2308    1.5955 O   0  0  0  0  0  0  0  0  0  0  0  0
    0.9627   -0.5099    1.4267 N   0  0  0  0  0  0  0  0  0  0  0  0
    1.0605    0.4639    1.1897 H   0  0  0  0  0  0  0  0  0  0  0  0
    2.1785   -1.2693    1.7233 C   0  0  0  0  0  0  0  0  0  0  0  0
    2.3545   -2.0064    0.9369 H   0  0  0  0  0  0  0  0  0  0  0  0
    3.0386   -0.6013    1.7835 H   0  0  0  0  0  0  0  0  0  0  0  0
    2.0664   -1.7979    2.6724 H   0  0  0  0  0  0  0  0  0  0  0  0
  5  6  2  0  0  0  0
  5  7  1  0  0  0  0
  2  3  1  0  0  0  0
  2  4  1  0  0  0  0
  2  5  1  0  0  0  0
  1  2  1  0  0  0  0
 29 30  2  0  0  0  0
 29 31  1  0  0  0  0
 26 27  1  0  0  0  0
 26 28  1  0  0  0  0
 23 24  1  0  0  0  0
 23 25  1  0  0  0  0
 22 23  1  0  0  0  0
 22 26  1  0  0  0  0
 20 21  1  0  0  0  0
 20 22  2  0  0  0  0
 17 18  1  0  0  0  0
 17 19  1  0  0  0  0
 17 20  1  0  0  0  0
 14 15  1  0  0  0  0
 14 16  1  0  0  0  0
 14 17  1  0  0  0  0
 11 12  1  0  0  0  0
 11 13  1  0  0  0  0
 11 14  1  0  0  0  0
  9 10  1  0  0  0  0
  9 11  1  0  0  0  0
  9 29  1  0  0  0  0
  7  8  1  0  0  0  0
  7  9  1  0  0  0  0
 33 34  1  0  0  0  0
 33 35  1  0  0  0  0
 33 36  1  0  0  0  0
 31 32  1  0  0  0  0
 31 33  1  0  0  0  0
M  CHG  1  20   1
M  END
$$$$
default_name
  -OEChem-01062215323D

 36 35  0     1  0  0  0  0  0999 V2000
   -4.2256   -3.6731    1.8584 H   0  0  0  0  0  0  0  0  0  0  0  0
   -4.2396   -2.6781    1.4144 C   0  0  0  0  0  0  0  0  0  0  0  0
   -4.9506   -2.0521    1.9514 H   0  0  0  0  0  0  0  0  0  0  0  0
   -4.5266   -2.7521    0.3674 H   0  0  0  0  0  0  0  0  0  0  0  0
   -2.8576   -2.0761    1.5184 C   0  0  0  0  0  0  0  0  0  0  0  0
   -1.9456   -2.7051    2.0404 O   0  0  0  0  0  0  0  0  0  0  0  0
   -2.6926   -0.8481    1.0174 N   0  0  0  0  0  0  0  0  0  0  0  0
   -3.4926   -0.3971    0.5954 H   0  0  0  0  0  0  0  0  0  0  0  0
   -1.4216   -0.1071    1.0434 C   0  0  1  0  0  0  0  0  0  0  0  0
   -1.2563    0.3270    0.0560 H   0  0  0  0  0  0  0  0  0  0  0  0
   -1.5431    1.0340    2.0731 C   0  0  0  0  0  0  0  0  0  0  0  0
   -1.8638    0.6100    3.0268 H   0  0  0  0  0  0  0  0  0  0  0  0
   -0.5613    1.4902    2.2179 H   0  0  0  0  0  0  0  0  0  0  0  0
   -2.5488    2.1206    1.6656 C   0  0  0  0  0  0  0  0  0  0  0  0
   -2.2440    2.5691    0.7191 H   0  0  0  0  0  0  0  0  0  0  0  0
   -3.5366    1.6732    1.5508 H   0  0  0  0  0  0  0  0  0  0  0  0
   -2.6048    3.2115    2.7437 C   0  0  0  0  0  0  0  0  0  0  0  0
   -2.8846    2.7493    3.6932 H   0  0  0  0  0  0  0  0  0  0  0  0
   -1.6099    3.6513    2.8454 H   0  0  0  0  0  0  0  0  0  0  0  0
   -3.5796    4.2685    2.4041 N   0  3  0  0  0  0  0  0  0  0  0  0
   -4.0454    4.1852    1.5168 H   0  0  0  0  0  0  0  0  0  0  0  0
   -3.8962    5.3102    3.1549 C   0  0  0  0  0  0  0  0  0  0  0  0
   -3.3525    5.5143    4.3220 N   0  0  0  0  0  0  0  0  0  0  0  0
   -2.6723    4.8569    4.6605 H   0  0  0  0  0  0  0  0  0  0  0  0
   -3.6038    6.3102    4.8790 H   0  0  0  0  0  0  0  0  0  0  0  0
   -4.7754    6.1783    2.7420 N   0  0  0  0  0  0  0  0  0  0  0  0
   -5.2222    6.0633    1.8485 H   0  0  0  0  0  0  0  0  0  0  0  0
   -5.0128    6.9671    3.3147 H   0  0  0  0  0  0  0  0  0  0  0  0
   -0.2596   -1.0479    1.3691 C   0  0  0  0  0  0  0  0  0  0  0  0
   -0.4316   -2.2601    1.3239 O   0  0  0  0  0  0  0  0  0  0  0  0
    0.8980   -0.4849    1.7294 N   0  0  0  0  0  0  0  0  0  0  0  0
    0.9617    0.5196    1.7033 H   0  0  0  0  0  0  0  0  0  0  0  0
    2.1046   -1.2403    2.0706 C   0  0  0  0  0  0  0  0  0  0  0  0
    2.4513   -1.7968    1.1972 H   0  0  0  0  0  0  0  0  0  0  0  0
    2.8957   -0.5648    2.3988 H   0  0  0  0  0  0  0  0  0  0  0  0
    1.8859   -1.9529    2.8689 H   0  0  0  0  0  0  0  0  0  0  0  0
  5  6  2  0  0  0  0
  5  7  1  0  0  0  0
  2  3  1  0  0  0  0
  2  4  1  0  0  0  0
  2  5  1  0  0  0  0
  1  2  1  0  0  0  0
 29 30  2  0  0  0  0
 29 31  1  0  0  0  0
 26 27  1  0  0  0  0
 26 28  1  0  0  0  0
 23 24  1  0  0  0  0
 23 25  1  0  0  0  0
 22 23  1  0  0  0  0
 22 26  1  0  0  0  0
 20 21  1  0  0  0  0
 20 22  2  0  0  0  0
 17 18  1  0  0  0  0
 17 19  1  0  0  0  0
 17 20  1  0  0  0  0
 14 15  1  0  0  0  0
 14 16  1  0  0  0  0
 14 17  1  0  0  0  0
 11 12  1  0  0  0  0
 11 13  1  0  0  0  0
 11 14  1  0  0  0  0
  9 10  1  0  0  0  0
  9 11  1  0  0  0  0
  9 29  1  0  0  0  0
  7  8  1  0  0  0  0
  7  9  1  0  0  0  0
 33 34  1  0  0  0  0
 33 35  1  0  0  0  0
 33 36  1  0  0  0  0
 31 32  1  0  0  0  0
 31 33  1  0  0  0  0
M  CHG  1  20   1
M  END
$$$$
default_name
  -OEChem-01062215323D

 36 35  0     1  0  0  0  0  0999 V2000
   -4.2256   -3.6731    1.8584 H   0  0  0  0  0  0  0  0  0  0  0  0
   -4.2396   -2.6781    1.4144 C   0  0  0  0  0  0  0  0  0  0  0  0
   -4.9506   -2.0521    1.9514 H   0  0  0  0  0  0  0  0  0  0  0  0
   -4.5266   -2.7521    0.3674 H   0  0  0  0  0  0  0  0  0  0  0  0
   -2.8576   -2.0761    1.5184 C   0  0  0  0  0  0  0  0  0  0  0  0
   -1.9456   -2.7051    2.0404 O   0  0  0  0  0  0  0  0  0  0  0  0
   -2.6926   -0.8481    1.0174 N   0  0  0  0  0  0  0  0  0  0  0  0
   -3.4926   -0.3971    0.5954 H   0  0  0  0  0  0  0  0  0  0  0  0
   -1.4216   -0.1071    1.0434 C   0  0  1  0  0  0  0  0  0  0  0  0
   -1.2563    0.3270    0.0560 H   0  0  0  0  0  0  0  0  0  0  0  0
   -1.5431    1.0340    2.0731 C   0  0  0  0  0  0  0  0  0  0  0  0
   -1.8638    0.6100    3.0268 H   0  0  0  0  0  0  0  0  0  0  0  0
   -0.5613    1.4902    2.2179 H   0  0  0  0  0  0  0  0  0  0  0  0
   -2.5488    2.1206    1.6656 C   0  0  0  0  0  0  0  0  0  0  0  0
   -2.2440    2.5691    0.7191 H   0  0  0  0  0  0  0  0  0  0  0  0
   -3.5366    1.6732    1.5508 H   0  0  0  0  0  0  0  0  0  0  0  0
   -2.6048    3.2115    2.7437 C   0  0  0  0  0  0  0  0  0  0  0  0
   -2.8846    2.7493    3.6932 H   0  0  0  0  0  0  0  0  0  0  0  0
   -1.6099    3.6513    2.8454 H   0  0  0  0  0  0  0  0  0  0  0  0
   -3.5796    4.2685    2.4041 N   0  3  0  0  0  0  0  0  0  0  0  0
   -4.0454    4.1852    1.5168 H   0  0  0  0  0  0  0  0  0  0  0  0
   -3.8962    5.3102    3.1549 C   0  0  0  0  0  0  0  0  0  0  0  0
   -3.3525    5.5143    4.3220 N   0  0  0  0  0  0  0  0  0  0  0  0
   -2.6723    4.8569    4.6605 H   0  0  0  0  0  0  0  0  0  0  0  0
   -3.6038    6.3102    4.8790 H   0  0  0  0  0  0  0  0  0  0  0  0
   -4.7754    6.1783    2.7420 N   0  0  0  0  0  0  0  0  0  0  0  0
   -5.2222    6.0633    1.8485 H   0  0  0  0  0  0  0  0  0  0  0  0
   -5.0128    6.9671    3.3147 H   0  0  0  0  0  0  0  0  0  0  0  0
   -0.2596   -1.0479    1.3691 C   0  0  0  0  0  0  0  0  0  0  0  0
   -0.3361   -2.2320    1.0642 O   0  0  0  0  0  0  0  0  0  0  0  0
    0.7860   -0.5239    2.0164 N   0  0  0  0  0  0  0  0  0  0  0  0
    0.7814    0.4671    2.1945 H   0  0  0  0  0  0  0  0  0  0  0  0
    1.9764   -1.2846    2.4001 C   0  0  0  0  0  0  0  0  0  0  0  0
    2.4917   -1.6401    1.5053 H   0  0  0  0  0  0  0  0  0  0  0  0
    2.6577   -0.6584    2.9776 H   0  0  0  0  0  0  0  0  0  0  0  0
    1.6888   -2.1511    2.9995 H   0  0  0  0  0  0  0  0  0  0  0  0
  5  6  2  0  0  0  0
  5  7  1  0  0  0  0
  2  3  1  0  0  0  0
  2  4  1  0  0  0  0
  2  5  1  0  0  0  0
  1  2  1  0  0  0  0
 29 30  2  0  0  0  0
 29 31  1  0  0  0  0
 26 27  1  0  0  0  0
 26 28  1  0  0  0  0
 23 24  1  0  0  0  0
 23 25  1  0  0  0  0
 22 23  1  0  0  0  0
 22 26  1  0  0  0  0
 20 21  1  0  0  0  0
 20 22  2  0  0  0  0
 17 18  1  0  0  0  0
 17 19  1  0  0  0  0
 17 20  1  0  0  0  0
 14 15  1  0  0  0  0
 14 16  1  0  0  0  0
 14 17  1  0  0  0  0
 11 12  1  0  0  0  0
 11 13  1  0  0  0  0
 11 14  1  0  0  0  0
  9 10  1  0  0  0  0
  9 11  1  0  0  0  0
  9 29  1  0  0  0  0
  7  8  1  0  0  0  0
  7  9  1  0  0  0  0
 33 34  1  0  0  0  0
 33 35  1  0  0  0  0
 33 36  1  0  0  0  0
 31 32  1  0  0  0  0
 31 33  1  0  0  0  0
M  CHG  1  20   1
M  END
$$$$
default_name
  -OEChem-01062215323D

 36 35  0     1  0  0  0  0  0999 V2000
   -4.2256   -3.6731    1.8584 H   0  0  0  0  0  0  0  0  0  0  0  0
   -4.2396   -2.6781    1.4144 C   0  0  0  0  0  0  0  0  0  0  0  0
   -4.9506   -2.0521    1.9514 H   0  0  0  0  0  0  0  0  0  0  0  0
   -4.5266   -2.7521    0.3674 H   0  0  0  0  0  0  0  0  0  0  0  0
   -2.8576   -2.0761    1.5184 C   0  0  0  0  0  0  0  0  0  0  0  0
   -1.9456   -2.7051    2.0404 O   0  0  0  0  0  0  0  0  0  0  0  0
   -2.6926   -0.8481    1.0174 N   0  0  0  0  0  0  0  0  0  0  0  0
   -3.4926   -0.3971    0.5954 H   0  0  0  0  0  0  0  0  0  0  0  0
   -1.4216   -0.1071    1.0434 C   0  0  1  0  0  0  0  0  0  0  0  0
   -1.2563    0.3270    0.0560 H   0  0  0  0  0  0  0  0  0  0  0  0
   -1.5431    1.0340    2.0731 C   0  0  0  0  0  0  0  0  0  0  0  0
   -1.8638    0.6100    3.0268 H   0  0  0  0  0  0  0  0  0  0  0  0
   -0.5613    1.4902    2.2179 H   0  0  0  0  0  0  0  0  0  0  0  0
   -2.5488    2.1206    1.6656 C   0  0  0  0  0  0  0  0  0  0  0  0
   -2.2440    2.5691    0.7191 H   0  0  0  0  0  0  0  0  0  0  0  0
   -3.5366    1.6732    1.5508 H   0  0  0  0  0  0  0  0  0  0  0  0
   -2.6048    3.2115    2.7437 C   0  0  0  0  0  0  0  0  0  0  0  0
   -2.8846    2.7493    3.6932 H   0  0  0  0  0  0  0  0  0  0  0  0
   -1.6099    3.6513    2.8454 H   0  0  0  0  0  0  0  0  0  0  0  0
   -3.5796    4.2685    2.4041 N   0  3  0  0  0  0  0  0  0  0  0  0
   -4.0454    4.1852    1.5168 H   0  0  0  0  0  0  0  0  0  0  0  0
   -3.8962    5.3102    3.1549 C   0  0  0  0  0  0  0  0  0  0  0  0
   -3.3525    5.5143    4.3220 N   0  0  0  0  0  0  0  0  0  0  0  0
   -2.6723    4.8569    4.6605 H   0  0  0  0  0  0  0  0  0  0  0  0
   -3.6038    6.3102    4.8790 H   0  0  0  0  0  0  0  0  0  0  0  0
   -4.7754    6.1783    2.7420 N   0  0  0  0  0  0  0  0  0  0  0  0
   -5.2222    6.0633    1.8485 H   0  0  0  0  0  0  0  0  0  0  0  0
   -5.0128    6.9671    3.3147 H   0  0  0  0  0  0  0  0  0  0  0  0
   -0.2596   -1.0479    1.3691 C   0  0  0  0  0  0  0  0  0  0  0  0
   -0.2041   -2.1487    0.8341 O   0  0  0  0  0  0  0  0  0  0  0  0
    0.6343   -0.6242    2.2681 N   0  0  0  0  0  0  0  0  0  0  0  0
    0.5321    0.3098    2.6301 H   0  0  0  0  0  0  0  0  0  0  0  0
    1.8026   -1.3992    2.6892 C   0  0  0  0  0  0  0  0  0  0  0  0
    2.4732   -1.5472    1.8400 H   0  0  0  0  0  0  0  0  0  0  0  0
    2.3409   -0.8757    3.4803 H   0  0  0  0  0  0  0  0  0  0  0  0
    1.4886   -2.3791    3.0553 H   0  0  0  0  0  0  0  0  0  0  0  0
  5  6  2  0  0  0  0
  5  7  1  0  0  0  0
  2  3  1  0  0  0  0
  2  4  1  0  0  0  0
  2  5  1  0  0  0  0
  1  2  1  0  0  0  0
 29 30  2  0  0  0  0
 29 31  1  0  0  0  0
 26 27  1  0  0  0  0
 26 28  1  0  0  0  0
 23 24  1  0  0  0  0
 23 25  1  0  0  0  0
 22 23  1  0  0  0  0
 22 26  1  0  0  0  0
 20 21  1  0  0  0  0
 20 22  2  0  0  0  0
 17 18  1  0  0  0  0
 17 19  1  0  0  0  0
 17 20  1  0  0  0  0
 14 15  1  0  0  0  0
 14 16  1  0  0  0  0
 14 17  1  0  0  0  0
 11 12  1  0  0  0  0
 11 13  1  0  0  0  0
 11 14  1  0  0  0  0
  9 10  1  0  0  0  0
  9 11  1  0  0  0  0
  9 29  1  0  0  0  0
  7  8  1  0  0  0  0
  7  9  1  0  0  0  0
 33 34  1  0  0  0  0
 33 35  1  0  0  0  0
 33 36  1  0  0  0  0
 31 32  1  0  0  0  0
 31 33  1  0  0  0  0
M  CHG  1  20   1
M  END
$$$$
default_name
  -OEChem-01062215323D

 36 35  0     1  0  0  0  0  0999 V2000
   -4.2256   -3.6731    1.8584 H   0  0  0  0  0  0  0  0  0  0  0  0
   -4.2396   -2.6781    1.4144 C   0  0  0  0  0  0  0  0  0  0  0  0
   -4.9506   -2.0521    1.9514 H   0  0  0  0  0  0  0  0  0  0  0  0
   -4.5266   -2.7521    0.3674 H   0  0  0  0  0  0  0  0  0  0  0  0
   -2.8576   -2.0761    1.5184 C   0  0  0  0  0  0  0  0  0  0  0  0
   -1.9456   -2.7051    2.0404 O   0  0  0  0  0  0  0  0  0  0  0  0
   -2.6926   -0.8481    1.0174 N   0  0  0  0  0  0  0  0  0  0  0  0
   -3.4926   -0.3971    0.5954 H   0  0  0  0  0  0  0  0  0  0  0  0
   -1.4216   -0.1071    1.0434 C   0  0  1  0  0  0  0  0  0  0  0  0
   -1.2563    0.3270    0.0560 H   0  0  0  0  0  0  0  0  0  0  0  0
   -1.5431    1.0340    2.0731 C   0  0  0  0  0  0  0  0  0  0  0  0
   -1.8638    0.6100    3.0268 H   0  0  0  0  0  0  0  0  0  0  0  0
   -0.5613    1.4902    2.2179 H   0  0  0  0  0  0  0  0  0  0  0  0
   -2.5488    2.1206    1.6656 C   0  0  0  0  0  0  0  0  0  0  0  0
   -2.2440    2.5691    0.7191 H   0  0  0  0  0  0  0  0  0  0  0  0
   -3.5366    1.6732    1.5508 H   0  0  0  0  0  0  0  0  0  0  0  0
   -2.6048    3.2115    2.7437 C   0  0  0  0  0  0  0  0  0  0  0  0
   -2.8846    2.7493    3.6932 H   0  0  0  0  0  0  0  0  0  0  0  0
   -1.6099    3.6513    2.8454 H   0  0  0  0  0  0  0  0  0  0  0  0
   -3.5796    4.2685    2.4041 N   0  3  0  0  0  0  0  0  0  0  0  0
   -4.0454    4.1852    1.5168 H   0  0  0  0  0  0  0  0  0  0  0  0
   -3.8962    5.3102    3.1549 C   0  0  0  0  0  0  0  0  0  0  0  0
   -3.3525    5.5143    4.3220 N   0  0  0  0  0  0  0  0  0  0  0  0
   -2.6723    4.8569    4.6605 H   0  0  0  0  0  0  0  0  0  0  0  0
   -3.6038    6.3102    4.8790 H   0  0  0  0  0  0  0  0  0  0  0  0
   -4.7754    6.1783    2.7420 N   0  0  0  0  0  0  0  0  0  0  0  0
   -5.2222    6.0633    1.8485 H   0  0  0  0  0  0  0  0  0  0  0  0
   -5.0128    6.9671    3.3147 H   0  0  0  0  0  0  0  0  0  0  0  0
   -0.2596   -1.0479    1.3691 C   0  0  0  0  0  0  0  0  0  0  0  0
   -0.0446   -2.0156    0.6492 O   0  0  0  0  0  0  0  0  0  0  0  0
    0.4532   -0.7788    2.4674 N   0  0  0  0  0  0  0  0  0  0  0  0
    0.2305    0.0586    2.9802 H   0  0  0  0  0  0  0  0  0  0  0  0
    1.5950   -1.5763    2.9182 C   0  0  0  0  0  0  0  0  0  0  0  0
    2.3969   -1.5242    2.1787 H   0  0  0  0  0  0  0  0  0  0  0  0
    1.9668   -1.2018    3.8728 H   0  0  0  0  0  0  0  0  0  0  0  0
    1.2989   -2.6213    3.0325 H   0  0  0  0  0  0  0  0  0  0  0  0
  5  6  2  0  0  0  0
  5  7  1  0  0  0  0
  2  3  1  0  0  0  0
  2  4  1  0  0  0  0
  2  5  1  0  0  0  0
  1  2  1  0  0  0  0
 29 30  2  0  0  0  0
 29 31  1  0  0  0  0
 26 27  1  0  0  0  0
 26 28  1  0  0  0  0
 23 24  1  0  0  0  0
 23 25  1  0  0  0  0
 22 23  1  0  0  0  0
 22 26  1  0  0  0  0
 20 21  1  0  0  0  0
 20 22  2  0  0  0  0
 17 18  1  0  0  0  0
 17 19  1  0  0  0  0
 17 20  1  0  0  0  0
 14 15  1  0  0  0  0
 14 16  1  0  0  0  0
 14 17  1  0  0  0  0
 11 12  1  0  0  0  0
 11 13  1  0  0  0  0
 11 14  1  0  0  0  0
  9 10  1  0  0  0  0
  9 11  1  0  0  0  0
  9 29  1  0  0  0  0
  7  8  1  0  0  0  0
  7  9  1  0  0  0  0
 33 34  1  0  0  0  0
 33 35  1  0  0  0  0
 33 36  1  0  0  0  0
 31 32  1  0  0  0  0
 31 33  1  0  0  0  0
M  CHG  1  20   1
M  END
$$$$
default_name
  -OEChem-01062215323D

 36 35  0     1  0  0  0  0  0999 V2000
   -4.2256   -3.6731    1.8584 H   0  0  0  0  0  0  0  0  0  0  0  0
   -4.2396   -2.6781    1.4144 C   0  0  0  0  0  0  0  0  0  0  0  0
   -4.9506   -2.0521    1.9514 H   0  0  0  0  0  0  0  0  0  0  0  0
   -4.5266   -2.7521    0.3674 H   0  0  0  0  0  0  0  0  0  0  0  0
   -2.8576   -2.0761    1.5184 C   0  0  0  0  0  0  0  0  0  0  0  0
   -1.9456   -2.7051    2.0404 O   0  0  0  0  0  0  0  0  0  0  0  0
   -2.6926   -0.8481    1.0174 N   0  0  0  0  0  0  0  0  0  0  0  0
   -3.4926   -0.3971    0.5954 H   0  0  0  0  0  0  0  0  0  0  0  0
   -1.4216   -0.1071    1.0434 C   0  0  1  0  0  0  0  0  0  0  0  0
   -1.2563    0.3270    0.0560 H   0  0  0  0  0  0  0  0  0  0  0  0
   -1.5431    1.0340    2.0731 C   0  0  0  0  0  0  0  0  0  0  0  0
   -1.8638    0.6100    3.0268 H   0  0  0  0  0  0  0  0  0  0  0  0
   -0.5613    1.4902    2.2179 H   0  0  0  0  0  0  0  0  0  0  0  0
   -2.5488    2.1206    1.6656 C   0  0  0  0  0  0  0  0  0  0  0  0
   -2.2440    2.5691    0.7191 H   0  0  0  0  0  0  0  0  0  0  0  0
   -3.5366    1.6732    1.5508 H   0  0  0  0  0  0  0  0  0  0  0  0
   -2.6048    3.2115    2.7437 C   0  0  0  0  0  0  0  0  0  0  0  0
   -2.8846    2.7493    3.6932 H   0  0  0  0  0  0  0  0  0  0  0  0
   -1.6099    3.6513    2.8454 H   0  0  0  0  0  0  0  0  0  0  0  0
   -3.5796    4.2685    2.4041 N   0  3  0  0  0  0  0  0  0  0  0  0
   -4.0454    4.1852    1.5168 H   0  0  0  0  0  0  0  0  0  0  0  0
   -3.8962    5.3102    3.1549 C   0  0  0  0  0  0  0  0  0  0  0  0
   -3.3525    5.5143    4.3220 N   0  0  0  0  0  0  0  0  0  0  0  0
   -2.6723    4.8569    4.6605 H   0  0  0  0  0  0  0  0  0  0  0  0
   -3.6038    6.3102    4.8790 H   0  0  0  0  0  0  0  0  0  0  0  0
   -4.7754    6.1783    2.7420 N   0  0  0  0  0  0  0  0  0  0  0  0
   -5.2222    6.0633    1.8485 H   0  0  0  0  0  0  0  0  0  0  0  0
   -5.0128    6.9671    3.3147 H   0  0  0  0  0  0  0  0  0  0  0  0
   -0.2596   -1.0479    1.3691 C   0  0  0  0  0  0  0  0  0  0  0  0
    0.1316   -1.8420    0.5221 O   0  0  0  0  0  0  0  0  0  0  0  0
    0.2551   -0.9774    2.6007 N   0  0  0  0  0  0  0  0  0  0  0  0
   -0.1026   -0.2695    3.2210 H   0  0  0  0  0  0  0  0  0  0  0  0
    1.3678   -1.8038    3.0717 C   0  0  0  0  0  0  0  0  0  0  0  0
    2.2680   -1.5727    2.4982 H   0  0  0  0  0  0  0  0  0  0  0  0
    1.5610   -1.6146    4.1284 H   0  0  0  0  0  0  0  0  0  0  0  0
    1.1326   -2.8613    2.9327 H   0  0  0  0  0  0  0  0  0  0  0  0
  5  6  2  0  0  0  0
  5  7  1  0  0  0  0
  2  3  1  0  0  0  0
  2  4  1  0  0  0  0
  2  5  1  0  0  0  0
  1  2  1  0  0  0  0
 29 30  2  0  0  0  0
 29 31  1  0  0  0  0
 26 27  1  0  0  0  0
 26 28  1  0  0  0  0
 23 24  1  0  0  0  0
 23 25  1  0  0  0  0
 22 23  1  0  0  0  0
 22 26  1  0  0  0  0
 20 21  1  0  0  0  0
 20 22  2  0  0  0  0
 17 18  1  0  0  0  0
 17 19  1  0  0  0  0
 17 20  1  0  0  0  0
 14 15  1  0  0  0  0
 14 16  1  0  0  0  0
 14 17  1  0  0  0  0
 11 12  1  0  0  0  0
 11 13  1  0  0  0  0
 11 14  1  0  0  0  0
  9 10  1  0  0  0  0
  9 11  1  0  0  0  0
  9 29  1  0  0  0  0
  7  8  1  0  0  0  0
  7  9  1  0  0  0  0
 33 34  1  0  0  0  0
 33 35  1  0  0  0  0
 33 36  1  0  0  0  0
 31 32  1  0  0  0  0
 31 33  1  0  0  0  0
M  CHG  1  20   1
M  END
$$$$
default_name
  -OEChem-01062215323D

 36 35  0     1  0  0  0  0  0999 V2000
   -4.2256   -3.6731    1.8584 H   0  0  0  0  0  0  0  0  0  0  0  0
   -4.2396   -2.6781    1.4144 C   0  0  0  0  0  0  0  0  0  0  0  0
   -4.9506   -2.0521    1.9514 H   0  0  0  0  0  0  0  0  0  0  0  0
   -4.5266   -2.7521    0.3674 H   0  0  0  0  0  0  0  0  0  0  0  0
   -2.8576   -2.0761    1.5184 C   0  0  0  0  0  0  0  0  0  0  0  0
   -1.9456   -2.7051    2.0404 O   0  0  0  0  0  0  0  0  0  0  0  0
   -2.6926   -0.8481    1.0174 N   0  0  0  0  0  0  0  0  0  0  0  0
   -3.4926   -0.3971    0.5954 H   0  0  0  0  0  0  0  0  0  0  0  0
   -1.4216   -0.1071    1.0434 C   0  0  1  0  0  0  0  0  0  0  0  0
   -1.2563    0.3270    0.0560 H   0  0  0  0  0  0  0  0  0  0  0  0
   -1.5431    1.0340    2.0731 C   0  0  0  0  0  0  0  0  0  0  0  0
   -1.8638    0.6100    3.0268 H   0  0  0  0  0  0  0  0  0  0  0  0
   -0.5613    1.4902    2.2179 H   0  0  0  0  0  0  0  0  0  0  0  0
   -2.5488    2.1206    1.6656 C   0  0  0  0  0  0  0  0  0  0  0  0
   -2.2440    2.5691    0.7191 H   0  0  0  0  0  0  0  0  0  0  0  0
   -3.5366    1.6732    1.5508 H   0  0  0  0  0  0  0  0  0  0  0  0
   -2.6048    3.2115    2.7437 C   0  0  0  0  0  0  0  0  0  0  0  0
   -2.8846    2.7493    3.6932 H   0  0  0  0  0  0  0  0  0  0  0  0
   -1.6099    3.6513    2.8454 H   0  0  0  0  0  0  0  0  0  0  0  0
   -3.5796    4.2685    2.4041 N   0  3  0  0  0  0  0  0  0  0  0  0
   -4.0454    4.1852    1.5168 H   0  0  0  0  0  0  0  0  0  0  0  0
   -3.8962    5.3102    3.1549 C   0  0  0  0  0  0  0  0  0  0  0  0
   -3.3525    5.5143    4.3220 N   0  0  0  0  0  0  0  0  0  0  0  0
   -2.6723    4.8569    4.6605 H   0  0  0  0  0  0  0  0  0  0  0  0
   -3.6038    6.3102    4.8790 H   0  0  0  0  0  0  0  0  0  0  0  0
   -4.7754    6.1783    2.7420 N   0  0  0  0  0  0  0  0  0  0  0  0
   -5.2222    6.0633    1.8485 H   0  0  0  0  0  0  0  0  0  0  0  0
   -5.0128    6.9671    3.3147 H   0  0  0  0  0  0  0  0  0  0  0  0
   -0.2596   -1.0479    1.3691 C   0  0  0  0  0  0  0  0  0  0  0  0
    0.3125   -1.6395    0.4615 O   0  0  0  0  0  0  0  0  0  0  0  0
    0.0535   -1.2063    2.6589 N   0  0  0  0  0  0  0  0  0  0  0  0
   -0.4446   -0.6521    3.3362 H   0  0  0  0  0  0  0  0  0  0  0  0
    1.1364   -2.0663    3.1390 C   0  0  0  0  0  0  0  0  0  0  0  0
    2.0954   -1.6895    2.7768 H   0  0  0  0  0  0  0  0  0  0  0  0
    1.1511   -2.0859    4.2295 H   0  0  0  0  0  0  0  0  0  0  0  0
    1.0011   -3.0826    2.7627 H   0  0  0  0  0  0  0  0  0  0  0  0
  5  6  2  0  0  0  0
  5  7  1  0  0  0  0
  2  3  1  0  0  0  0
  2  4  1  0  0  0  0
  2  5  1  0  0  0  0
  1  2  1  0  0  0  0
 29 30  2  0  0  0  0
 29 31  1  0  0  0  0
 26 27  1  0  0  0  0
 26 28  1  0  0  0  0
 23 24  1  0  0  0  0
 23 25  1  0  0  0  0
 22 23  1  0  0  0  0
 22 26  1  0  0  0  0
 20 21  1  0  0  0  0
 20 22  2  0  0  0  0
 17 18  1  0  0  0  0
 17 19  1  0  0  0  0
 17 20  1  0  0  0  0
 14 15  1  0  0  0  0
 14 16  1  0  0  0  0
 14 17  1  0  0  0  0
 11 12  1  0  0  0  0
 11 13  1  0  0  0  0
 11 14  1  0  0  0  0
  9 10  1  0  0  0  0
  9 11  1  0  0  0  0
  9 29  1  0  0  0  0
  7  8  1  0  0  0  0
  7  9  1  0  0  0  0
 33 34  1  0  0  0  0
 33 35  1  0  0  0  0
 33 36  1  0  0  0  0
 31 32  1  0  0  0  0
 31 33  1  0  0  0  0
M  CHG  1  20   1
M  END
$$$$
default_name
  -OEChem-01062215323D

 36 35  0     1  0  0  0  0  0999 V2000
   -4.2256   -3.6731    1.8584 H   0  0  0  0  0  0  0  0  0  0  0  0
   -4.2396   -2.6781    1.4144 C   0  0  0  0  0  0  0  0  0  0  0  0
   -4.9506   -2.0521    1.9514 H   0  0  0  0  0  0  0  0  0  0  0  0
   -4.5266   -2.7521    0.3674 H   0  0  0  0  0  0  0  0  0  0  0  0
   -2.8576   -2.0761    1.5184 C   0  0  0  0  0  0  0  0  0  0  0  0
   -1.9456   -2.7051    2.0404 O   0  0  0  0  0  0  0  0  0  0  0  0
   -2.6926   -0.8481    1.0174 N   0  0  0  0  0  0  0  0  0  0  0  0
   -3.4926   -0.3971    0.5954 H   0  0  0  0  0  0  0  0  0  0  0  0
   -1.4216   -0.1071    1.0434 C   0  0  1  0  0  0  0  0  0  0  0  0
   -1.2563    0.3270    0.0560 H   0  0  0  0  0  0  0  0  0  0  0  0
   -1.5431    1.0340    2.0731 C   0  0  0  0  0  0  0  0  0  0  0  0
   -1.8638    0.6100    3.0268 H   0  0  0  0  0  0  0  0  0  0  0  0
   -0.5613    1.4902    2.2179 H   0  0  0  0  0  0  0  0  0  0  0  0
   -2.5488    2.1206    1.6656 C   0  0  0  0  0  0  0  0  0  0  0  0
   -2.2440    2.5691    0.7191 H   0  0  0  0  0  0  0  0  0  0  0  0
   -3.5366    1.6732    1.5508 H   0  0  0  0  0  0  0  0  0  0  0  0
   -2.6048    3.2115    2.7437 C   0  0  0  0  0  0  0  0  0  0  0  0
   -2.8846    2.7493    3.6932 H   0  0  0  0  0  0  0  0  0  0  0  0
   -1.6099    3.6513    2.8454 H   0  0  0  0  0  0  0  0  0  0  0  0
   -3.5796    4.2685    2.4041 N   0  3  0  0  0  0  0  0  0  0  0  0
   -4.0454    4.1852    1.5168 H   0  0  0  0  0  0  0  0  0  0  0  0
   -3.8962    5.3102    3.1549 C   0  0  0  0  0  0  0  0  0  0  0  0
   -3.3525    5.5143    4.3220 N   0  0  0  0  0  0  0  0  0  0  0  0
   -2.6723    4.8569    4.6605 H   0  0  0  0  0  0  0  0  0  0  0  0
   -3.6038    6.3102    4.8790 H   0  0  0  0  0  0  0  0  0  0  0  0
   -4.7754    6.1783    2.7420 N   0  0  0  0  0  0  0  0  0  0  0  0
   -5.2222    6.0633    1.8485 H   0  0  0  0  0  0  0  0  0  0  0  0
   -5.0128    6.9671    3.3147 H   0  0  0  0  0  0  0  0  0  0  0  0
   -0.2596   -1.0479    1.3691 C   0  0  0  0  0  0  0  0  0  0  0  0
    0.4857   -1.4222    0.4716 O   0  0  0  0  0  0  0  0  0  0  0  0
   -0.1379   -1.4499    2.6381 N   0  0  0  0  0  0  0  0  0  0  0  0
   -0.7722   -1.0631    3.3177 H   0  0  0  0  0  0  0  0  0  0  0  0
    0.9167   -2.3458    3.1156 C   0  0  0  0  0  0  0  0  0  0  0  0
    1.8907   -1.8666    2.9954 H   0  0  0  0  0  0  0  0  0  0  0  0
    0.7651   -2.5836    4.1693 H   0  0  0  0  0  0  0  0  0  0  0  0
    0.9132   -3.2702    2.5341 H   0  0  0  0  0  0  0  0  0  0  0  0
  5  6  2  0  0  0  0
  5  7  1  0  0  0  0
  2  3  1  0  0  0  0
  2  4  1  0  0  0  0
  2  5  1  0  0  0  0
  1  2  1  0  0  0  0
 29 30  2  0  0  0  0
 29 31  1  0  0  0  0
 26 27  1  0  0  0  0
 26 28  1  0  0  0  0
 23 24  1  0  0  0  0
 23 25  1  0  0  0  0
 22 23  1  0  0  0  0
 22 26  1  0  0  0  0
 20 21  1  0  0  0  0
 20 22  2  0  0  0  0
 17 18  1  0  0  0  0
 17 19  1  0  0  0  0
 17 20  1  0  0  0  0
 14 15  1  0  0  0  0
 14 16  1  0  0  0  0
 14 17  1  0  0  0  0
 11 12  1  0  0  0  0
 11 13  1  0  0  0  0
 11 14  1  0  0  0  0
  9 10  1  0  0  0  0
  9 11  1  0  0  0  0
  9 29  1  0  0  0  0
  7  8  1  0  0  0  0
  7  9  1  0  0  0  0
 33 34  1  0  0  0  0
 33 35  1  0  0  0  0
 33 36  1  0  0  0  0
 31 32  1  0  0  0  0
 31 33  1  0  0  0  0
M  CHG  1  20   1
M  END
$$$$
default_name
  -OEChem-01062215323D

 36 35  0     1  0  0  0  0  0999 V2000
   -4.2256   -3.6731    1.8584 H   0  0  0  0  0  0  0  0  0  0  0  0
   -4.2396   -2.6781    1.4144 C   0  0  0  0  0  0  0  0  0  0  0  0
   -4.9506   -2.0521    1.9514 H   0  0  0  0  0  0  0  0  0  0  0  0
   -4.5266   -2.7521    0.3674 H   0  0  0  0  0  0  0  0  0  0  0  0
   -2.8576   -2.0761    1.5184 C   0  0  0  0  0  0  0  0  0  0  0  0
   -1.9456   -2.7051    2.0404 O   0  0  0  0  0  0  0  0  0  0  0  0
   -2.6926   -0.8481    1.0174 N   0  0  0  0  0  0  0  0  0  0  0  0
   -3.4926   -0.3971    0.5954 H   0  0  0  0  0  0  0  0  0  0  0  0
   -1.4216   -0.1071    1.0434 C   0  0  1  0  0  0  0  0  0  0  0  0
   -1.2563    0.3270    0.0560 H   0  0  0  0  0  0  0  0  0  0  0  0
   -1.5431    1.0340    2.0731 C   0  0  0  0  0  0  0  0  0  0  0  0
   -1.8638    0.6100    3.0268 H   0  0  0  0  0  0  0  0  0  0  0  0
   -0.5613    1.4902    2.2179 H   0  0  0  0  0  0  0  0  0  0  0  0
   -2.5488    2.1206    1.6656 C   0  0  0  0  0  0  0  0  0  0  0  0
   -2.2440    2.5691    0.7191 H   0  0  0  0  0  0  0  0  0  0  0  0
   -3.5366    1.6732    1.5508 H   0  0  0  0  0  0  0  0  0  0  0  0
   -2.6048    3.2115    2.7437 C   0  0  0  0  0  0  0  0  0  0  0  0
   -2.8846    2.7493    3.6932 H   0  0  0  0  0  0  0  0  0  0  0  0
   -1.6099    3.6513    2.8454 H   0  0  0  0  0  0  0  0  0  0  0  0
   -3.5796    4.2685    2.4041 N   0  3  0  0  0  0  0  0  0  0  0  0
   -4.0454    4.1852    1.5168 H   0  0  0  0  0  0  0  0  0  0  0  0
   -3.8962    5.3102    3.1549 C   0  0  0  0  0  0  0  0  0  0  0  0
   -3.3525    5.5143    4.3220 N   0  0  0  0  0  0  0  0  0  0  0  0
   -2.6723    4.8569    4.6605 H   0  0  0  0  0  0  0  0  0  0  0  0
   -3.6038    6.3102    4.8790 H   0  0  0  0  0  0  0  0  0  0  0  0
   -4.7754    6.1783    2.7420 N   0  0  0  0  0  0  0  0  0  0  0  0
   -5.2222    6.0633    1.8485 H   0  0  0  0  0  0  0  0  0  0  0  0
   -5.0128    6.9671    3.3147 H   0  0  0  0  0  0  0  0  0  0  0  0
   -0.2596   -1.0479    1.3691 C   0  0  0  0  0  0  0  0  0  0  0  0
    0.6394   -1.2046    0.5516 O   0  0  0  0  0  0  0  0  0  0  0  0
   -0.3061   -1.6917    2.5396 N   0  0  0  0  0  0  0  0  0  0  0  0
   -1.0631   -1.4746    3.1670 H   0  0  0  0  0  0  0  0  0  0  0  0
    0.7236   -2.6232    3.0032 C   0  0  0  0  0  0  0  0  0  0  0  0
    1.6680   -2.0919    3.1393 H   0  0  0  0  0  0  0  0  0  0  0  0
    0.4292   -3.0738    3.9519 H   0  0  0  0  0  0  0  0  0  0  0  0
    0.8751   -3.4114    2.2624 H   0  0  0  0  0  0  0  0  0  0  0  0
  5  6  2  0  0  0  0
  5  7  1  0  0  0  0
  2  3  1  0  0  0  0
  2  4  1  0  0  0  0
  2  5  1  0  0  0  0
  1  2  1  0  0  0  0
 29 30  2  0  0  0  0
 29 31  1  0  0  0  0
 26 27  1  0  0  0  0
 26 28  1  0  0  0  0
 23 24  1  0  0  0  0
 23 25  1  0  0  0  0
 22 23  1  0  0  0  0
 22 26  1  0  0  0  0
 20 21  1  0  0  0  0
 20 22  2  0  0  0  0
 17 18  1  0  0  0  0
 17 19  1  0  0  0  0
 17 20  1  0  0  0  0
 14 15  1  0  0  0  0
 14 16  1  0  0  0  0
 14 17  1  0  0  0  0
 11 12  1  0  0  0  0
 11 13  1  0  0  0  0
 11 14  1  0  0  0  0
  9 10  1  0  0  0  0
  9 11  1  0  0  0  0
  9 29  1  0  0  0  0
  7  8  1  0  0  0  0
  7  9  1  0  0  0  0
 33 34  1  0  0  0  0
 33 35  1  0  0  0  0
 33 36  1  0  0  0  0
 31 32  1  0  0  0  0
 31 33  1  0  0  0  0
M  CHG  1  20   1
M  END
$$$$
default_name
  -OEChem-01062215323D

 36 35  0     1  0  0  0  0  0999 V2000
   -4.2256   -3.6731    1.8584 H   0  0  0  0  0  0  0  0  0  0  0  0
   -4.2396   -2.6781    1.4144 C   0  0  0  0  0  0  0  0  0  0  0  0
   -4.9506   -2.0521    1.9514 H   0  0  0  0  0  0  0  0  0  0  0  0
   -4.5266   -2.7521    0.3674 H   0  0  0  0  0  0  0  0  0  0  0  0
   -2.8576   -2.0761    1.5184 C   0  0  0  0  0  0  0  0  0  0  0  0
   -1.9456   -2.7051    2.0404 O   0  0  0  0  0  0  0  0  0  0  0  0
   -2.6926   -0.8481    1.0174 N   0  0  0  0  0  0  0  0  0  0  0  0
   -3.4926   -0.3971    0.5954 H   0  0  0  0  0  0  0  0  0  0  0  0
   -1.4216   -0.1071    1.0434 C   0  0  1  0  0  0  0  0  0  0  0  0
   -1.2563    0.3270    0.0560 H   0  0  0  0  0  0  0  0  0  0  0  0
   -1.5431    1.0340    2.0731 C   0  0  0  0  0  0  0  0  0  0  0  0
   -1.8638    0.6100    3.0268 H   0  0  0  0  0  0  0  0  0  0  0  0
   -0.5613    1.4902    2.2179 H   0  0  0  0  0  0  0  0  0  0  0  0
   -2.5488    2.1206    1.6656 C   0  0  0  0  0  0  0  0  0  0  0  0
   -2.2440    2.5691    0.7191 H   0  0  0  0  0  0  0  0  0  0  0  0
   -3.5366    1.6732    1.5508 H   0  0  0  0  0  0  0  0  0  0  0  0
   -2.6048    3.2115    2.7437 C   0  0  0  0  0  0  0  0  0  0  0  0
   -2.8846    2.7493    3.6932 H   0  0  0  0  0  0  0  0  0  0  0  0
   -1.6099    3.6513    2.8454 H   0  0  0  0  0  0  0  0  0  0  0  0
   -3.5796    4.2685    2.4041 N   0  3  0  0  0  0  0  0  0  0  0  0
   -4.0454    4.1852    1.5168 H   0  0  0  0  0  0  0  0  0  0  0  0
   -3.8962    5.3102    3.1549 C   0  0  0  0  0  0  0  0  0  0  0  0
   -3.3525    5.5143    4.3220 N   0  0  0  0  0  0  0  0  0  0  0  0
   -2.6723    4.8569    4.6605 H   0  0  0  0  0  0  0  0  0  0  0  0
   -3.6038    6.3102    4.8790 H   0  0  0  0  0  0  0  0  0  0  0  0
   -4.7754    6.1783    2.7420 N   0  0  0  0  0  0  0  0  0  0  0  0
   -5.2222    6.0633    1.8485 H   0  0  0  0  0  0  0  0  0  0  0  0
   -5.0128    6.9671    3.3147 H   0  0  0  0  0  0  0  0  0  0  0  0
   -0.2596   -1.0479    1.3691 C   0  0  0  0  0  0  0  0  0  0  0  0
    0.7631   -1.0018    0.6961 O   0  0  0  0  0  0  0  0  0  0  0  0
   -0.4395   -1.9151    2.3702 N   0  0  0  0  0  0  0  0  0  0  0  0
   -1.2974   -1.8584    2.8943 H   0  0  0  0  0  0  0  0  0  0  0  0
    0.5702   -2.8798    2.8092 C   0  0  0  0  0  0  0  0  0  0  0  0
    1.4424   -2.3501    3.1985 H   0  0  0  0  0  0  0  0  0  0  0  0
    0.1663   -3.5230    3.5921 H   0  0  0  0  0  0  0  0  0  0  0  0
    0.8894   -3.4964    1.9661 H   0  0  0  0  0  0  0  0  0  0  0  0
  5  6  2  0  0  0  0
  5  7  1  0  0  0  0
  2  3  1  0  0  0  0
  2  4  1  0  0  0  0
  2  5  1  0  0  0  0
  1  2  1  0  0  0  0
 29 30  2  0  0  0  0
 29 31  1  0  0  0  0
 26 27  1  0  0  0  0
 26 28  1  0  0  0  0
 23 24  1  0  0  0  0
 23 25  1  0  0  0  0
 22 23  1  0  0  0  0
 22 26  1  0  0  0  0
 20 21  1  0  0  0  0
 20 22  2  0  0  0  0
 17 18  1  0  0  0  0
 17 19  1  0  0  0  0
 17 20  1  0  0  0  0
 14 15  1  0  0  0  0
 14 16  1  0  0  0  0
 14 17  1  0  0  0  0
 11 12  1  0  0  0  0
 11 13  1  0  0  0  0
 11 14  1  0  0  0  0
  9 10  1  0  0  0  0
  9 11  1  0  0  0  0
  9 29  1  0  0  0  0
  7  8  1  0  0  0  0
  7  9  1  0  0  0  0
 33 34  1  0  0  0  0
 33 35  1  0  0  0  0
 33 36  1  0  0  0  0
 31 32  1  0  0  0  0
 31 33  1  0  0  0  0
M  CHG  1  20   1
M  END
$$$$
default_name
  -OEChem-01062215323D

 36 35  0     1  0  0  0  0  0999 V2000
   -4.2256   -3.6731    1.8584 H   0  0  0  0  0  0  0  0  0  0  0  0
   -4.2396   -2.6781    1.4144 C   0  0  0  0  0  0  0  0  0  0  0  0
   -4.9506   -2.0521    1.9514 H   0  0  0  0  0  0  0  0  0  0  0  0
   -4.5266   -2.7521    0.3674 H   0  0  0  0  0  0  0  0  0  0  0  0
   -2.8576   -2.0761    1.5184 C   0  0  0  0  0  0  0  0  0  0  0  0
   -1.9456   -2.7051    2.0404 O   0  0  0  0  0  0  0  0  0  0  0  0
   -2.6926   -0.8481    1.0174 N   0  0  0  0  0  0  0  0  0  0  0  0
   -3.4926   -0.3971    0.5954 H   0  0  0  0  0  0  0  0  0  0  0  0
   -1.4216   -0.1071    1.0434 C   0  0  1  0  0  0  0  0  0  0  0  0
   -1.2563    0.3270    0.0560 H   0  0  0  0  0  0  0  0  0  0  0  0
   -1.5431    1.0340    2.0731 C   0  0  0  0  0  0  0  0  0  0  0  0
   -1.8638    0.6100    3.0268 H   0  0  0  0  0  0  0  0  0  0  0  0
   -0.5613    1.4902    2.2179 H   0  0  0  0  0  0  0  0  0  0  0  0
   -2.5488    2.1206    1.6656 C   0  0  0  0  0  0  0  0  0  0  0  0
   -2.2440    2.5691    0.7191 H   0  0  0  0  0  0  0  0  0  0  0  0
   -3.5366    1.6732    1.5508 H   0  0  0  0  0  0  0  0  0  0  0  0
   -2.6048    3.2115    2.7437 C   0  0  0  0  0  0  0  0  0  0  0  0
   -2.8846    2.7493    3.6932 H   0  0  0  0  0  0  0  0  0  0  0  0
   -1.6099    3.6513    2.8454 H   0  0  0  0  0  0  0  0  0  0  0  0
   -3.5796    4.2685    2.4041 N   0  3  0  0  0  0  0  0  0  0  0  0
   -4.0454    4.1852    1.5168 H   0  0  0  0  0  0  0  0  0  0  0  0
   -3.8962    5.3102    3.1549 C   0  0  0  0  0  0  0  0  0  0  0  0
   -3.3525    5.5143    4.3220 N   0  0  0  0  0  0  0  0  0  0  0  0
   -2.6723    4.8569    4.6605 H   0  0  0  0  0  0  0  0  0  0  0  0
   -3.6038    6.3102    4.8790 H   0  0  0  0  0  0  0  0  0  0  0  0
   -4.7754    6.1783    2.7420 N   0  0  0  0  0  0  0  0  0  0  0  0
   -5.2222    6.0633    1.8485 H   0  0  0  0  0  0  0  0  0  0  0  0
   -5.0128    6.9671    3.3147 H   0  0  0  0  0  0  0  0  0  0  0  0
   -0.2596   -1.0479    1.3691 C   0  0  0  0  0  0  0  0  0  0  0  0
    0.8485   -0.8274    0.8952 O   0  0  0  0  0  0  0  0  0  0  0  0
   -0.5291   -2.1050    2.1414 N   0  0  0  0  0  0  0  0  0  0  0  0
   -1.4592   -2.1884    2.5181 H   0  0  0  0  0  0  0  0  0  0  0  0
    0.4671   -3.0979    2.5471 C   0  0  0  0  0  0  0  0  0  0  0  0
    1.2293   -2.6235    3.1690 H   0  0  0  0  0  0  0  0  0  0  0  0
   -0.0056   -3.9007    3.1144 H   0  0  0  0  0  0  0  0  0  0  0  0
    0.9549   -3.5195    1.6655 H   0  0  0  0  0  0  0  0  0  0  0  0
  5  6  2  0  0  0  0
  5  7  1  0  0  0  0
  2  3  1  0  0  0  0
  2  4  1  0  0  0  0
  2  5  1  0  0  0  0
  1  2  1  0  0  0  0
 29 30  2  0  0  0  0
 29 31  1  0  0  0  0
 26 27  1  0  0  0  0
 26 28  1  0  0  0  0
 23 24  1  0  0  0  0
 23 25  1  0  0  0  0
 22 23  1  0  0  0  0
 22 26  1  0  0  0  0
 20 21  1  0  0  0  0
 20 22  2  0  0  0  0
 17 18  1  0  0  0  0
 17 19  1  0  0  0  0
 17 20  1  0  0  0  0
 14 15  1  0  0  0  0
 14 16  1  0  0  0  0
 14 17  1  0  0  0  0
 11 12  1  0  0  0  0
 11 13  1  0  0  0  0
 11 14  1  0  0  0  0
  9 10  1  0  0  0  0
  9 11  1  0  0  0  0
  9 29  1  0  0  0  0
  7  8  1  0  0  0  0
  7  9  1  0  0  0  0
 33 34  1  0  0  0  0
 33 35  1  0  0  0  0
 33 36  1  0  0  0  0
 31 32  1  0  0  0  0
 31 33  1  0  0  0  0
M  CHG  1  20   1
M  END
$$$$
default_name
  -OEChem-01062215323D

 36 35  0     1  0  0  0  0  0999 V2000
   -4.2256   -3.6731    1.8584 H   0  0  0  0  0  0  0  0  0  0  0  0
   -4.2396   -2.6781    1.4144 C   0  0  0  0  0  0  0  0  0  0  0  0
   -4.9506   -2.0521    1.9514 H   0  0  0  0  0  0  0  0  0  0  0  0
   -4.5266   -2.7521    0.3674 H   0  0  0  0  0  0  0  0  0  0  0  0
   -2.8576   -2.0761    1.5184 C   0  0  0  0  0  0  0  0  0  0  0  0
   -1.9456   -2.7051    2.0404 O   0  0  0  0  0  0  0  0  0  0  0  0
   -2.6926   -0.8481    1.0174 N   0  0  0  0  0  0  0  0  0  0  0  0
   -3.4926   -0.3971    0.5954 H   0  0  0  0  0  0  0  0  0  0  0  0
   -1.4216   -0.1071    1.0434 C   0  0  1  0  0  0  0  0  0  0  0  0
   -1.2563    0.3270    0.0560 H   0  0  0  0  0  0  0  0  0  0  0  0
   -1.5431    1.0340    2.0731 C   0  0  0  0  0  0  0  0  0  0  0  0
   -1.8638    0.6100    3.0268 H   0  0  0  0  0  0  0  0  0  0  0  0
   -0.5613    1.4902    2.2179 H   0  0  0  0  0  0  0  0  0  0  0  0
   -2.5488    2.1206    1.6656 C   0  0  0  0  0  0  0  0  0  0  0  0
   -2.2440    2.5691    0.7191 H   0  0  0  0  0  0  0  0  0  0  0  0
   -3.5366    1.6732    1.5508 H   0  0  0  0  0  0  0  0  0  0  0  0
   -2.6048    3.2115    2.7437 C   0  0  0  0  0  0  0  0  0  0  0  0
   -2.8846    2.7493    3.6932 H   0  0  0  0  0  0  0  0  0  0  0  0
   -1.6099    3.6513    2.8454 H   0  0  0  0  0  0  0  0  0  0  0  0
   -3.5796    4.2685    2.4041 N   0  3  0  0  0  0  0  0  0  0  0  0
   -4.0454    4.1852    1.5168 H   0  0  0  0  0  0  0  0  0  0  0  0
   -3.8962    5.3102    3.1549 C   0  0  0  0  0  0  0  0  0  0  0  0
   -3.3525    5.5143    4.3220 N   0  0  0  0  0  0  0  0  0  0  0  0
   -2.6723    4.8569    4.6605 H   0  0  0  0  0  0  0  0  0  0  0  0
   -3.6038    6.3102    4.8790 H   0  0  0  0  0  0  0  0  0  0  0  0
   -4.7754    6.1783    2.7420 N   0  0  0  0  0  0  0  0  0  0  0  0
   -5.2222    6.0633    1.8485 H   0  0  0  0  0  0  0  0  0  0  0  0
   -5.0128    6.9671    3.3147 H   0  0  0  0  0  0  0  0  0  0  0  0
   -0.2596   -1.0479    1.3691 C   0  0  0  0  0  0  0  0  0  0  0  0
    0.8897   -0.6934    1.1354 O   0  0  0  0  0  0  0  0  0  0  0  0
   -0.5688   -2.2484    1.8688 N   0  0  0  0  0  0  0  0  0  0  0  0
   -1.5374   -2.4422    2.0642 H   0  0  0  0  0  0  0  0  0  0  0  0
    0.4212   -3.2628    2.2346 C   0  0  0  0  0  0  0  0  0  0  0  0
    1.0432   -2.8936    3.0529 H   0  0  0  0  0  0  0  0  0  0  0  0
   -0.0748   -4.1811    2.5515 H   0  0  0  0  0  0  0  0  0  0  0  0
    1.0673   -3.4791    1.3811 H   0  0  0  0  0  0  0  0  0  0  0  0
  5  6  2  0  0  0  0
  5  7  1  0  0  0  0
  2  3  1  0  0  0  0
  2  4  1  0  0  0  0
  2  5  1  0  0  0  0
  1  2  1  0  0  0  0
 29 30  2  0  0  0  0
 29 31  1  0  0  0  0
 26 27  1  0  0  0  0
 26 28  1  0  0  0  0
 23 24  1  0  0  0  0
 23 25  1  0  0  0  0
 22 23  1  0  0  0  0
 22 26  1  0  0  0  0
 20 21  1  0  0  0  0
 20 22  2  0  0  0  0
 17 18  1  0  0  0  0
 17 19  1  0  0  0  0
 17 20  1  0  0  0  0
 14 15  1  0  0  0  0
 14 16  1  0  0  0  0
 14 17  1  0  0  0  0
 11 12  1  0  0  0  0
 11 13  1  0  0  0  0
 11 14  1  0  0  0  0
  9 10  1  0  0  0  0
  9 11  1  0  0  0  0
  9 29  1  0  0  0  0
  7  8  1  0  0  0  0
  7  9  1  0  0  0  0
 33 34  1  0  0  0  0
 33 35  1  0  0  0  0
 33 36  1  0  0  0  0
 31 32  1  0  0  0  0
 31 33  1  0  0  0  0
M  CHG  1  20   1
M  END
$$$$
default_name
  -OEChem-01062215323D

 36 35  0     1  0  0  0  0  0999 V2000
   -4.2256   -3.6731    1.8584 H   0  0  0  0  0  0  0  0  0  0  0  0
   -4.2396   -2.6781    1.4144 C   0  0  0  0  0  0  0  0  0  0  0  0
   -4.9506   -2.0521    1.9514 H   0  0  0  0  0  0  0  0  0  0  0  0
   -4.5266   -2.7521    0.3674 H   0  0  0  0  0  0  0  0  0  0  0  0
   -2.8576   -2.0761    1.5184 C   0  0  0  0  0  0  0  0  0  0  0  0
   -1.9456   -2.7051    2.0404 O   0  0  0  0  0  0  0  0  0  0  0  0
   -2.6926   -0.8481    1.0174 N   0  0  0  0  0  0  0  0  0  0  0  0
   -3.4926   -0.3971    0.5954 H   0  0  0  0  0  0  0  0  0  0  0  0
   -1.4216   -0.1071    1.0434 C   0  0  1  0  0  0  0  0  0  0  0  0
   -1.2563    0.3270    0.0560 H   0  0  0  0  0  0  0  0  0  0  0  0
   -1.5431    1.0340    2.0731 C   0  0  0  0  0  0  0  0  0  0  0  0
   -1.8638    0.6100    3.0268 H   0  0  0  0  0  0  0  0  0  0  0  0
   -0.5613    1.4902    2.2179 H   0  0  0  0  0  0  0  0  0  0  0  0
   -2.5488    2.1206    1.6656 C   0  0  0  0  0  0  0  0  0  0  0  0
   -2.2440    2.5691    0.7191 H   0  0  0  0  0  0  0  0  0  0  0  0
   -3.5366    1.6732    1.5508 H   0  0  0  0  0  0  0  0  0  0  0  0
   -2.6048    3.2115    2.7437 C   0  0  0  0  0  0  0  0  0  0  0  0
   -2.8846    2.7493    3.6932 H   0  0  0  0  0  0  0  0  0  0  0  0
   -1.6099    3.6513    2.8454 H   0  0  0  0  0  0  0  0  0  0  0  0
   -3.5796    4.2685    2.4041 N   0  3  0  0  0  0  0  0  0  0  0  0
   -4.0454    4.1852    1.5168 H   0  0  0  0  0  0  0  0  0  0  0  0
   -3.8962    5.3102    3.1549 C   0  0  0  0  0  0  0  0  0  0  0  0
   -3.3525    5.5143    4.3220 N   0  0  0  0  0  0  0  0  0  0  0  0
   -2.6723    4.8569    4.6605 H   0  0  0  0  0  0  0  0  0  0  0  0
   -3.6038    6.3102    4.8790 H   0  0  0  0  0  0  0  0  0  0  0  0
   -4.7754    6.1783    2.7420 N   0  0  0  0  0  0  0  0  0  0  0  0
   -5.2222    6.0633    1.8485 H   0  0  0  0  0  0  0  0  0  0  0  0
   -5.0128    6.9671    3.3147 H   0  0  0  0  0  0  0  0  0  0  0  0
   -0.2596   -1.0479    1.3691 C   0  0  0  0  0  0  0  0  0  0  0  0
    0.8838   -0.6089    1.4003 O   0  0  0  0  0  0  0  0  0  0  0  0
   -0.5559   -2.3356    1.5711 N   0  0  0  0  0  0  0  0  0  0  0  0
   -1.5267   -2.6025    1.5633 H   0  0  0  0  0  0  0  0  0  0  0  0
    0.4357   -3.3632    1.8931 C   0  0  0  0  0  0  0  0  0  0  0  0
    0.8968   -3.1419    2.8580 H   0  0  0  0  0  0  0  0  0  0  0  0
   -0.0367   -4.3451    1.9416 H   0  0  0  0  0  0  0  0  0  0  0  0
    1.2190   -3.3780    1.1321 H   0  0  0  0  0  0  0  0  0  0  0  0
  5  6  2  0  0  0  0
  5  7  1  0  0  0  0
  2  3  1  0  0  0  0
  2  4  1  0  0  0  0
  2  5  1  0  0  0  0
  1  2  1  0  0  0  0
 29 30  2  0  0  0  0
 29 31  1  0  0  0  0
 26 27  1  0  0  0  0
 26 28  1  0  0  0  0
 23 24  1  0  0  0  0
 23 25  1  0  0  0  0
 22 23  1  0  0  0  0
 22 26  1  0  0  0  0
 20 21  1  0  0  0  0
 20 22  2  0  0  0  0
 17 18  1  0  0  0  0
 17 19  1  0  0  0  0
 17 20  1  0  0  0  0
 14 15  1  0  0  0  0
 14 16  1  0  0  0  0
 14 17  1  0  0  0  0
 11 12  1  0  0  0  0
 11 13  1  0  0  0  0
 11 14  1  0  0  0  0
  9 10  1  0  0  0  0
  9 11  1  0  0  0  0
  9 29  1  0  0  0  0
  7  8  1  0  0  0  0
  7  9  1  0  0  0  0
 33 34  1  0  0  0  0
 33 35  1  0  0  0  0
 33 36  1  0  0  0  0
 31 32  1  0  0  0  0
 31 33  1  0  0  0  0
M  CHG  1  20   1
M  END
$$$$
default_name
  -OEChem-01062215323D

 36 35  0     1  0  0  0  0  0999 V2000
   -4.2256   -3.6731    1.8584 H   0  0  0  0  0  0  0  0  0  0  0  0
   -4.2396   -2.6781    1.4144 C   0  0  0  0  0  0  0  0  0  0  0  0
   -4.9506   -2.0521    1.9514 H   0  0  0  0  0  0  0  0  0  0  0  0
   -4.5266   -2.7521    0.3674 H   0  0  0  0  0  0  0  0  0  0  0  0
   -2.8576   -2.0761    1.5184 C   0  0  0  0  0  0  0  0  0  0  0  0
   -1.9456   -2.7051    2.0404 O   0  0  0  0  0  0  0  0  0  0  0  0
   -2.6926   -0.8481    1.0174 N   0  0  0  0  0  0  0  0  0  0  0  0
   -3.4926   -0.3971    0.5954 H   0  0  0  0  0  0  0  0  0  0  0  0
   -1.4216   -0.1071    1.0434 C   0  0  1  0  0  0  0  0  0  0  0  0
   -1.2563    0.3270    0.0560 H   0  0  0  0  0  0  0  0  0  0  0  0
   -1.5431    1.0340    2.0731 C   0  0  0  0  0  0  0  0  0  0  0  0
   -1.8638    0.6100    3.0268 H   0  0  0  0  0  0  0  0  0  0  0  0
   -0.5613    1.4902    2.2179 H   0  0  0  0  0  0  0  0  0  0  0  0
   -2.5488    2.1206    1.6656 C   0  0  0  0  0  0  0  0  0  0  0  0
   -2.2440    2.5691    0.7191 H   0  0  0  0  0  0  0  0  0  0  0  0
   -3.5366    1.6732    1.5508 H   0  0  0  0  0  0  0  0  0  0  0  0
   -2.6048    3.2115    2.7437 C   0  0  0  0  0  0  0  0  0  0  0  0
   -2.8846    2.7493    3.6932 H   0  0  0  0  0  0  0  0  0  0  0  0
   -1.6099    3.6513    2.8454 H   0  0  0  0  0  0  0  0  0  0  0  0
   -3.5796    4.2685    2.4041 N   0  3  0  0  0  0  0  0  0  0  0  0
   -4.0454    4.1852    1.5168 H   0  0  0  0  0  0  0  0  0  0  0  0
   -3.8962    5.3102    3.1549 C   0  0  0  0  0  0  0  0  0  0  0  0
   -3.3525    5.5143    4.3220 N   0  0  0  0  0  0  0  0  0  0  0  0
   -2.6723    4.8569    4.6605 H   0  0  0  0  0  0  0  0  0  0  0  0
   -3.6038    6.3102    4.8790 H   0  0  0  0  0  0  0  0  0  0  0  0
   -4.7754    6.1783    2.7420 N   0  0  0  0  0  0  0  0  0  0  0  0
   -5.2222    6.0633    1.8485 H   0  0  0  0  0  0  0  0  0  0  0  0
   -5.0128    6.9671    3.3147 H   0  0  0  0  0  0  0  0  0  0  0  0
   -0.2596   -1.0479    1.3691 C   0  0  0  0  0  0  0  0  0  0  0  0
    0.8314   -0.5797    1.6718 O   0  0  0  0  0  0  0  0  0  0  0  0
   -0.4912   -2.3605    1.2684 N   0  0  0  0  0  0  0  0  0  0  0  0
   -1.4279   -2.6582    1.0498 H   0  0  0  0  0  0  0  0  0  0  0  0
    0.5095   -3.3922    1.5458 C   0  0  0  0  0  0  0  0  0  0  0  0
    0.8000   -3.3515    2.5977 H   0  0  0  0  0  0  0  0  0  0  0  0
    0.1062   -4.3816    1.3263 H   0  0  0  0  0  0  0  0  0  0  0  0
    1.3995   -3.2230    0.9356 H   0  0  0  0  0  0  0  0  0  0  0  0
  5  6  2  0  0  0  0
  5  7  1  0  0  0  0
  2  3  1  0  0  0  0
  2  4  1  0  0  0  0
  2  5  1  0  0  0  0
  1  2  1  0  0  0  0
 29 30  2  0  0  0  0
 29 31  1  0  0  0  0
 26 27  1  0  0  0  0
 26 28  1  0  0  0  0
 23 24  1  0  0  0  0
 23 25  1  0  0  0  0
 22 23  1  0  0  0  0
 22 26  1  0  0  0  0
 20 21  1  0  0  0  0
 20 22  2  0  0  0  0
 17 18  1  0  0  0  0
 17 19  1  0  0  0  0
 17 20  1  0  0  0  0
 14 15  1  0  0  0  0
 14 16  1  0  0  0  0
 14 17  1  0  0  0  0
 11 12  1  0  0  0  0
 11 13  1  0  0  0  0
 11 14  1  0  0  0  0
  9 10  1  0  0  0  0
  9 11  1  0  0  0  0
  9 29  1  0  0  0  0
  7  8  1  0  0  0  0
  7  9  1  0  0  0  0
 33 34  1  0  0  0  0
 33 35  1  0  0  0  0
 33 36  1  0  0  0  0
 31 32  1  0  0  0  0
 31 33  1  0  0  0  0
M  CHG  1  20   1
M  END
$$$$
default_name
  -OEChem-01062215323D

 36 35  0     1  0  0  0  0  0999 V2000
   -4.2256   -3.6731    1.8584 H   0  0  0  0  0  0  0  0  0  0  0  0
   -4.2396   -2.6781    1.4144 C   0  0  0  0  0  0  0  0  0  0  0  0
   -4.9506   -2.0521    1.9514 H   0  0  0  0  0  0  0  0  0  0  0  0
   -4.5266   -2.7521    0.3674 H   0  0  0  0  0  0  0  0  0  0  0  0
   -2.8576   -2.0761    1.5184 C   0  0  0  0  0  0  0  0  0  0  0  0
   -1.9456   -2.7051    2.0404 O   0  0  0  0  0  0  0  0  0  0  0  0
   -2.6926   -0.8481    1.0174 N   0  0  0  0  0  0  0  0  0  0  0  0
   -3.4926   -0.3971    0.5954 H   0  0  0  0  0  0  0  0  0  0  0  0
   -1.4216   -0.1071    1.0434 C   0  0  1  0  0  0  0  0  0  0  0  0
   -1.2563    0.3270    0.0560 H   0  0  0  0  0  0  0  0  0  0  0  0
   -1.5431    1.0340    2.0731 C   0  0  0  0  0  0  0  0  0  0  0  0
   -1.8638    0.6100    3.0268 H   0  0  0  0  0  0  0  0  0  0  0  0
   -0.5613    1.4902    2.2179 H   0  0  0  0  0  0  0  0  0  0  0  0
   -2.5488    2.1206    1.6656 C   0  0  0  0  0  0  0  0  0  0  0  0
   -2.2440    2.5691    0.7191 H   0  0  0  0  0  0  0  0  0  0  0  0
   -3.5366    1.6732    1.5508 H   0  0  0  0  0  0  0  0  0  0  0  0
   -2.6048    3.2115    2.7437 C   0  0  0  0  0  0  0  0  0  0  0  0
   -2.8846    2.7493    3.6932 H   0  0  0  0  0  0  0  0  0  0  0  0
   -1.6099    3.6513    2.8454 H   0  0  0  0  0  0  0  0  0  0  0  0
   -3.5796    4.2685    2.4041 N   0  3  0  0  0  0  0  0  0  0  0  0
   -4.0454    4.1852    1.5168 H   0  0  0  0  0  0  0  0  0  0  0  0
   -3.8962    5.3102    3.1549 C   0  0  0  0  0  0  0  0  0  0  0  0
   -3.3525    5.5143    4.3220 N   0  0  0  0  0  0  0  0  0  0  0  0
   -2.6723    4.8569    4.6605 H   0  0  0  0  0  0  0  0  0  0  0  0
   -3.6038    6.3102    4.8790 H   0  0  0  0  0  0  0  0  0  0  0  0
   -4.7754    6.1783    2.7420 N   0  0  0  0  0  0  0  0  0  0  0  0
   -5.2222    6.0633    1.8485 H   0  0  0  0  0  0  0  0  0  0  0  0
   -5.0128    6.9671    3.3147 H   0  0  0  0  0  0  0  0  0  0  0  0
   -0.2596   -1.0479    1.3691 C   0  0  0  0  0  0  0  0  0  0  0  0
    0.7359   -0.6077    1.9315 O   0  0  0  0  0  0  0  0  0  0  0  0
   -0.3792   -2.3215    0.9814 N   0  0  0  0  0  0  0  0  0  0  0  0
   -1.2477   -2.6056    0.5585 H   0  0  0  0  0  0  0  0  0  0  0  0
    0.6377   -3.3479    1.2163 C   0  0  0  0  0  0  0  0  0  0  0  0
    0.7596   -3.5081    2.2897 H   0  0  0  0  0  0  0  0  0  0  0  0
    0.3442   -4.2880    0.7475 H   0  0  0  0  0  0  0  0  0  0  0  0
    1.5966   -3.0248    0.8051 H   0  0  0  0  0  0  0  0  0  0  0  0
  5  6  2  0  0  0  0
  5  7  1  0  0  0  0
  2  3  1  0  0  0  0
  2  4  1  0  0  0  0
  2  5  1  0  0  0  0
  1  2  1  0  0  0  0
 29 30  2  0  0  0  0
 29 31  1  0  0  0  0
 26 27  1  0  0  0  0
 26 28  1  0  0  0  0
 23 24  1  0  0  0  0
 23 25  1  0  0  0  0
 22 23  1  0  0  0  0
 22 26  1  0  0  0  0
 20 21  1  0  0  0  0
 20 22  2  0  0  0  0
 17 18  1  0  0  0  0
 17 19  1  0  0  0  0
 17 20  1  0  0  0  0
 14 15  1  0  0  0  0
 14 16  1  0  0  0  0
 14 17  1  0  0  0  0
 11 12  1  0  0  0  0
 11 13  1  0  0  0  0
 11 14  1  0  0  0  0
  9 10  1  0  0  0  0
  9 11  1  0  0  0  0
  9 29  1  0  0  0  0
  7  8  1  0  0  0  0
  7  9  1  0  0  0  0
 33 34  1  0  0  0  0
 33 35  1  0  0  0  0
 33 36  1  0  0  0  0
 31 32  1  0  0  0  0
 31 33  1  0  0  0  0
M  CHG  1  20   1
M  END
$$$$
default_name
  -OEChem-01062215323D

 36 35  0     1  0  0  0  0  0999 V2000
   -4.2256   -3.6731    1.8584 H   0  0  0  0  0  0  0  0  0  0  0  0
   -4.2396   -2.6781    1.4144 C   0  0  0  0  0  0  0  0  0  0  0  0
   -4.9506   -2.0521    1.9514 H   0  0  0  0  0  0  0  0  0  0  0  0
   -4.5266   -2.7521    0.3674 H   0  0  0  0  0  0  0  0  0  0  0  0
   -2.8576   -2.0761    1.5184 C   0  0  0  0  0  0  0  0  0  0  0  0
   -1.9456   -2.7051    2.0404 O   0  0  0  0  0  0  0  0  0  0  0  0
   -2.6926   -0.8481    1.0174 N   0  0  0  0  0  0  0  0  0  0  0  0
   -3.4926   -0.3971    0.5954 H   0  0  0  0  0  0  0  0  0  0  0  0
   -1.4216   -0.1071    1.0434 C   0  0  1  0  0  0  0  0  0  0  0  0
   -1.2563    0.3270    0.0560 H   0  0  0  0  0  0  0  0  0  0  0  0
   -1.5431    1.0340    2.0731 C   0  0  0  0  0  0  0  0  0  0  0  0
   -1.8638    0.6100    3.0268 H   0  0  0  0  0  0  0  0  0  0  0  0
   -0.5613    1.4902    2.2179 H   0  0  0  0  0  0  0  0  0  0  0  0
   -2.5488    2.1206    1.6656 C   0  0  0  0  0  0  0  0  0  0  0  0
   -2.2440    2.5691    0.7191 H   0  0  0  0  0  0  0  0  0  0  0  0
   -3.5366    1.6732    1.5508 H   0  0  0  0  0  0  0  0  0  0  0  0
   -2.6048    3.2115    2.7437 C   0  0  0  0  0  0  0  0  0  0  0  0
   -2.8846    2.7493    3.6932 H   0  0  0  0  0  0  0  0  0  0  0  0
   -1.6099    3.6513    2.8454 H   0  0  0  0  0  0  0  0  0  0  0  0
   -3.5796    4.2685    2.4041 N   0  3  0  0  0  0  0  0  0  0  0  0
   -4.0454    4.1852    1.5168 H   0  0  0  0  0  0  0  0  0  0  0  0
   -3.8962    5.3102    3.1549 C   0  0  0  0  0  0  0  0  0  0  0  0
   -3.3525    5.5143    4.3220 N   0  0  0  0  0  0  0  0  0  0  0  0
   -2.6723    4.8569    4.6605 H   0  0  0  0  0  0  0  0  0  0  0  0
   -3.6038    6.3102    4.8790 H   0  0  0  0  0  0  0  0  0  0  0  0
   -4.7754    6.1783    2.7420 N   0  0  0  0  0  0  0  0  0  0  0  0
   -5.2222    6.0633    1.8485 H   0  0  0  0  0  0  0  0  0  0  0  0
   -5.0128    6.9671    3.3147 H   0  0  0  0  0  0  0  0  0  0  0  0
   -0.2596   -1.0479    1.3691 C   0  0  0  0  0  0  0  0  0  0  0  0
    0.6039   -0.6911    2.1617 O   0  0  0  0  0  0  0  0  0  0  0  0
   -0.2275   -2.2212    0.7296 N   0  0  0  0  0  0  0  0  0  0  0  0
   -0.9983   -2.4484    0.1230 H   0  0  0  0  0  0  0  0  0  0  0  0
    0.8115   -3.2333    0.9272 C   0  0  0  0  0  0  0  0  0  0  0  0
    0.7781   -3.6011    1.9549 H   0  0  0  0  0  0  0  0  0  0  0  0
    0.6610   -4.0707    0.2447 H   0  0  0  0  0  0  0  0  0  0  0  0
    1.7968   -2.7968    0.7492 H   0  0  0  0  0  0  0  0  0  0  0  0
  5  6  2  0  0  0  0
  5  7  1  0  0  0  0
  2  3  1  0  0  0  0
  2  4  1  0  0  0  0
  2  5  1  0  0  0  0
  1  2  1  0  0  0  0
 29 30  2  0  0  0  0
 29 31  1  0  0  0  0
 26 27  1  0  0  0  0
 26 28  1  0  0  0  0
 23 24  1  0  0  0  0
 23 25  1  0  0  0  0
 22 23  1  0  0  0  0
 22 26  1  0  0  0  0
 20 21  1  0  0  0  0
 20 22  2  0  0  0  0
 17 18  1  0  0  0  0
 17 19  1  0  0  0  0
 17 20  1  0  0  0  0
 14 15  1  0  0  0  0
 14 16  1  0  0  0  0
 14 17  1  0  0  0  0
 11 12  1  0  0  0  0
 11 13  1  0  0  0  0
 11 14  1  0  0  0  0
  9 10  1  0  0  0  0
  9 11  1  0  0  0  0
  9 29  1  0  0  0  0
  7  8  1  0  0  0  0
  7  9  1  0  0  0  0
 33 34  1  0  0  0  0
 33 35  1  0  0  0  0
 33 36  1  0  0  0  0
 31 32  1  0  0  0  0
 31 33  1  0  0  0  0
M  CHG  1  20   1
M  END
$$$$
default_name
  -OEChem-01062215323D

 36 35  0     1  0  0  0  0  0999 V2000
   -4.2256   -3.6731    1.8584 H   0  0  0  0  0  0  0  0  0  0  0  0
   -4.2396   -2.6781    1.4144 C   0  0  0  0  0  0  0  0  0  0  0  0
   -4.9506   -2.0521    1.9514 H   0  0  0  0  0  0  0  0  0  0  0  0
   -4.5266   -2.7521    0.3674 H   0  0  0  0  0  0  0  0  0  0  0  0
   -2.8576   -2.0761    1.5184 C   0  0  0  0  0  0  0  0  0  0  0  0
   -1.9456   -2.7051    2.0404 O   0  0  0  0  0  0  0  0  0  0  0  0
   -2.6926   -0.8481    1.0174 N   0  0  0  0  0  0  0  0  0  0  0  0
   -3.4926   -0.3971    0.5954 H   0  0  0  0  0  0  0  0  0  0  0  0
   -1.4216   -0.1071    1.0434 C   0  0  1  0  0  0  0  0  0  0  0  0
   -1.2563    0.3270    0.0560 H   0  0  0  0  0  0  0  0  0  0  0  0
   -1.5431    1.0340    2.0731 C   0  0  0  0  0  0  0  0  0  0  0  0
   -1.8638    0.6100    3.0268 H   0  0  0  0  0  0  0  0  0  0  0  0
   -0.5613    1.4902    2.2179 H   0  0  0  0  0  0  0  0  0  0  0  0
   -2.5488    2.1206    1.6656 C   0  0  0  0  0  0  0  0  0  0  0  0
   -2.2440    2.5691    0.7191 H   0  0  0  0  0  0  0  0  0  0  0  0
   -3.5366    1.6732    1.5508 H   0  0  0  0  0  0  0  0  0  0  0  0
   -2.6048    3.2115    2.7437 C   0  0  0  0  0  0  0  0  0  0  0  0
   -2.8846    2.7493    3.6932 H   0  0  0  0  0  0  0  0  0  0  0  0
   -1.6099    3.6513    2.8454 H   0  0  0  0  0  0  0  0  0  0  0  0
   -3.5796    4.2685    2.4041 N   0  3  0  0  0  0  0  0  0  0  0  0
   -4.0454    4.1852    1.5168 H   0  0  0  0  0  0  0  0  0  0  0  0
   -3.8962    5.3102    3.1549 C   0  0  0  0  0  0  0  0  0  0  0  0
   -3.3525    5.5143    4.3220 N   0  0  0  0  0  0  0  0  0  0  0  0
   -2.6723    4.8569    4.6605 H   0  0  0  0  0  0  0  0  0  0  0  0
   -3.6038    6.3102    4.8790 H   0  0  0  0  0  0  0  0  0  0  0  0
   -4.7754    6.1783    2.7420 N   0  0  0  0  0  0  0  0  0  0  0  0
   -5.2222    6.0633    1.8485 H   0  0  0  0  0  0  0  0  0  0  0  0
   -5.0128    6.9671    3.3147 H   0  0  0  0  0  0  0  0  0  0  0  0
   -0.2596   -1.0479    1.3691 C   0  0  0  0  0  0  0  0  0  0  0  0
    0.4443   -0.8241    2.3466 O   0  0  0  0  0  0  0  0  0  0  0  0
   -0.0464   -2.0666    0.5303 N   0  0  0  0  0  0  0  0  0  0  0  0
   -0.6968   -2.1972   -0.2272 H   0  0  0  0  0  0  0  0  0  0  0  0
    1.0191   -3.0561    0.6981 C   0  0  0  0  0  0  0  0  0  0  0  0
    0.8544   -3.6241    1.6163 H   0  0  0  0  0  0  0  0  0  0  0  0
    1.0351   -3.7446   -0.1478 H   0  0  0  0  0  0  0  0  0  0  0  0
    1.9865   -2.5546    0.7720 H   0  0  0  0  0  0  0  0  0  0  0  0
  5  6  2  0  0  0  0
  5  7  1  0  0  0  0
  2  3  1  0  0  0  0
  2  4  1  0  0  0  0
  2  5  1  0  0  0  0
  1  2  1  0  0  0  0
 29 30  2  0  0  0  0
 29 31  1  0  0  0  0
 26 27  1  0  0  0  0
 26 28  1  0  0  0  0
 23 24  1  0  0  0  0
 23 25  1  0  0  0  0
 22 23  1  0  0  0  0
 22 26  1  0  0  0  0
 20 21  1  0  0  0  0
 20 22  2  0  0  0  0
 17 18  1  0  0  0  0
 17 19  1  0  0  0  0
 17 20  1  0  0  0  0
 14 15  1  0  0  0  0
 14 16  1  0  0  0  0
 14 17  1  0  0  0  0
 11 12  1  0  0  0  0
 11 13  1  0  0  0  0
 11 14  1  0  0  0  0
  9 10  1  0  0  0  0
  9 11  1  0  0  0  0
  9 29  1  0  0  0  0
  7  8  1  0  0  0  0
  7  9  1  0  0  0  0
 33 34  1  0  0  0  0
 33 35  1  0  0  0  0
 33 36  1  0  0  0  0
 31 32  1  0  0  0  0
 31 33  1  0  0  0  0
M  CHG  1  20   1
M  END
$$$$
default_name
  -OEChem-01062215323D

 36 35  0     1  0  0  0  0  0999 V2000
   -4.2256   -3.6731    1.8584 H   0  0  0  0  0  0  0  0  0  0  0  0
   -4.2396   -2.6781    1.4144 C   0  0  0  0  0  0  0  0  0  0  0  0
   -4.9506   -2.0521    1.9514 H   0  0  0  0  0  0  0  0  0  0  0  0
   -4.5266   -2.7521    0.3674 H   0  0  0  0  0  0  0  0  0  0  0  0
   -2.8576   -2.0761    1.5184 C   0  0  0  0  0  0  0  0  0  0  0  0
   -1.9456   -2.7051    2.0404 O   0  0  0  0  0  0  0  0  0  0  0  0
   -2.6926   -0.8481    1.0174 N   0  0  0  0  0  0  0  0  0  0  0  0
   -3.4926   -0.3971    0.5954 H   0  0  0  0  0  0  0  0  0  0  0  0
   -1.4216   -0.1071    1.0434 C   0  0  1  0  0  0  0  0  0  0  0  0
   -1.2563    0.3270    0.0560 H   0  0  0  0  0  0  0  0  0  0  0  0
   -1.5431    1.0340    2.0731 C   0  0  0  0  0  0  0  0  0  0  0  0
   -1.8638    0.6100    3.0268 H   0  0  0  0  0  0  0  0  0  0  0  0
   -0.5613    1.4902    2.2179 H   0  0  0  0  0  0  0  0  0  0  0  0
   -2.5488    2.1206    1.6656 C   0  0  0  0  0  0  0  0  0  0  0  0
   -2.2440    2.5691    0.7191 H   0  0  0  0  0  0  0  0  0  0  0  0
   -3.5366    1.6732    1.5508 H   0  0  0  0  0  0  0  0  0  0  0  0
   -2.6048    3.2115    2.7437 C   0  0  0  0  0  0  0  0  0  0  0  0
   -2.8846    2.7493    3.6932 H   0  0  0  0  0  0  0  0  0  0  0  0
   -1.6099    3.6513    2.8454 H   0  0  0  0  0  0  0  0  0  0  0  0
   -3.5796    4.2685    2.4041 N   0  3  0  0  0  0  0  0  0  0  0  0
   -4.0454    4.1852    1.5168 H   0  0  0  0  0  0  0  0  0  0  0  0
   -3.8962    5.3102    3.1549 C   0  0  0  0  0  0  0  0  0  0  0  0
   -3.3525    5.5143    4.3220 N   0  0  0  0  0  0  0  0  0  0  0  0
   -2.6723    4.8569    4.6605 H   0  0  0  0  0  0  0  0  0  0  0  0
   -3.6038    6.3102    4.8790 H   0  0  0  0  0  0  0  0  0  0  0  0
   -4.7754    6.1783    2.7420 N   0  0  0  0  0  0  0  0  0  0  0  0
   -5.2222    6.0633    1.8485 H   0  0  0  0  0  0  0  0  0  0  0  0
   -5.0128    6.9671    3.3147 H   0  0  0  0  0  0  0  0  0  0  0  0
   -0.2596   -1.0479    1.3691 C   0  0  0  0  0  0  0  0  0  0  0  0
    0.2681   -0.9978    2.4737 O   0  0  0  0  0  0  0  0  0  0  0  0
    0.1517   -1.8680    0.3970 N   0  0  0  0  0  0  0  0  0  0  0  0
   -0.3637   -1.8691   -0.4680 H   0  0  0  0  0  0  0  0  0  0  0  0
    1.2463   -2.8286    0.5447 C   0  0  0  0  0  0  0  0  0  0  0  0
    0.9833   -3.5755    1.2968 H   0  0  0  0  0  0  0  0  0  0  0  0
    1.4409   -3.3318   -0.4033 H   0  0  0  0  0  0  0  0  0  0  0  0
    2.1528   -2.3146    0.8718 H   0  0  0  0  0  0  0  0  0  0  0  0
  5  6  2  0  0  0  0
  5  7  1  0  0  0  0
  2  3  1  0  0  0  0
  2  4  1  0  0  0  0
  2  5  1  0  0  0  0
  1  2  1  0  0  0  0
 29 30  2  0  0  0  0
 29 31  1  0  0  0  0
 26 27  1  0  0  0  0
 26 28  1  0  0  0  0
 23 24  1  0  0  0  0
 23 25  1  0  0  0  0
 22 23  1  0  0  0  0
 22 26  1  0  0  0  0
 20 21  1  0  0  0  0
 20 22  2  0  0  0  0
 17 18  1  0  0  0  0
 17 19  1  0  0  0  0
 17 20  1  0  0  0  0
 14 15  1  0  0  0  0
 14 16  1  0  0  0  0
 14 17  1  0  0  0  0
 11 12  1  0  0  0  0
 11 13  1  0  0  0  0
 11 14  1  0  0  0  0
  9 10  1  0  0  0  0
  9 11  1  0  0  0  0
  9 29  1  0  0  0  0
  7  8  1  0  0  0  0
  7  9  1  0  0  0  0
 33 34  1  0  0  0  0
 33 35  1  0  0  0  0
 33 36  1  0  0  0  0
 31 32  1  0  0  0  0
 31 33  1  0  0  0  0
M  CHG  1  20   1
M  END
$$$$
default_name
  -OEChem-01062215323D

 36 35  0     1  0  0  0  0  0999 V2000
   -4.2256   -3.6731    1.8584 H   0  0  0  0  0  0  0  0  0  0  0  0
   -4.2396   -2.6781    1.4144 C   0  0  0  0  0  0  0  0  0  0  0  0
   -4.9506   -2.0521    1.9514 H   0  0  0  0  0  0  0  0  0  0  0  0
   -4.5266   -2.7521    0.3674 H   0  0  0  0  0  0  0  0  0  0  0  0
   -2.8576   -2.0761    1.5184 C   0  0  0  0  0  0  0  0  0  0  0  0
   -1.9456   -2.7051    2.0404 O   0  0  0  0  0  0  0  0  0  0  0  0
   -2.6926   -0.8481    1.0174 N   0  0  0  0  0  0  0  0  0  0  0  0
   -3.4926   -0.3971    0.5954 H   0  0  0  0  0  0  0  0  0  0  0  0
   -1.4216   -0.1071    1.0434 C   0  0  1  0  0  0  0  0  0  0  0  0
   -1.2563    0.3270    0.0560 H   0  0  0  0  0  0  0  0  0  0  0  0
   -1.5431    1.0340    2.0731 C   0  0  0  0  0  0  0  0  0  0  0  0
   -1.8638    0.6100    3.0268 H   0  0  0  0  0  0  0  0  0  0  0  0
   -0.5613    1.4902    2.2179 H   0  0  0  0  0  0  0  0  0  0  0  0
   -2.5488    2.1206    1.6656 C   0  0  0  0  0  0  0  0  0  0  0  0
   -2.2440    2.5691    0.7191 H   0  0  0  0  0  0  0  0  0  0  0  0
   -3.5366    1.6732    1.5508 H   0  0  0  0  0  0  0  0  0  0  0  0
   -2.6048    3.2115    2.7437 C   0  0  0  0  0  0  0  0  0  0  0  0
   -2.8846    2.7493    3.6932 H   0  0  0  0  0  0  0  0  0  0  0  0
   -1.6099    3.6513    2.8454 H   0  0  0  0  0  0  0  0  0  0  0  0
   -3.5796    4.2685    2.4041 N   0  3  0  0  0  0  0  0  0  0  0  0
   -4.0454    4.1852    1.5168 H   0  0  0  0  0  0  0  0  0  0  0  0
   -3.8962    5.3102    3.1549 C   0  0  0  0  0  0  0  0  0  0  0  0
   -3.3525    5.5143    4.3220 N   0  0  0  0  0  0  0  0  0  0  0  0
   -2.6723    4.8569    4.6605 H   0  0  0  0  0  0  0  0  0  0  0  0
   -3.6038    6.3102    4.8790 H   0  0  0  0  0  0  0  0  0  0  0  0
   -4.7754    6.1783    2.7420 N   0  0  0  0  0  0  0  0  0  0  0  0
   -5.2222    6.0633    1.8485 H   0  0  0  0  0  0  0  0  0  0  0  0
   -5.0128    6.9671    3.3147 H   0  0  0  0  0  0  0  0  0  0  0  0
   -0.2596   -1.0479    1.3691 C   0  0  0  0  0  0  0  0  0  0  0  0
    0.0873   -1.2002    2.5342 O   0  0  0  0  0  0  0  0  0  0  0  0
    0.3533   -1.6391    0.3388 N   0  0  0  0  0  0  0  0  0  0  0  0
   -0.0217   -1.4865   -0.5831 H   0  0  0  0  0  0  0  0  0  0  0  0
    1.4777   -2.5662    0.4774 C   0  0  0  0  0  0  0  0  0  0  0  0
    1.1559   -3.4587    1.0182 H   0  0  0  0  0  0  0  0  0  0  0  0
    1.8508   -2.8605   -0.5044 H   0  0  0  0  0  0  0  0  0  0  0  0
    2.2843   -2.0933    1.0418 H   0  0  0  0  0  0  0  0  0  0  0  0
  5  6  2  0  0  0  0
  5  7  1  0  0  0  0
  2  3  1  0  0  0  0
  2  4  1  0  0  0  0
  2  5  1  0  0  0  0
  1  2  1  0  0  0  0
 29 30  2  0  0  0  0
 29 31  1  0  0  0  0
 26 27  1  0  0  0  0
 26 28  1  0  0  0  0
 23 24  1  0  0  0  0
 23 25  1  0  0  0  0
 22 23  1  0  0  0  0
 22 26  1  0  0  0  0
 20 21  1  0  0  0  0
 20 22  2  0  0  0  0
 17 18  1  0  0  0  0
 17 19  1  0  0  0  0
 17 20  1  0  0  0  0
 14 15  1  0  0  0  0
 14 16  1  0  0  0  0
 14 17  1  0  0  0  0
 11 12  1  0  0  0  0
 11 13  1  0  0  0  0
 11 14  1  0  0  0  0
  9 10  1  0  0  0  0
  9 11  1  0  0  0  0
  9 29  1  0  0  0  0
  7  8  1  0  0  0  0
  7  9  1  0  0  0  0
 33 34  1  0  0  0  0
 33 35  1  0  0  0  0
 33 36  1  0  0  0  0
 31 32  1  0  0  0  0
 31 33  1  0  0  0  0
M  CHG  1  20   1
M  END
$$$$
default_name
  -OEChem-01062215323D

 36 35  0     1  0  0  0  0  0999 V2000
   -4.2256   -3.6731    1.8584 H   0  0  0  0  0  0  0  0  0  0  0  0
   -4.2396   -2.6781    1.4144 C   0  0  0  0  0  0  0  0  0  0  0  0
   -4.9506   -2.0521    1.9514 H   0  0  0  0  0  0  0  0  0  0  0  0
   -4.5266   -2.7521    0.3674 H   0  0  0  0  0  0  0  0  0  0  0  0
   -2.8576   -2.0761    1.5184 C   0  0  0  0  0  0  0  0  0  0  0  0
   -1.9456   -2.7051    2.0404 O   0  0  0  0  0  0  0  0  0  0  0  0
   -2.6926   -0.8481    1.0174 N   0  0  0  0  0  0  0  0  0  0  0  0
   -3.4926   -0.3971    0.5954 H   0  0  0  0  0  0  0  0  0  0  0  0
   -1.4216   -0.1071    1.0434 C   0  0  1  0  0  0  0  0  0  0  0  0
   -1.2563    0.3270    0.0560 H   0  0  0  0  0  0  0  0  0  0  0  0
   -1.5431    1.0340    2.0731 C   0  0  0  0  0  0  0  0  0  0  0  0
   -1.8638    0.6100    3.0268 H   0  0  0  0  0  0  0  0  0  0  0  0
   -0.5613    1.4902    2.2179 H   0  0  0  0  0  0  0  0  0  0  0  0
   -2.5488    2.1206    1.6656 C   0  0  0  0  0  0  0  0  0  0  0  0
   -2.2440    2.5691    0.7191 H   0  0  0  0  0  0  0  0  0  0  0  0
   -3.5366    1.6732    1.5508 H   0  0  0  0  0  0  0  0  0  0  0  0
   -2.6048    3.2115    2.7437 C   0  0  0  0  0  0  0  0  0  0  0  0
   -2.8846    2.7493    3.6932 H   0  0  0  0  0  0  0  0  0  0  0  0
   -1.6099    3.6513    2.8454 H   0  0  0  0  0  0  0  0  0  0  0  0
   -3.5796    4.2685    2.4041 N   0  3  0  0  0  0  0  0  0  0  0  0
   -4.0454    4.1852    1.5168 H   0  0  0  0  0  0  0  0  0  0  0  0
   -3.8962    5.3102    3.1549 C   0  0  0  0  0  0  0  0  0  0  0  0
   -3.3525    5.5143    4.3220 N   0  0  0  0  0  0  0  0  0  0  0  0
   -2.6723    4.8569    4.6605 H   0  0  0  0  0  0  0  0  0  0  0  0
   -3.6038    6.3102    4.8790 H   0  0  0  0  0  0  0  0  0  0  0  0
   -4.7754    6.1783    2.7420 N   0  0  0  0  0  0  0  0  0  0  0  0
   -5.2222    6.0633    1.8485 H   0  0  0  0  0  0  0  0  0  0  0  0
   -5.0128    6.9671    3.3147 H   0  0  0  0  0  0  0  0  0  0  0  0
   -0.2596   -1.0479    1.3691 C   0  0  0  0  0  0  0  0  0  0  0  0
   -0.0859   -1.4176    2.5242 O   0  0  0  0  0  0  0  0  0  0  0  0
    0.5447   -1.3955    0.3597 N   0  0  0  0  0  0  0  0  0  0  0  0
    0.3059   -1.0755   -0.5647 H   0  0  0  0  0  0  0  0  0  0  0  0
    1.6974   -2.2867    0.5008 C   0  0  0  0  0  0  0  0  0  0  0  0
    1.3606   -3.2816    0.7995 H   0  0  0  0  0  0  0  0  0  0  0  0
    2.2368   -2.3628   -0.4442 H   0  0  0  0  0  0  0  0  0  0  0  0
    2.3722   -1.9057    1.2704 H   0  0  0  0  0  0  0  0  0  0  0  0
  5  6  2  0  0  0  0
  5  7  1  0  0  0  0
  2  3  1  0  0  0  0
  2  4  1  0  0  0  0
  2  5  1  0  0  0  0
  1  2  1  0  0  0  0
 29 30  2  0  0  0  0
 29 31  1  0  0  0  0
 26 27  1  0  0  0  0
 26 28  1  0  0  0  0
 23 24  1  0  0  0  0
 23 25  1  0  0  0  0
 22 23  1  0  0  0  0
 22 26  1  0  0  0  0
 20 21  1  0  0  0  0
 20 22  2  0  0  0  0
 17 18  1  0  0  0  0
 17 19  1  0  0  0  0
 17 20  1  0  0  0  0
 14 15  1  0  0  0  0
 14 16  1  0  0  0  0
 14 17  1  0  0  0  0
 11 12  1  0  0  0  0
 11 13  1  0  0  0  0
 11 14  1  0  0  0  0
  9 10  1  0  0  0  0
  9 11  1  0  0  0  0
  9 29  1  0  0  0  0
  7  8  1  0  0  0  0
  7  9  1  0  0  0  0
 33 34  1  0  0  0  0
 33 35  1  0  0  0  0
 33 36  1  0  0  0  0
 31 32  1  0  0  0  0
 31 33  1  0  0  0  0
M  CHG  1  20   1
M  END
$$$$
default_name
  -OEChem-01062215323D

 36 35  0     1  0  0  0  0  0999 V2000
   -4.2256   -3.6731    1.8584 H   0  0  0  0  0  0  0  0  0  0  0  0
   -4.2396   -2.6781    1.4144 C   0  0  0  0  0  0  0  0  0  0  0  0
   -4.9506   -2.0521    1.9514 H   0  0  0  0  0  0  0  0  0  0  0  0
   -4.5266   -2.7521    0.3674 H   0  0  0  0  0  0  0  0  0  0  0  0
   -2.8576   -2.0761    1.5184 C   0  0  0  0  0  0  0  0  0  0  0  0
   -1.9456   -2.7051    2.0404 O   0  0  0  0  0  0  0  0  0  0  0  0
   -2.6926   -0.8481    1.0174 N   0  0  0  0  0  0  0  0  0  0  0  0
   -3.4926   -0.3971    0.5954 H   0  0  0  0  0  0  0  0  0  0  0  0
   -1.4216   -0.1071    1.0434 C   0  0  1  0  0  0  0  0  0  0  0  0
   -1.2563    0.3270    0.0560 H   0  0  0  0  0  0  0  0  0  0  0  0
   -1.5431    1.0340    2.0731 C   0  0  0  0  0  0  0  0  0  0  0  0
   -1.8638    0.6100    3.0268 H   0  0  0  0  0  0  0  0  0  0  0  0
   -0.5613    1.4902    2.2179 H   0  0  0  0  0  0  0  0  0  0  0  0
   -2.5488    2.1206    1.6656 C   0  0  0  0  0  0  0  0  0  0  0  0
   -2.2440    2.5691    0.7191 H   0  0  0  0  0  0  0  0  0  0  0  0
   -3.5366    1.6732    1.5508 H   0  0  0  0  0  0  0  0  0  0  0  0
   -2.6048    3.2115    2.7437 C   0  0  0  0  0  0  0  0  0  0  0  0
   -2.8846    2.7493    3.6932 H   0  0  0  0  0  0  0  0  0  0  0  0
   -1.6099    3.6513    2.8454 H   0  0  0  0  0  0  0  0  0  0  0  0
   -3.5796    4.2685    2.4041 N   0  3  0  0  0  0  0  0  0  0  0  0
   -4.0454    4.1852    1.5168 H   0  0  0  0  0  0  0  0  0  0  0  0
   -3.8962    5.3102    3.1549 C   0  0  0  0  0  0  0  0  0  0  0  0
   -3.3525    5.5143    4.3220 N   0  0  0  0  0  0  0  0  0  0  0  0
   -2.6723    4.8569    4.6605 H   0  0  0  0  0  0  0  0  0  0  0  0
   -3.6038    6.3102    4.8790 H   0  0  0  0  0  0  0  0  0  0  0  0
   -4.7754    6.1783    2.7420 N   0  0  0  0  0  0  0  0  0  0  0  0
   -5.2222    6.0633    1.8485 H   0  0  0  0  0  0  0  0  0  0  0  0
   -5.0128    6.9671    3.3147 H   0  0  0  0  0  0  0  0  0  0  0  0
   -0.2596   -1.0479    1.3691 C   0  0  0  0  0  0  0  0  0  0  0  0
   -0.2396   -1.6351    2.4442 O   0  0  0  0  0  0  0  0  0  0  0  0
    0.7129   -1.1537    0.4582 N   0  0  0  0  0  0  0  0  0  0  0  0
    0.5968   -0.6640   -0.4140 H   0  0  0  0  0  0  0  0  0  0  0  0
    1.8905   -2.0092    0.6132 C   0  0  0  0  0  0  0  0  0  0  0  0
    1.5833   -3.0563    0.6557 H   0  0  0  0  0  0  0  0  0  0  0  0
    2.5727   -1.8726   -0.2268 H   0  0  0  0  0  0  0  0  0  0  0  0
    2.4103   -1.7645    1.5422 H   0  0  0  0  0  0  0  0  0  0  0  0
  5  6  2  0  0  0  0
  5  7  1  0  0  0  0
  2  3  1  0  0  0  0
  2  4  1  0  0  0  0
  2  5  1  0  0  0  0
  1  2  1  0  0  0  0
 29 30  2  0  0  0  0
 29 31  1  0  0  0  0
 26 27  1  0  0  0  0
 26 28  1  0  0  0  0
 23 24  1  0  0  0  0
 23 25  1  0  0  0  0
 22 23  1  0  0  0  0
 22 26  1  0  0  0  0
 20 21  1  0  0  0  0
 20 22  2  0  0  0  0
 17 18  1  0  0  0  0
 17 19  1  0  0  0  0
 17 20  1  0  0  0  0
 14 15  1  0  0  0  0
 14 16  1  0  0  0  0
 14 17  1  0  0  0  0
 11 12  1  0  0  0  0
 11 13  1  0  0  0  0
 11 14  1  0  0  0  0
  9 10  1  0  0  0  0
  9 11  1  0  0  0  0
  9 29  1  0  0  0  0
  7  8  1  0  0  0  0
  7  9  1  0  0  0  0
 33 34  1  0  0  0  0
 33 35  1  0  0  0  0
 33 36  1  0  0  0  0
 31 32  1  0  0  0  0
 31 33  1  0  0  0  0
M  CHG  1  20   1
M  END
$$$$
default_name
  -OEChem-01062215323D

 36 35  0     1  0  0  0  0  0999 V2000
   -4.2256   -3.6731    1.8584 H   0  0  0  0  0  0  0  0  0  0  0  0
   -4.2396   -2.6781    1.4144 C   0  0  0  0  0  0  0  0  0  0  0  0
   -4.9506   -2.0521    1.9514 H   0  0  0  0  0  0  0  0  0  0  0  0
   -4.5266   -2.7521    0.3674 H   0  0  0  0  0  0  0  0  0  0  0  0
   -2.8576   -2.0761    1.5184 C   0  0  0  0  0  0  0  0  0  0  0  0
   -1.9456   -2.7051    2.0404 O   0  0  0  0  0  0  0  0  0  0  0  0
   -2.6926   -0.8481    1.0174 N   0  0  0  0  0  0  0  0  0  0  0  0
   -3.4926   -0.3971    0.5954 H   0  0  0  0  0  0  0  0  0  0  0  0
   -1.4216   -0.1071    1.0434 C   0  0  1  0  0  0  0  0  0  0  0  0
   -1.2563    0.3270    0.0560 H   0  0  0  0  0  0  0  0  0  0  0  0
   -1.5431    1.0340    2.0731 C   0  0  0  0  0  0  0  0  0  0  0  0
   -1.8638    0.6100    3.0268 H   0  0  0  0  0  0  0  0  0  0  0  0
   -0.5613    1.4902    2.2179 H   0  0  0  0  0  0  0  0  0  0  0  0
   -2.5488    2.1206    1.6656 C   0  0  0  0  0  0  0  0  0  0  0  0
   -2.2440    2.5691    0.7191 H   0  0  0  0  0  0  0  0  0  0  0  0
   -3.5366    1.6732    1.5508 H   0  0  0  0  0  0  0  0  0  0  0  0
   -2.6048    3.2115    2.7437 C   0  0  0  0  0  0  0  0  0  0  0  0
   -2.8846    2.7493    3.6932 H   0  0  0  0  0  0  0  0  0  0  0  0
   -1.6099    3.6513    2.8454 H   0  0  0  0  0  0  0  0  0  0  0  0
   -3.5796    4.2685    2.4041 N   0  3  0  0  0  0  0  0  0  0  0  0
   -4.0454    4.1852    1.5168 H   0  0  0  0  0  0  0  0  0  0  0  0
   -3.8962    5.3102    3.1549 C   0  0  0  0  0  0  0  0  0  0  0  0
   -3.3525    5.5143    4.3220 N   0  0  0  0  0  0  0  0  0  0  0  0
   -2.6723    4.8569    4.6605 H   0  0  0  0  0  0  0  0  0  0  0  0
   -3.6038    6.3102    4.8790 H   0  0  0  0  0  0  0  0  0  0  0  0
   -4.7754    6.1783    2.7420 N   0  0  0  0  0  0  0  0  0  0  0  0
   -5.2222    6.0633    1.8485 H   0  0  0  0  0  0  0  0  0  0  0  0
   -5.0128    6.9671    3.3147 H   0  0  0  0  0  0  0  0  0  0  0  0
   -0.2596   -1.0479    1.3691 C   0  0  0  0  0  0  0  0  0  0  0  0
   -0.3633   -1.8380    2.2997 O   0  0  0  0  0  0  0  0  0  0  0  0
    0.8463   -0.9303    0.6276 N   0  0  0  0  0  0  0  0  0  0  0  0
    0.8311   -0.2802   -0.1412 H   0  0  0  0  0  0  0  0  0  0  0  0
    2.0439   -1.7527    0.8071 C   0  0  0  0  0  0  0  0  0  0  0  0
    1.8089   -2.7982    0.5965 H   0  0  0  0  0  0  0  0  0  0  0  0
    2.8356   -1.4234    0.1330 H   0  0  0  0  0  0  0  0  0  0  0  0
    2.3960   -1.6795    1.8384 H   0  0  0  0  0  0  0  0  0  0  0  0
  5  6  2  0  0  0  0
  5  7  1  0  0  0  0
  2  3  1  0  0  0  0
  2  4  1  0  0  0  0
  2  5  1  0  0  0  0
  1  2  1  0  0  0  0
 29 30  2  0  0  0  0
 29 31  1  0  0  0  0
 26 27  1  0  0  0  0
 26 28  1  0  0  0  0
 23 24  1  0  0  0  0
 23 25  1  0  0  0  0
 22 23  1  0  0  0  0
 22 26  1  0  0  0  0
 20 21  1  0  0  0  0
 20 22  2  0  0  0  0
 17 18  1  0  0  0  0
 17 19  1  0  0  0  0
 17 20  1  0  0  0  0
 14 15  1  0  0  0  0
 14 16  1  0  0  0  0
 14 17  1  0  0  0  0
 11 12  1  0  0  0  0
 11 13  1  0  0  0  0
 11 14  1  0  0  0  0
  9 10  1  0  0  0  0
  9 11  1  0  0  0  0
  9 29  1  0  0  0  0
  7  8  1  0  0  0  0
  7  9  1  0  0  0  0
 33 34  1  0  0  0  0
 33 35  1  0  0  0  0
 33 36  1  0  0  0  0
 31 32  1  0  0  0  0
 31 33  1  0  0  0  0
M  CHG  1  20   1
M  END
$$$$
default_name
  -OEChem-01062215323D

 36 35  0     1  0  0  0  0  0999 V2000
   -4.2256   -3.6731    1.8584 H   0  0  0  0  0  0  0  0  0  0  0  0
   -4.2396   -2.6781    1.4144 C   0  0  0  0  0  0  0  0  0  0  0  0
   -4.9506   -2.0521    1.9514 H   0  0  0  0  0  0  0  0  0  0  0  0
   -4.5266   -2.7521    0.3674 H   0  0  0  0  0  0  0  0  0  0  0  0
   -2.8576   -2.0761    1.5184 C   0  0  0  0  0  0  0  0  0  0  0  0
   -1.9456   -2.7051    2.0404 O   0  0  0  0  0  0  0  0  0  0  0  0
   -2.6926   -0.8481    1.0174 N   0  0  0  0  0  0  0  0  0  0  0  0
   -3.4926   -0.3971    0.5954 H   0  0  0  0  0  0  0  0  0  0  0  0
   -1.4216   -0.1071    1.0434 C   0  0  1  0  0  0  0  0  0  0  0  0
   -1.2563    0.3270    0.0560 H   0  0  0  0  0  0  0  0  0  0  0  0
   -1.5431    1.0340    2.0731 C   0  0  0  0  0  0  0  0  0  0  0  0
   -1.8638    0.6100    3.0268 H   0  0  0  0  0  0  0  0  0  0  0  0
   -0.5613    1.4902    2.2179 H   0  0  0  0  0  0  0  0  0  0  0  0
   -2.5488    2.1206    1.6656 C   0  0  0  0  0  0  0  0  0  0  0  0
   -2.2440    2.5691    0.7191 H   0  0  0  0  0  0  0  0  0  0  0  0
   -3.5366    1.6732    1.5508 H   0  0  0  0  0  0  0  0  0  0  0  0
   -2.6048    3.2115    2.7437 C   0  0  0  0  0  0  0  0  0  0  0  0
   -2.8846    2.7493    3.6932 H   0  0  0  0  0  0  0  0  0  0  0  0
   -1.6099    3.6513    2.8454 H   0  0  0  0  0  0  0  0  0  0  0  0
   -3.5796    4.2685    2.4041 N   0  3  0  0  0  0  0  0  0  0  0  0
   -4.0454    4.1852    1.5168 H   0  0  0  0  0  0  0  0  0  0  0  0
   -3.8962    5.3102    3.1549 C   0  0  0  0  0  0  0  0  0  0  0  0
   -3.3525    5.5143    4.3220 N   0  0  0  0  0  0  0  0  0  0  0  0
   -2.6723    4.8569    4.6605 H   0  0  0  0  0  0  0  0  0  0  0  0
   -3.6038    6.3102    4.8790 H   0  0  0  0  0  0  0  0  0  0  0  0
   -4.7754    6.1783    2.7420 N   0  0  0  0  0  0  0  0  0  0  0  0
   -5.2222    6.0633    1.8485 H   0  0  0  0  0  0  0  0  0  0  0  0
   -5.0128    6.9671    3.3147 H   0  0  0  0  0  0  0  0  0  0  0  0
   -0.2596   -1.0479    1.3691 C   0  0  0  0  0  0  0  0  0  0  0  0
   -0.4487   -2.0123    2.1006 O   0  0  0  0  0  0  0  0  0  0  0  0
    0.9359   -0.7404    0.8563 N   0  0  0  0  0  0  0  0  0  0  0  0
    0.9929    0.0499    0.2349 H   0  0  0  0  0  0  0  0  0  0  0  0
    2.1470   -1.5345    1.0693 C   0  0  0  0  0  0  0  0  0  0  0  0
    2.0220   -2.5247    0.6260 H   0  0  0  0  0  0  0  0  0  0  0  0
    3.0075   -1.0457    0.6106 H   0  0  0  0  0  0  0  0  0  0  0  0
    2.3305   -1.6564    2.1390 H   0  0  0  0  0  0  0  0  0  0  0  0
  5  6  2  0  0  0  0
  5  7  1  0  0  0  0
  2  3  1  0  0  0  0
  2  4  1  0  0  0  0
  2  5  1  0  0  0  0
  1  2  1  0  0  0  0
 29 30  2  0  0  0  0
 29 31  1  0  0  0  0
 26 27  1  0  0  0  0
 26 28  1  0  0  0  0
 23 24  1  0  0  0  0
 23 25  1  0  0  0  0
 22 23  1  0  0  0  0
 22 26  1  0  0  0  0
 20 21  1  0  0  0  0
 20 22  2  0  0  0  0
 17 18  1  0  0  0  0
 17 19  1  0  0  0  0
 17 20  1  0  0  0  0
 14 15  1  0  0  0  0
 14 16  1  0  0  0  0
 14 17  1  0  0  0  0
 11 12  1  0  0  0  0
 11 13  1  0  0  0  0
 11 14  1  0  0  0  0
  9 10  1  0  0  0  0
  9 11  1  0  0  0  0
  9 29  1  0  0  0  0
  7  8  1  0  0  0  0
  7  9  1  0  0  0  0
 33 34  1  0  0  0  0
 33 35  1  0  0  0  0
 33 36  1  0  0  0  0
 31 32  1  0  0  0  0
 31 33  1  0  0  0  0
M  CHG  1  20   1
M  END
$$$$
default_name
  -OEChem-01062215323D

 36 35  0     1  0  0  0  0  0999 V2000
   -4.2256   -3.6731    1.8584 H   0  0  0  0  0  0  0  0  0  0  0  0
   -4.2396   -2.6781    1.4144 C   0  0  0  0  0  0  0  0  0  0  0  0
   -4.9506   -2.0521    1.9514 H   0  0  0  0  0  0  0  0  0  0  0  0
   -4.5266   -2.7521    0.3674 H   0  0  0  0  0  0  0  0  0  0  0  0
   -2.8576   -2.0761    1.5184 C   0  0  0  0  0  0  0  0  0  0  0  0
   -1.9456   -2.7051    2.0404 O   0  0  0  0  0  0  0  0  0  0  0  0
   -2.6926   -0.8481    1.0174 N   0  0  0  0  0  0  0  0  0  0  0  0
   -3.4926   -0.3971    0.5954 H   0  0  0  0  0  0  0  0  0  0  0  0
   -1.4216   -0.1071    1.0434 C   0  0  1  0  0  0  0  0  0  0  0  0
   -1.2563    0.3270    0.0560 H   0  0  0  0  0  0  0  0  0  0  0  0
   -1.5431    1.0340    2.0731 C   0  0  0  0  0  0  0  0  0  0  0  0
   -1.8638    0.6100    3.0268 H   0  0  0  0  0  0  0  0  0  0  0  0
   -0.5613    1.4902    2.2179 H   0  0  0  0  0  0  0  0  0  0  0  0
   -2.5488    2.1206    1.6656 C   0  0  0  0  0  0  0  0  0  0  0  0
   -2.2440    2.5691    0.7191 H   0  0  0  0  0  0  0  0  0  0  0  0
   -3.5366    1.6732    1.5508 H   0  0  0  0  0  0  0  0  0  0  0  0
   -2.6048    3.2115    2.7437 C   0  0  0  0  0  0  0  0  0  0  0  0
   -2.8846    2.7493    3.6932 H   0  0  0  0  0  0  0  0  0  0  0  0
   -1.6099    3.6513    2.8454 H   0  0  0  0  0  0  0  0  0  0  0  0
   -3.5796    4.2685    2.4041 N   0  3  0  0  0  0  0  0  0  0  0  0
   -4.0454    4.1852    1.5168 H   0  0  0  0  0  0  0  0  0  0  0  0
   -3.8962    5.3102    3.1549 C   0  0  0  0  0  0  0  0  0  0  0  0
   -3.3525    5.5143    4.3220 N   0  0  0  0  0  0  0  0  0  0  0  0
   -2.6723    4.8569    4.6605 H   0  0  0  0  0  0  0  0  0  0  0  0
   -3.6038    6.3102    4.8790 H   0  0  0  0  0  0  0  0  0  0  0  0
   -4.7754    6.1783    2.7420 N   0  0  0  0  0  0  0  0  0  0  0  0
   -5.2222    6.0633    1.8485 H   0  0  0  0  0  0  0  0  0  0  0  0
   -5.0128    6.9671    3.3147 H   0  0  0  0  0  0  0  0  0  0  0  0
   -0.2596   -1.0479    1.3691 C   0  0  0  0  0  0  0  0  0  0  0  0
   -0.4899   -2.1463    1.8604 O   0  0  0  0  0  0  0  0  0  0  0  0
    0.9756   -0.5970    1.1289 N   0  0  0  0  0  0  0  0  0  0  0  0
    1.0711    0.3037    0.6889 H   0  0  0  0  0  0  0  0  0  0  0  0
    2.1929   -1.3696    1.3817 C   0  0  0  0  0  0  0  0  0  0  0  0
    2.2081   -2.2547    0.7421 H   0  0  0  0  0  0  0  0  0  0  0  0
    3.0768   -0.7653    1.1736 H   0  0  0  0  0  0  0  0  0  0  0  0
    2.2181   -1.6968    2.4235 H   0  0  0  0  0  0  0  0  0  0  0  0
  5  6  2  0  0  0  0
  5  7  1  0  0  0  0
  2  3  1  0  0  0  0
  2  4  1  0  0  0  0
  2  5  1  0  0  0  0
  1  2  1  0  0  0  0
 29 30  2  0  0  0  0
 29 31  1  0  0  0  0
 26 27  1  0  0  0  0
 26 28  1  0  0  0  0
 23 24  1  0  0  0  0
 23 25  1  0  0  0  0
 22 23  1  0  0  0  0
 22 26  1  0  0  0  0
 20 21  1  0  0  0  0
 20 22  2  0  0  0  0
 17 18  1  0  0  0  0
 17 19  1  0  0  0  0
 17 20  1  0  0  0  0
 14 15  1  0  0  0  0
 14 16  1  0  0  0  0
 14 17  1  0  0  0  0
 11 12  1  0  0  0  0
 11 13  1  0  0  0  0
 11 14  1  0  0  0  0
  9 10  1  0  0  0  0
  9 11  1  0  0  0  0
  9 29  1  0  0  0  0
  7  8  1  0  0  0  0
  7  9  1  0  0  0  0
 33 34  1  0  0  0  0
 33 35  1  0  0  0  0
 33 36  1  0  0  0  0
 31 32  1  0  0  0  0
 31 33  1  0  0  0  0
M  CHG  1  20   1
M  END
$$$$
default_name
  -OEChem-01062215323D

 36 35  0     1  0  0  0  0  0999 V2000
   -4.2256   -3.6731    1.8584 H   0  0  0  0  0  0  0  0  0  0  0  0
   -4.2396   -2.6781    1.4144 C   0  0  0  0  0  0  0  0  0  0  0  0
   -4.9506   -2.0521    1.9514 H   0  0  0  0  0  0  0  0  0  0  0  0
   -4.5266   -2.7521    0.3674 H   0  0  0  0  0  0  0  0  0  0  0  0
   -2.8576   -2.0761    1.5184 C   0  0  0  0  0  0  0  0  0  0  0  0
   -1.9456   -2.7051    2.0404 O   0  0  0  0  0  0  0  0  0  0  0  0
   -2.6926   -0.8481    1.0174 N   0  0  0  0  0  0  0  0  0  0  0  0
   -3.4926   -0.3971    0.5954 H   0  0  0  0  0  0  0  0  0  0  0  0
   -1.4216   -0.1071    1.0434 C   0  0  1  0  0  0  0  0  0  0  0  0
   -1.3825    0.5396    0.1654 H   0  0  0  0  0  0  0  0  0  0  0  0
   -1.3956    0.7727    2.3093 C   0  0  0  0  0  0  0  0  0  0  0  0
   -1.5931    0.1404    3.1772 H   0  0  0  0  0  0  0  0  0  0  0  0
   -0.3987    1.2040    2.4238 H   0  0  0  0  0  0  0  0  0  0  0  0
   -2.4348    1.9032    2.2895 C   0  0  0  0  0  0  0  0  0  0  0  0
   -2.2519    2.5575    1.4360 H   0  0  0  0  0  0  0  0  0  0  0  0
   -3.4336    1.4736    2.2066 H   0  0  0  0  0  0  0  0  0  0  0  0
   -2.3381    2.7245    3.5824 C   0  0  0  0  0  0  0  0  0  0  0  0
   -2.4959    2.0567    4.4323 H   0  0  0  0  0  0  0  0  0  0  0  0
   -1.3340    3.1498    3.6498 H   0  0  0  0  0  0  0  0  0  0  0  0
   -3.3380    3.8116    3.6175 N   0  3  0  0  0  0  0  0  0  0  0  0
   -3.9168    3.9195    2.8022 H   0  0  0  0  0  0  0  0  0  0  0  0
   -3.5430    4.6530    4.6170 C   0  0  0  0  0  0  0  0  0  0  0  0
   -2.8492    4.6019    5.7194 N   0  0  0  0  0  0  0  0  0  0  0  0
   -2.1373    3.8989    5.8109 H   0  0  0  0  0  0  0  0  0  0  0  0
   -3.0173    5.2483    6.4683 H   0  0  0  0  0  0  0  0  0  0  0  0
   -4.4598    5.5742    4.5266 N   0  0  0  0  0  0  0  0  0  0  0  0
   -5.0207    5.6529    3.6958 H   0  0  0  0  0  0  0  0  0  0  0  0
   -4.6120    6.2104    5.2872 H   0  0  0  0  0  0  0  0  0  0  0  0
   -0.2367   -1.0741    0.9966 C   0  0  0  0  0  0  0  0  0  0  0  0
   -0.4417   -2.2819    0.9796 O   0  0  0  0  0  0  0  0  0  0  0  0
    0.9881   -0.5389    1.0140 N   0  0  0  0  0  0  0  0  0  0  0  0
    1.0640    0.4648    0.9903 H   0  0  0  0  0  0  0  0  0  0  0  0
    2.2244   -1.3217    0.9726 C   0  0  0  0  0  0  0  0  0  0  0  0
    2.2884   -1.8610    0.0252 H   0  0  0  0  0  0  0  0  0  0  0  0
    3.0918   -0.6674    1.0687 H   0  0  0  0  0  0  0  0  0  0  0  0
    2.2321   -2.0510    1.7856 H   0  0  0  0  0  0  0  0  0  0  0  0
  5  6  2  0  0  0  0
  5  7  1  0  0  0  0
  2  3  1  0  0  0  0
  2  4  1  0  0  0  0
  2  5  1  0  0  0  0
  1  2  1  0  0  0  0
 29 30  2  0  0  0  0
 29 31  1  0  0  0  0
 26 27  1  0  0  0  0
 26 28  1  0  0  0  0
 23 24  1  0  0  0  0
 23 25  1  0  0  0  0
 22 23  1  0  0  0  0
 22 26  1  0  0  0  0
 20 21  1  0  0  0  0
 20 22  2  0  0  0  0
 17 18  1  0  0  0  0
 17 19  1  0  0  0  0
 17 20  1  0  0  0  0
 14 15  1  0  0  0  0
 14 16  1  0  0  0  0
 14 17  1  0  0  0  0
 11 12  1  0  0  0  0
 11 13  1  0  0  0  0
 11 14  1  0  0  0  0
  9 10  1  0  0  0  0
  9 11  1  0  0  0  0
  9 29  1  0  0  0  0
  7  8  1  0  0  0  0
  7  9  1  0  0  0  0
 33 34  1  0  0  0  0
 33 35  1  0  0  0  0
 33 36  1  0  0  0  0
 31 32  1  0  0  0  0
 31 33  1  0  0  0  0
M  CHG  1  20   1
M  END
$$$$
default_name
  -OEChem-01062215323D

 36 35  0     1  0  0  0  0  0999 V2000
   -4.2256   -3.6731    1.8584 H   0  0  0  0  0  0  0  0  0  0  0  0
   -4.2396   -2.6781    1.4144 C   0  0  0  0  0  0  0  0  0  0  0  0
   -4.9506   -2.0521    1.9514 H   0  0  0  0  0  0  0  0  0  0  0  0
   -4.5266   -2.7521    0.3674 H   0  0  0  0  0  0  0  0  0  0  0  0
   -2.8576   -2.0761    1.5184 C   0  0  0  0  0  0  0  0  0  0  0  0
   -1.9456   -2.7051    2.0404 O   0  0  0  0  0  0  0  0  0  0  0  0
   -2.6926   -0.8481    1.0174 N   0  0  0  0  0  0  0  0  0  0  0  0
   -3.4926   -0.3971    0.5954 H   0  0  0  0  0  0  0  0  0  0  0  0
   -1.4216   -0.1071    1.0434 C   0  0  1  0  0  0  0  0  0  0  0  0
   -1.3825    0.5396    0.1654 H   0  0  0  0  0  0  0  0  0  0  0  0
   -1.3956    0.7727    2.3093 C   0  0  0  0  0  0  0  0  0  0  0  0
   -1.5931    0.1404    3.1772 H   0  0  0  0  0  0  0  0  0  0  0  0
   -0.3987    1.2040    2.4238 H   0  0  0  0  0  0  0  0  0  0  0  0
   -2.4348    1.9032    2.2895 C   0  0  0  0  0  0  0  0  0  0  0  0
   -2.2519    2.5575    1.4360 H   0  0  0  0  0  0  0  0  0  0  0  0
   -3.4336    1.4736    2.2066 H   0  0  0  0  0  0  0  0  0  0  0  0
   -2.3381    2.7245    3.5824 C   0  0  0  0  0  0  0  0  0  0  0  0
   -2.4959    2.0567    4.4323 H   0  0  0  0  0  0  0  0  0  0  0  0
   -1.3340    3.1498    3.6498 H   0  0  0  0  0  0  0  0  0  0  0  0
   -3.3380    3.8116    3.6175 N   0  3  0  0  0  0  0  0  0  0  0  0
   -3.9168    3.9195    2.8022 H   0  0  0  0  0  0  0  0  0  0  0  0
   -3.5430    4.6530    4.6170 C   0  0  0  0  0  0  0  0  0  0  0  0
   -2.8492    4.6019    5.7194 N   0  0  0  0  0  0  0  0  0  0  0  0
   -2.1373    3.8989    5.8109 H   0  0  0  0  0  0  0  0  0  0  0  0
   -3.0173    5.2483    6.4683 H   0  0  0  0  0  0  0  0  0  0  0  0
   -4.4598    5.5742    4.5266 N   0  0  0  0  0  0  0  0  0  0  0  0
   -5.0207    5.6529    3.6958 H   0  0  0  0  0  0  0  0  0  0  0  0
   -4.6120    6.2104    5.2872 H   0  0  0  0  0  0  0  0  0  0  0  0
   -0.2367   -1.0741    0.9966 C   0  0  0  0  0  0  0  0  0  0  0  0
   -0.4255   -2.2487    0.7039 O   0  0  0  0  0  0  0  0  0  0  0  0
    0.9638   -0.5835    1.3203 N   0  0  0  0  0  0  0  0  0  0  0  0
    1.0338    0.4026    1.5117 H   0  0  0  0  0  0  0  0  0  0  0  0
    2.1969   -1.3724    1.3242 C   0  0  0  0  0  0  0  0  0  0  0  0
    2.4206   -1.7130    0.3110 H   0  0  0  0  0  0  0  0  0  0  0  0
    3.0310   -0.7720    1.6897 H   0  0  0  0  0  0  0  0  0  0  0  0
    2.0773   -2.2493    1.9641 H   0  0  0  0  0  0  0  0  0  0  0  0
  5  6  2  0  0  0  0
  5  7  1  0  0  0  0
  2  3  1  0  0  0  0
  2  4  1  0  0  0  0
  2  5  1  0  0  0  0
  1  2  1  0  0  0  0
 29 30  2  0  0  0  0
 29 31  1  0  0  0  0
 26 27  1  0  0  0  0
 26 28  1  0  0  0  0
 23 24  1  0  0  0  0
 23 25  1  0  0  0  0
 22 23  1  0  0  0  0
 22 26  1  0  0  0  0
 20 21  1  0  0  0  0
 20 22  2  0  0  0  0
 17 18  1  0  0  0  0
 17 19  1  0  0  0  0
 17 20  1  0  0  0  0
 14 15  1  0  0  0  0
 14 16  1  0  0  0  0
 14 17  1  0  0  0  0
 11 12  1  0  0  0  0
 11 13  1  0  0  0  0
 11 14  1  0  0  0  0
  9 10  1  0  0  0  0
  9 11  1  0  0  0  0
  9 29  1  0  0  0  0
  7  8  1  0  0  0  0
  7  9  1  0  0  0  0
 33 34  1  0  0  0  0
 33 35  1  0  0  0  0
 33 36  1  0  0  0  0
 31 32  1  0  0  0  0
 31 33  1  0  0  0  0
M  CHG  1  20   1
M  END
$$$$
default_name
  -OEChem-01062215323D

 36 35  0     1  0  0  0  0  0999 V2000
   -4.2256   -3.6731    1.8584 H   0  0  0  0  0  0  0  0  0  0  0  0
   -4.2396   -2.6781    1.4144 C   0  0  0  0  0  0  0  0  0  0  0  0
   -4.9506   -2.0521    1.9514 H   0  0  0  0  0  0  0  0  0  0  0  0
   -4.5266   -2.7521    0.3674 H   0  0  0  0  0  0  0  0  0  0  0  0
   -2.8576   -2.0761    1.5184 C   0  0  0  0  0  0  0  0  0  0  0  0
   -1.9456   -2.7051    2.0404 O   0  0  0  0  0  0  0  0  0  0  0  0
   -2.6926   -0.8481    1.0174 N   0  0  0  0  0  0  0  0  0  0  0  0
   -3.4926   -0.3971    0.5954 H   0  0  0  0  0  0  0  0  0  0  0  0
   -1.4216   -0.1071    1.0434 C   0  0  1  0  0  0  0  0  0  0  0  0
   -1.3825    0.5396    0.1654 H   0  0  0  0  0  0  0  0  0  0  0  0
   -1.3956    0.7727    2.3093 C   0  0  0  0  0  0  0  0  0  0  0  0
   -1.5931    0.1404    3.1772 H   0  0  0  0  0  0  0  0  0  0  0  0
   -0.3987    1.2040    2.4238 H   0  0  0  0  0  0  0  0  0  0  0  0
   -2.4348    1.9032    2.2895 C   0  0  0  0  0  0  0  0  0  0  0  0
   -2.2519    2.5575    1.4360 H   0  0  0  0  0  0  0  0  0  0  0  0
   -3.4336    1.4736    2.2066 H   0  0  0  0  0  0  0  0  0  0  0  0
   -2.3381    2.7245    3.5824 C   0  0  0  0  0  0  0  0  0  0  0  0
   -2.4959    2.0567    4.4323 H   0  0  0  0  0  0  0  0  0  0  0  0
   -1.3340    3.1498    3.6498 H   0  0  0  0  0  0  0  0  0  0  0  0
   -3.3380    3.8116    3.6175 N   0  3  0  0  0  0  0  0  0  0  0  0
   -3.9168    3.9195    2.8022 H   0  0  0  0  0  0  0  0  0  0  0  0
   -3.5430    4.6530    4.6170 C   0  0  0  0  0  0  0  0  0  0  0  0
   -2.8492    4.6019    5.7194 N   0  0  0  0  0  0  0  0  0  0  0  0
   -2.1373    3.8989    5.8109 H   0  0  0  0  0  0  0  0  0  0  0  0
   -3.0173    5.2483    6.4683 H   0  0  0  0  0  0  0  0  0  0  0  0
   -4.4598    5.5742    4.5266 N   0  0  0  0  0  0  0  0  0  0  0  0
   -5.0207    5.6529    3.6958 H   0  0  0  0  0  0  0  0  0  0  0  0
   -4.6120    6.2104    5.2872 H   0  0  0  0  0  0  0  0  0  0  0  0
   -0.2367   -1.0741    0.9966 C   0  0  0  0  0  0  0  0  0  0  0  0
   -0.3645   -2.1616    0.4469 O   0  0  0  0  0  0  0  0  0  0  0  0
    0.8899   -0.6877    1.6033 N   0  0  0  0  0  0  0  0  0  0  0  0
    0.9189    0.2382    1.9979 H   0  0  0  0  0  0  0  0  0  0  0  0
    2.1125   -1.4916    1.6492 C   0  0  0  0  0  0  0  0  0  0  0  0
    2.5026   -1.6284    0.6383 H   0  0  0  0  0  0  0  0  0  0  0  0
    2.8698   -0.9971    2.2587 H   0  0  0  0  0  0  0  0  0  0  0  0
    1.8969   -2.4755    2.0715 H   0  0  0  0  0  0  0  0  0  0  0  0
  5  6  2  0  0  0  0
  5  7  1  0  0  0  0
  2  3  1  0  0  0  0
  2  4  1  0  0  0  0
  2  5  1  0  0  0  0
  1  2  1  0  0  0  0
 29 30  2  0  0  0  0
 29 31  1  0  0  0  0
 26 27  1  0  0  0  0
 26 28  1  0  0  0  0
 23 24  1  0  0  0  0
 23 25  1  0  0  0  0
 22 23  1  0  0  0  0
 22 26  1  0  0  0  0
 20 21  1  0  0  0  0
 20 22  2  0  0  0  0
 17 18  1  0  0  0  0
 17 19  1  0  0  0  0
 17 20  1  0  0  0  0
 14 15  1  0  0  0  0
 14 16  1  0  0  0  0
 14 17  1  0  0  0  0
 11 12  1  0  0  0  0
 11 13  1  0  0  0  0
 11 14  1  0  0  0  0
  9 10  1  0  0  0  0
  9 11  1  0  0  0  0
  9 29  1  0  0  0  0
  7  8  1  0  0  0  0
  7  9  1  0  0  0  0
 33 34  1  0  0  0  0
 33 35  1  0  0  0  0
 33 36  1  0  0  0  0
 31 32  1  0  0  0  0
 31 33  1  0  0  0  0
M  CHG  1  20   1
M  END
$$$$
default_name
  -OEChem-01062215323D

 36 35  0     1  0  0  0  0  0999 V2000
   -4.2256   -3.6731    1.8584 H   0  0  0  0  0  0  0  0  0  0  0  0
   -4.2396   -2.6781    1.4144 C   0  0  0  0  0  0  0  0  0  0  0  0
   -4.9506   -2.0521    1.9514 H   0  0  0  0  0  0  0  0  0  0  0  0
   -4.5266   -2.7521    0.3674 H   0  0  0  0  0  0  0  0  0  0  0  0
   -2.8576   -2.0761    1.5184 C   0  0  0  0  0  0  0  0  0  0  0  0
   -1.9456   -2.7051    2.0404 O   0  0  0  0  0  0  0  0  0  0  0  0
   -2.6926   -0.8481    1.0174 N   0  0  0  0  0  0  0  0  0  0  0  0
   -3.4926   -0.3971    0.5954 H   0  0  0  0  0  0  0  0  0  0  0  0
   -1.4216   -0.1071    1.0434 C   0  0  1  0  0  0  0  0  0  0  0  0
   -1.3825    0.5396    0.1654 H   0  0  0  0  0  0  0  0  0  0  0  0
   -1.3956    0.7727    2.3093 C   0  0  0  0  0  0  0  0  0  0  0  0
   -1.5931    0.1404    3.1772 H   0  0  0  0  0  0  0  0  0  0  0  0
   -0.3987    1.2040    2.4238 H   0  0  0  0  0  0  0  0  0  0  0  0
   -2.4348    1.9032    2.2895 C   0  0  0  0  0  0  0  0  0  0  0  0
   -2.2519    2.5575    1.4360 H   0  0  0  0  0  0  0  0  0  0  0  0
   -3.4336    1.4736    2.2066 H   0  0  0  0  0  0  0  0  0  0  0  0
   -2.3381    2.7245    3.5824 C   0  0  0  0  0  0  0  0  0  0  0  0
   -2.4959    2.0567    4.4323 H   0  0  0  0  0  0  0  0  0  0  0  0
   -1.3340    3.1498    3.6498 H   0  0  0  0  0  0  0  0  0  0  0  0
   -3.3380    3.8116    3.6175 N   0  3  0  0  0  0  0  0  0  0  0  0
   -3.9168    3.9195    2.8022 H   0  0  0  0  0  0  0  0  0  0  0  0
   -3.5430    4.6530    4.6170 C   0  0  0  0  0  0  0  0  0  0  0  0
   -2.8492    4.6019    5.7194 N   0  0  0  0  0  0  0  0  0  0  0  0
   -2.1373    3.8989    5.8109 H   0  0  0  0  0  0  0  0  0  0  0  0
   -3.0173    5.2483    6.4683 H   0  0  0  0  0  0  0  0  0  0  0  0
   -4.4598    5.5742    4.5266 N   0  0  0  0  0  0  0  0  0  0  0  0
   -5.0207    5.6529    3.6958 H   0  0  0  0  0  0  0  0  0  0  0  0
   -4.6120    6.2104    5.2872 H   0  0  0  0  0  0  0  0  0  0  0  0
   -0.2367   -1.0741    0.9966 C   0  0  0  0  0  0  0  0  0  0  0  0
   -0.2629   -2.0264    0.2262 O   0  0  0  0  0  0  0  0  0  0  0  0
    0.7715   -0.8446    1.8437 N   0  0  0  0  0  0  0  0  0  0  0  0
    0.7271   -0.0171    2.4158 H   0  0  0  0  0  0  0  0  0  0  0  0
    1.9768   -1.6712    1.9253 C   0  0  0  0  0  0  0  0  0  0  0  0
    2.5290   -1.6128    0.9849 H   0  0  0  0  0  0  0  0  0  0  0  0
    2.6193   -1.3272    2.7368 H   0  0  0  0  0  0  0  0  0  0  0  0
    1.7034   -2.7140    2.1004 H   0  0  0  0  0  0  0  0  0  0  0  0
  5  6  2  0  0  0  0
  5  7  1  0  0  0  0
  2  3  1  0  0  0  0
  2  4  1  0  0  0  0
  2  5  1  0  0  0  0
  1  2  1  0  0  0  0
 29 30  2  0  0  0  0
 29 31  1  0  0  0  0
 26 27  1  0  0  0  0
 26 28  1  0  0  0  0
 23 24  1  0  0  0  0
 23 25  1  0  0  0  0
 22 23  1  0  0  0  0
 22 26  1  0  0  0  0
 20 21  1  0  0  0  0
 20 22  2  0  0  0  0
 17 18  1  0  0  0  0
 17 19  1  0  0  0  0
 17 20  1  0  0  0  0
 14 15  1  0  0  0  0
 14 16  1  0  0  0  0
 14 17  1  0  0  0  0
 11 12  1  0  0  0  0
 11 13  1  0  0  0  0
 11 14  1  0  0  0  0
  9 10  1  0  0  0  0
  9 11  1  0  0  0  0
  9 29  1  0  0  0  0
  7  8  1  0  0  0  0
  7  9  1  0  0  0  0
 33 34  1  0  0  0  0
 33 35  1  0  0  0  0
 33 36  1  0  0  0  0
 31 32  1  0  0  0  0
 31 33  1  0  0  0  0
M  CHG  1  20   1
M  END
$$$$
default_name
  -OEChem-01062215323D

 36 35  0     1  0  0  0  0  0999 V2000
   -4.2256   -3.6731    1.8584 H   0  0  0  0  0  0  0  0  0  0  0  0
   -4.2396   -2.6781    1.4144 C   0  0  0  0  0  0  0  0  0  0  0  0
   -4.9506   -2.0521    1.9514 H   0  0  0  0  0  0  0  0  0  0  0  0
   -4.5266   -2.7521    0.3674 H   0  0  0  0  0  0  0  0  0  0  0  0
   -2.8576   -2.0761    1.5184 C   0  0  0  0  0  0  0  0  0  0  0  0
   -1.9456   -2.7051    2.0404 O   0  0  0  0  0  0  0  0  0  0  0  0
   -2.6926   -0.8481    1.0174 N   0  0  0  0  0  0  0  0  0  0  0  0
   -3.4926   -0.3971    0.5954 H   0  0  0  0  0  0  0  0  0  0  0  0
   -1.4216   -0.1071    1.0434 C   0  0  1  0  0  0  0  0  0  0  0  0
   -1.3825    0.5396    0.1654 H   0  0  0  0  0  0  0  0  0  0  0  0
   -1.3956    0.7727    2.3093 C   0  0  0  0  0  0  0  0  0  0  0  0
   -1.5931    0.1404    3.1772 H   0  0  0  0  0  0  0  0  0  0  0  0
   -0.3987    1.2040    2.4238 H   0  0  0  0  0  0  0  0  0  0  0  0
   -2.4348    1.9032    2.2895 C   0  0  0  0  0  0  0  0  0  0  0  0
   -2.2519    2.5575    1.4360 H   0  0  0  0  0  0  0  0  0  0  0  0
   -3.4336    1.4736    2.2066 H   0  0  0  0  0  0  0  0  0  0  0  0
   -2.3381    2.7245    3.5824 C   0  0  0  0  0  0  0  0  0  0  0  0
   -2.4959    2.0567    4.4323 H   0  0  0  0  0  0  0  0  0  0  0  0
   -1.3340    3.1498    3.6498 H   0  0  0  0  0  0  0  0  0  0  0  0
   -3.3380    3.8116    3.6175 N   0  3  0  0  0  0  0  0  0  0  0  0
   -3.9168    3.9195    2.8022 H   0  0  0  0  0  0  0  0  0  0  0  0
   -3.5430    4.6530    4.6170 C   0  0  0  0  0  0  0  0  0  0  0  0
   -2.8492    4.6019    5.7194 N   0  0  0  0  0  0  0  0  0  0  0  0
   -2.1373    3.8989    5.8109 H   0  0  0  0  0  0  0  0  0  0  0  0
   -3.0173    5.2483    6.4683 H   0  0  0  0  0  0  0  0  0  0  0  0
   -4.4598    5.5742    4.5266 N   0  0  0  0  0  0  0  0  0  0  0  0
   -5.0207    5.6529    3.6958 H   0  0  0  0  0  0  0  0  0  0  0  0
   -4.6120    6.2104    5.2872 H   0  0  0  0  0  0  0  0  0  0  0  0
   -0.2367   -1.0741    0.9966 C   0  0  0  0  0  0  0  0  0  0  0  0
   -0.1276   -1.8523    0.0566 O   0  0  0  0  0  0  0  0  0  0  0  0
    0.6164   -1.0433    2.0251 N   0  0  0  0  0  0  0  0  0  0  0  0
    0.4714   -0.3460    2.7369 H   0  0  0  0  0  0  0  0  0  0  0  0
    1.7992   -1.8990    2.1339 C   0  0  0  0  0  0  0  0  0  0  0  0
    2.4979   -1.6675    1.3271 H   0  0  0  0  0  0  0  0  0  0  0  0
    2.2965   -1.7400    3.0915 H   0  0  0  0  0  0  0  0  0  0  0  0
    1.5099   -2.9487    2.0488 H   0  0  0  0  0  0  0  0  0  0  0  0
  5  6  2  0  0  0  0
  5  7  1  0  0  0  0
  2  3  1  0  0  0  0
  2  4  1  0  0  0  0
  2  5  1  0  0  0  0
  1  2  1  0  0  0  0
 29 30  2  0  0  0  0
 29 31  1  0  0  0  0
 26 27  1  0  0  0  0
 26 28  1  0  0  0  0
 23 24  1  0  0  0  0
 23 25  1  0  0  0  0
 22 23  1  0  0  0  0
 22 26  1  0  0  0  0
 20 21  1  0  0  0  0
 20 22  2  0  0  0  0
 17 18  1  0  0  0  0
 17 19  1  0  0  0  0
 17 20  1  0  0  0  0
 14 15  1  0  0  0  0
 14 16  1  0  0  0  0
 14 17  1  0  0  0  0
 11 12  1  0  0  0  0
 11 13  1  0  0  0  0
 11 14  1  0  0  0  0
  9 10  1  0  0  0  0
  9 11  1  0  0  0  0
  9 29  1  0  0  0  0
  7  8  1  0  0  0  0
  7  9  1  0  0  0  0
 33 34  1  0  0  0  0
 33 35  1  0  0  0  0
 33 36  1  0  0  0  0
 31 32  1  0  0  0  0
 31 33  1  0  0  0  0
M  CHG  1  20   1
M  END
$$$$
default_name
  -OEChem-01062215323D

 36 35  0     1  0  0  0  0  0999 V2000
   -4.2256   -3.6731    1.8584 H   0  0  0  0  0  0  0  0  0  0  0  0
   -4.2396   -2.6781    1.4144 C   0  0  0  0  0  0  0  0  0  0  0  0
   -4.9506   -2.0521    1.9514 H   0  0  0  0  0  0  0  0  0  0  0  0
   -4.5266   -2.7521    0.3674 H   0  0  0  0  0  0  0  0  0  0  0  0
   -2.8576   -2.0761    1.5184 C   0  0  0  0  0  0  0  0  0  0  0  0
   -1.9456   -2.7051    2.0404 O   0  0  0  0  0  0  0  0  0  0  0  0
   -2.6926   -0.8481    1.0174 N   0  0  0  0  0  0  0  0  0  0  0  0
   -3.4926   -0.3971    0.5954 H   0  0  0  0  0  0  0  0  0  0  0  0
   -1.4216   -0.1071    1.0434 C   0  0  1  0  0  0  0  0  0  0  0  0
   -1.3825    0.5396    0.1654 H   0  0  0  0  0  0  0  0  0  0  0  0
   -1.3956    0.7727    2.3093 C   0  0  0  0  0  0  0  0  0  0  0  0
   -1.5931    0.1404    3.1772 H   0  0  0  0  0  0  0  0  0  0  0  0
   -0.3987    1.2040    2.4238 H   0  0  0  0  0  0  0  0  0  0  0  0
   -2.4348    1.9032    2.2895 C   0  0  0  0  0  0  0  0  0  0  0  0
   -2.2519    2.5575    1.4360 H   0  0  0  0  0  0  0  0  0  0  0  0
   -3.4336    1.4736    2.2066 H   0  0  0  0  0  0  0  0  0  0  0  0
   -2.3381    2.7245    3.5824 C   0  0  0  0  0  0  0  0  0  0  0  0
   -2.4959    2.0567    4.4323 H   0  0  0  0  0  0  0  0  0  0  0  0
   -1.3340    3.1498    3.6498 H   0  0  0  0  0  0  0  0  0  0  0  0
   -3.3380    3.8116    3.6175 N   0  3  0  0  0  0  0  0  0  0  0  0
   -3.9168    3.9195    2.8022 H   0  0  0  0  0  0  0  0  0  0  0  0
   -3.5430    4.6530    4.6170 C   0  0  0  0  0  0  0  0  0  0  0  0
   -2.8492    4.6019    5.7194 N   0  0  0  0  0  0  0  0  0  0  0  0
   -2.1373    3.8989    5.8109 H   0  0  0  0  0  0  0  0  0  0  0  0
   -3.0173    5.2483    6.4683 H   0  0  0  0  0  0  0  0  0  0  0  0
   -4.4598    5.5742    4.5266 N   0  0  0  0  0  0  0  0  0  0  0  0
   -5.0207    5.6529    3.6958 H   0  0  0  0  0  0  0  0  0  0  0  0
   -4.6120    6.2104    5.2872 H   0  0  0  0  0  0  0  0  0  0  0  0
   -0.2367   -1.0741    0.9966 C   0  0  0  0  0  0  0  0  0  0  0  0
    0.0322   -1.6513   -0.0501 O   0  0  0  0  0  0  0  0  0  0  0  0
    0.4355   -1.2704    2.1352 N   0  0  0  0  0  0  0  0  0  0  0  0
    0.1693   -0.7259    2.9393 H   0  0  0  0  0  0  0  0  0  0  0  0
    1.5917   -2.1594    2.2607 C   0  0  0  0  0  0  0  0  0  0  0  0
    2.4114   -1.7887    1.6416 H   0  0  0  0  0  0  0  0  0  0  0  0
    1.9234   -2.2072    3.2986 H   0  0  0  0  0  0  0  0  0  0  0  0
    1.3295   -3.1635    1.9203 H   0  0  0  0  0  0  0  0  0  0  0  0
  5  6  2  0  0  0  0
  5  7  1  0  0  0  0
  2  3  1  0  0  0  0
  2  4  1  0  0  0  0
  2  5  1  0  0  0  0
  1  2  1  0  0  0  0
 29 30  2  0  0  0  0
 29 31  1  0  0  0  0
 26 27  1  0  0  0  0
 26 28  1  0  0  0  0
 23 24  1  0  0  0  0
 23 25  1  0  0  0  0
 22 23  1  0  0  0  0
 22 26  1  0  0  0  0
 20 21  1  0  0  0  0
 20 22  2  0  0  0  0
 17 18  1  0  0  0  0
 17 19  1  0  0  0  0
 17 20  1  0  0  0  0
 14 15  1  0  0  0  0
 14 16  1  0  0  0  0
 14 17  1  0  0  0  0
 11 12  1  0  0  0  0
 11 13  1  0  0  0  0
 11 14  1  0  0  0  0
  9 10  1  0  0  0  0
  9 11  1  0  0  0  0
  9 29  1  0  0  0  0
  7  8  1  0  0  0  0
  7  9  1  0  0  0  0
 33 34  1  0  0  0  0
 33 35  1  0  0  0  0
 33 36  1  0  0  0  0
 31 32  1  0  0  0  0
 31 33  1  0  0  0  0
M  CHG  1  20   1
M  END
$$$$
default_name
  -OEChem-01062215323D

 36 35  0     1  0  0  0  0  0999 V2000
   -4.2256   -3.6731    1.8584 H   0  0  0  0  0  0  0  0  0  0  0  0
   -4.2396   -2.6781    1.4144 C   0  0  0  0  0  0  0  0  0  0  0  0
   -4.9506   -2.0521    1.9514 H   0  0  0  0  0  0  0  0  0  0  0  0
   -4.5266   -2.7521    0.3674 H   0  0  0  0  0  0  0  0  0  0  0  0
   -2.8576   -2.0761    1.5184 C   0  0  0  0  0  0  0  0  0  0  0  0
   -1.9456   -2.7051    2.0404 O   0  0  0  0  0  0  0  0  0  0  0  0
   -2.6926   -0.8481    1.0174 N   0  0  0  0  0  0  0  0  0  0  0  0
   -3.4926   -0.3971    0.5954 H   0  0  0  0  0  0  0  0  0  0  0  0
   -1.4216   -0.1071    1.0434 C   0  0  1  0  0  0  0  0  0  0  0  0
   -1.3825    0.5396    0.1654 H   0  0  0  0  0  0  0  0  0  0  0  0
   -1.3956    0.7727    2.3093 C   0  0  0  0  0  0  0  0  0  0  0  0
   -1.5931    0.1404    3.1772 H   0  0  0  0  0  0  0  0  0  0  0  0
   -0.3987    1.2040    2.4238 H   0  0  0  0  0  0  0  0  0  0  0  0
   -2.4348    1.9032    2.2895 C   0  0  0  0  0  0  0  0  0  0  0  0
   -2.2519    2.5575    1.4360 H   0  0  0  0  0  0  0  0  0  0  0  0
   -3.4336    1.4736    2.2066 H   0  0  0  0  0  0  0  0  0  0  0  0
   -2.3381    2.7245    3.5824 C   0  0  0  0  0  0  0  0  0  0  0  0
   -2.4959    2.0567    4.4323 H   0  0  0  0  0  0  0  0  0  0  0  0
   -1.3340    3.1498    3.6498 H   0  0  0  0  0  0  0  0  0  0  0  0
   -3.3380    3.8116    3.6175 N   0  3  0  0  0  0  0  0  0  0  0  0
   -3.9168    3.9195    2.8022 H   0  0  0  0  0  0  0  0  0  0  0  0
   -3.5430    4.6530    4.6170 C   0  0  0  0  0  0  0  0  0  0  0  0
   -2.8492    4.6019    5.7194 N   0  0  0  0  0  0  0  0  0  0  0  0
   -2.1373    3.8989    5.8109 H   0  0  0  0  0  0  0  0  0  0  0  0
   -3.0173    5.2483    6.4683 H   0  0  0  0  0  0  0  0  0  0  0  0
   -4.4598    5.5742    4.5266 N   0  0  0  0  0  0  0  0  0  0  0  0
   -5.0207    5.6529    3.6958 H   0  0  0  0  0  0  0  0  0  0  0  0
   -4.6120    6.2104    5.2872 H   0  0  0  0  0  0  0  0  0  0  0  0
   -0.2367   -1.0741    0.9966 C   0  0  0  0  0  0  0  0  0  0  0  0
    0.2056   -1.4370   -0.0868 O   0  0  0  0  0  0  0  0  0  0  0  0
    0.2409   -1.5104    2.1663 N   0  0  0  0  0  0  0  0  0  0  0  0
   -0.1586   -1.1311    3.0092 H   0  0  0  0  0  0  0  0  0  0  0  0
    1.3684   -2.4347    2.2970 C   0  0  0  0  0  0  0  0  0  0  0  0
    2.2755   -1.9681    1.9069 H   0  0  0  0  0  0  0  0  0  0  0  0
    1.5255   -2.6970    3.3440 H   0  0  0  0  0  0  0  0  0  0  0  0
    1.1746   -3.3438    1.7236 H   0  0  0  0  0  0  0  0  0  0  0  0
  5  6  2  0  0  0  0
  5  7  1  0  0  0  0
  2  3  1  0  0  0  0
  2  4  1  0  0  0  0
  2  5  1  0  0  0  0
  1  2  1  0  0  0  0
 29 30  2  0  0  0  0
 29 31  1  0  0  0  0
 26 27  1  0  0  0  0
 26 28  1  0  0  0  0
 23 24  1  0  0  0  0
 23 25  1  0  0  0  0
 22 23  1  0  0  0  0
 22 26  1  0  0  0  0
 20 21  1  0  0  0  0
 20 22  2  0  0  0  0
 17 18  1  0  0  0  0
 17 19  1  0  0  0  0
 17 20  1  0  0  0  0
 14 15  1  0  0  0  0
 14 16  1  0  0  0  0
 14 17  1  0  0  0  0
 11 12  1  0  0  0  0
 11 13  1  0  0  0  0
 11 14  1  0  0  0  0
  9 10  1  0  0  0  0
  9 11  1  0  0  0  0
  9 29  1  0  0  0  0
  7  8  1  0  0  0  0
  7  9  1  0  0  0  0
 33 34  1  0  0  0  0
 33 35  1  0  0  0  0
 33 36  1  0  0  0  0
 31 32  1  0  0  0  0
 31 33  1  0  0  0  0
M  CHG  1  20   1
M  END
$$$$
default_name
  -OEChem-01062215323D

 36 35  0     1  0  0  0  0  0999 V2000
   -4.2256   -3.6731    1.8584 H   0  0  0  0  0  0  0  0  0  0  0  0
   -4.2396   -2.6781    1.4144 C   0  0  0  0  0  0  0  0  0  0  0  0
   -4.9506   -2.0521    1.9514 H   0  0  0  0  0  0  0  0  0  0  0  0
   -4.5266   -2.7521    0.3674 H   0  0  0  0  0  0  0  0  0  0  0  0
   -2.8576   -2.0761    1.5184 C   0  0  0  0  0  0  0  0  0  0  0  0
   -1.9456   -2.7051    2.0404 O   0  0  0  0  0  0  0  0  0  0  0  0
   -2.6926   -0.8481    1.0174 N   0  0  0  0  0  0  0  0  0  0  0  0
   -3.4926   -0.3971    0.5954 H   0  0  0  0  0  0  0  0  0  0  0  0
   -1.4216   -0.1071    1.0434 C   0  0  1  0  0  0  0  0  0  0  0  0
   -1.3825    0.5396    0.1654 H   0  0  0  0  0  0  0  0  0  0  0  0
   -1.3956    0.7727    2.3093 C   0  0  0  0  0  0  0  0  0  0  0  0
   -1.5931    0.1404    3.1772 H   0  0  0  0  0  0  0  0  0  0  0  0
   -0.3987    1.2040    2.4238 H   0  0  0  0  0  0  0  0  0  0  0  0
   -2.4348    1.9032    2.2895 C   0  0  0  0  0  0  0  0  0  0  0  0
   -2.2519    2.5575    1.4360 H   0  0  0  0  0  0  0  0  0  0  0  0
   -3.4336    1.4736    2.2066 H   0  0  0  0  0  0  0  0  0  0  0  0
   -2.3381    2.7245    3.5824 C   0  0  0  0  0  0  0  0  0  0  0  0
   -2.4959    2.0567    4.4323 H   0  0  0  0  0  0  0  0  0  0  0  0
   -1.3340    3.1498    3.6498 H   0  0  0  0  0  0  0  0  0  0  0  0
   -3.3380    3.8116    3.6175 N   0  3  0  0  0  0  0  0  0  0  0  0
   -3.9168    3.9195    2.8022 H   0  0  0  0  0  0  0  0  0  0  0  0
   -3.5430    4.6530    4.6170 C   0  0  0  0  0  0  0  0  0  0  0  0
   -2.8492    4.6019    5.7194 N   0  0  0  0  0  0  0  0  0  0  0  0
   -2.1373    3.8989    5.8109 H   0  0  0  0  0  0  0  0  0  0  0  0
   -3.0173    5.2483    6.4683 H   0  0  0  0  0  0  0  0  0  0  0  0
   -4.4598    5.5742    4.5266 N   0  0  0  0  0  0  0  0  0  0  0  0
   -5.0207    5.6529    3.6958 H   0  0  0  0  0  0  0  0  0  0  0  0
   -4.6120    6.2104    5.2872 H   0  0  0  0  0  0  0  0  0  0  0  0
   -0.2367   -1.0741    0.9966 C   0  0  0  0  0  0  0  0  0  0  0  0
    0.3809   -1.2241   -0.0509 O   0  0  0  0  0  0  0  0  0  0  0  0
    0.0459   -1.7469    2.1165 N   0  0  0  0  0  0  0  0  0  0  0  0
   -0.4900   -1.5339    2.9420 H   0  0  0  0  0  0  0  0  0  0  0  0
    1.1447   -2.7061    2.2403 C   0  0  0  0  0  0  0  0  0  0  0  0
    2.0994   -2.1934    2.1051 H   0  0  0  0  0  0  0  0  0  0  0  0
    1.1298   -3.1761    3.2246 H   0  0  0  0  0  0  0  0  0  0  0  0
    1.0557   -3.4773    1.4721 H   0  0  0  0  0  0  0  0  0  0  0  0
  5  6  2  0  0  0  0
  5  7  1  0  0  0  0
  2  3  1  0  0  0  0
  2  4  1  0  0  0  0
  2  5  1  0  0  0  0
  1  2  1  0  0  0  0
 29 30  2  0  0  0  0
 29 31  1  0  0  0  0
 26 27  1  0  0  0  0
 26 28  1  0  0  0  0
 23 24  1  0  0  0  0
 23 25  1  0  0  0  0
 22 23  1  0  0  0  0
 22 26  1  0  0  0  0
 20 21  1  0  0  0  0
 20 22  2  0  0  0  0
 17 18  1  0  0  0  0
 17 19  1  0  0  0  0
 17 20  1  0  0  0  0
 14 15  1  0  0  0  0
 14 16  1  0  0  0  0
 14 17  1  0  0  0  0
 11 12  1  0  0  0  0
 11 13  1  0  0  0  0
 11 14  1  0  0  0  0
  9 10  1  0  0  0  0
  9 11  1  0  0  0  0
  9 29  1  0  0  0  0
  7  8  1  0  0  0  0
  7  9  1  0  0  0  0
 33 34  1  0  0  0  0
 33 35  1  0  0  0  0
 33 36  1  0  0  0  0
 31 32  1  0  0  0  0
 31 33  1  0  0  0  0
M  CHG  1  20   1
M  END
$$$$
default_name
  -OEChem-01062215323D

 36 35  0     1  0  0  0  0  0999 V2000
   -4.2256   -3.6731    1.8584 H   0  0  0  0  0  0  0  0  0  0  0  0
   -4.2396   -2.6781    1.4144 C   0  0  0  0  0  0  0  0  0  0  0  0
   -4.9506   -2.0521    1.9514 H   0  0  0  0  0  0  0  0  0  0  0  0
   -4.5266   -2.7521    0.3674 H   0  0  0  0  0  0  0  0  0  0  0  0
   -2.8576   -2.0761    1.5184 C   0  0  0  0  0  0  0  0  0  0  0  0
   -1.9456   -2.7051    2.0404 O   0  0  0  0  0  0  0  0  0  0  0  0
   -2.6926   -0.8481    1.0174 N   0  0  0  0  0  0  0  0  0  0  0  0
   -3.4926   -0.3971    0.5954 H   0  0  0  0  0  0  0  0  0  0  0  0
   -1.4216   -0.1071    1.0434 C   0  0  1  0  0  0  0  0  0  0  0  0
   -1.3825    0.5396    0.1654 H   0  0  0  0  0  0  0  0  0  0  0  0
   -1.3956    0.7727    2.3093 C   0  0  0  0  0  0  0  0  0  0  0  0
   -1.5931    0.1404    3.1772 H   0  0  0  0  0  0  0  0  0  0  0  0
   -0.3987    1.2040    2.4238 H   0  0  0  0  0  0  0  0  0  0  0  0
   -2.4348    1.9032    2.2895 C   0  0  0  0  0  0  0  0  0  0  0  0
   -2.2519    2.5575    1.4360 H   0  0  0  0  0  0  0  0  0  0  0  0
   -3.4336    1.4736    2.2066 H   0  0  0  0  0  0  0  0  0  0  0  0
   -2.3381    2.7245    3.5824 C   0  0  0  0  0  0  0  0  0  0  0  0
   -2.4959    2.0567    4.4323 H   0  0  0  0  0  0  0  0  0  0  0  0
   -1.3340    3.1498    3.6498 H   0  0  0  0  0  0  0  0  0  0  0  0
   -3.3380    3.8116    3.6175 N   0  3  0  0  0  0  0  0  0  0  0  0
   -3.9168    3.9195    2.8022 H   0  0  0  0  0  0  0  0  0  0  0  0
   -3.5430    4.6530    4.6170 C   0  0  0  0  0  0  0  0  0  0  0  0
   -2.8492    4.6019    5.7194 N   0  0  0  0  0  0  0  0  0  0  0  0
   -2.1373    3.8989    5.8109 H   0  0  0  0  0  0  0  0  0  0  0  0
   -3.0173    5.2483    6.4683 H   0  0  0  0  0  0  0  0  0  0  0  0
   -4.4598    5.5742    4.5266 N   0  0  0  0  0  0  0  0  0  0  0  0
   -5.0207    5.6529    3.6958 H   0  0  0  0  0  0  0  0  0  0  0  0
   -4.6120    6.2104    5.2872 H   0  0  0  0  0  0  0  0  0  0  0  0
   -0.2367   -1.0741    0.9966 C   0  0  0  0  0  0  0  0  0  0  0  0
    0.5459   -1.0269    0.0551 O   0  0  0  0  0  0  0  0  0  0  0  0
   -0.1362   -1.9638    1.9891 N   0  0  0  0  0  0  0  0  0  0  0  0
   -0.8023   -1.9069    2.7420 H   0  0  0  0  0  0  0  0  0  0  0  0
    0.9357   -2.9551    2.0947 C   0  0  0  0  0  0  0  0  0  0  0  0
    1.8952   -2.4494    2.2225 H   0  0  0  0  0  0  0  0  0  0  0  0
    0.7633   -3.6117    2.9484 H   0  0  0  0  0  0  0  0  0  0  0  0
    0.9809   -3.5549    1.1830 H   0  0  0  0  0  0  0  0  0  0  0  0
  5  6  2  0  0  0  0
  5  7  1  0  0  0  0
  2  3  1  0  0  0  0
  2  4  1  0  0  0  0
  2  5  1  0  0  0  0
  1  2  1  0  0  0  0
 29 30  2  0  0  0  0
 29 31  1  0  0  0  0
 26 27  1  0  0  0  0
 26 28  1  0  0  0  0
 23 24  1  0  0  0  0
 23 25  1  0  0  0  0
 22 23  1  0  0  0  0
 22 26  1  0  0  0  0
 20 21  1  0  0  0  0
 20 22  2  0  0  0  0
 17 18  1  0  0  0  0
 17 19  1  0  0  0  0
 17 20  1  0  0  0  0
 14 15  1  0  0  0  0
 14 16  1  0  0  0  0
 14 17  1  0  0  0  0
 11 12  1  0  0  0  0
 11 13  1  0  0  0  0
 11 14  1  0  0  0  0
  9 10  1  0  0  0  0
  9 11  1  0  0  0  0
  9 29  1  0  0  0  0
  7  8  1  0  0  0  0
  7  9  1  0  0  0  0
 33 34  1  0  0  0  0
 33 35  1  0  0  0  0
 33 36  1  0  0  0  0
 31 32  1  0  0  0  0
 31 33  1  0  0  0  0
M  CHG  1  20   1
M  END
$$$$
default_name
  -OEChem-01062215323D

 36 35  0     1  0  0  0  0  0999 V2000
   -4.2256   -3.6731    1.8584 H   0  0  0  0  0  0  0  0  0  0  0  0
   -4.2396   -2.6781    1.4144 C   0  0  0  0  0  0  0  0  0  0  0  0
   -4.9506   -2.0521    1.9514 H   0  0  0  0  0  0  0  0  0  0  0  0
   -4.5266   -2.7521    0.3674 H   0  0  0  0  0  0  0  0  0  0  0  0
   -2.8576   -2.0761    1.5184 C   0  0  0  0  0  0  0  0  0  0  0  0
   -1.9456   -2.7051    2.0404 O   0  0  0  0  0  0  0  0  0  0  0  0
   -2.6926   -0.8481    1.0174 N   0  0  0  0  0  0  0  0  0  0  0  0
   -3.4926   -0.3971    0.5954 H   0  0  0  0  0  0  0  0  0  0  0  0
   -1.4216   -0.1071    1.0434 C   0  0  1  0  0  0  0  0  0  0  0  0
   -1.3825    0.5396    0.1654 H   0  0  0  0  0  0  0  0  0  0  0  0
   -1.3956    0.7727    2.3093 C   0  0  0  0  0  0  0  0  0  0  0  0
   -1.5931    0.1404    3.1772 H   0  0  0  0  0  0  0  0  0  0  0  0
   -0.3987    1.2040    2.4238 H   0  0  0  0  0  0  0  0  0  0  0  0
   -2.4348    1.9032    2.2895 C   0  0  0  0  0  0  0  0  0  0  0  0
   -2.2519    2.5575    1.4360 H   0  0  0  0  0  0  0  0  0  0  0  0
   -3.4336    1.4736    2.2066 H   0  0  0  0  0  0  0  0  0  0  0  0
   -2.3381    2.7245    3.5824 C   0  0  0  0  0  0  0  0  0  0  0  0
   -2.4959    2.0567    4.4323 H   0  0  0  0  0  0  0  0  0  0  0  0
   -1.3340    3.1498    3.6498 H   0  0  0  0  0  0  0  0  0  0  0  0
   -3.3380    3.8116    3.6175 N   0  3  0  0  0  0  0  0  0  0  0  0
   -3.9168    3.9195    2.8022 H   0  0  0  0  0  0  0  0  0  0  0  0
   -3.5430    4.6530    4.6170 C   0  0  0  0  0  0  0  0  0  0  0  0
   -2.8492    4.6019    5.7194 N   0  0  0  0  0  0  0  0  0  0  0  0
   -2.1373    3.8989    5.8109 H   0  0  0  0  0  0  0  0  0  0  0  0
   -3.0173    5.2483    6.4683 H   0  0  0  0  0  0  0  0  0  0  0  0
   -4.4598    5.5742    4.5266 N   0  0  0  0  0  0  0  0  0  0  0  0
   -5.0207    5.6529    3.6958 H   0  0  0  0  0  0  0  0  0  0  0  0
   -4.6120    6.2104    5.2872 H   0  0  0  0  0  0  0  0  0  0  0  0
   -0.2367   -1.0741    0.9966 C   0  0  0  0  0  0  0  0  0  0  0  0
    0.6896   -0.8591    0.2240 O   0  0  0  0  0  0  0  0  0  0  0  0
   -0.2929   -2.1463    1.7928 N   0  0  0  0  0  0  0  0  0  0  0  0
   -1.0742   -2.2247    2.4231 H   0  0  0  0  0  0  0  0  0  0  0  0
    0.7557   -3.1649    1.8698 C   0  0  0  0  0  0  0  0  0  0  0  0
    1.6766   -2.7186    2.2511 H   0  0  0  0  0  0  0  0  0  0  0  0
    0.4511   -3.9743    2.5345 H   0  0  0  0  0  0  0  0  0  0  0  0
    0.9554   -3.5713    0.8760 H   0  0  0  0  0  0  0  0  0  0  0  0
  5  6  2  0  0  0  0
  5  7  1  0  0  0  0
  2  3  1  0  0  0  0
  2  4  1  0  0  0  0
  2  5  1  0  0  0  0
  1  2  1  0  0  0  0
 29 30  2  0  0  0  0
 29 31  1  0  0  0  0
 26 27  1  0  0  0  0
 26 28  1  0  0  0  0
 23 24  1  0  0  0  0
 23 25  1  0  0  0  0
 22 23  1  0  0  0  0
 22 26  1  0  0  0  0
 20 21  1  0  0  0  0
 20 22  2  0  0  0  0
 17 18  1  0  0  0  0
 17 19  1  0  0  0  0
 17 20  1  0  0  0  0
 14 15  1  0  0  0  0
 14 16  1  0  0  0  0
 14 17  1  0  0  0  0
 11 12  1  0  0  0  0
 11 13  1  0  0  0  0
 11 14  1  0  0  0  0
  9 10  1  0  0  0  0
  9 11  1  0  0  0  0
  9 29  1  0  0  0  0
  7  8  1  0  0  0  0
  7  9  1  0  0  0  0
 33 34  1  0  0  0  0
 33 35  1  0  0  0  0
 33 36  1  0  0  0  0
 31 32  1  0  0  0  0
 31 33  1  0  0  0  0
M  CHG  1  20   1
M  END
$$$$
default_name
  -OEChem-01062215323D

 36 35  0     1  0  0  0  0  0999 V2000
   -4.2256   -3.6731    1.8584 H   0  0  0  0  0  0  0  0  0  0  0  0
   -4.2396   -2.6781    1.4144 C   0  0  0  0  0  0  0  0  0  0  0  0
   -4.9506   -2.0521    1.9514 H   0  0  0  0  0  0  0  0  0  0  0  0
   -4.5266   -2.7521    0.3674 H   0  0  0  0  0  0  0  0  0  0  0  0
   -2.8576   -2.0761    1.5184 C   0  0  0  0  0  0  0  0  0  0  0  0
   -1.9456   -2.7051    2.0404 O   0  0  0  0  0  0  0  0  0  0  0  0
   -2.6926   -0.8481    1.0174 N   0  0  0  0  0  0  0  0  0  0  0  0
   -3.4926   -0.3971    0.5954 H   0  0  0  0  0  0  0  0  0  0  0  0
   -1.4216   -0.1071    1.0434 C   0  0  1  0  0  0  0  0  0  0  0  0
   -1.3825    0.5396    0.1654 H   0  0  0  0  0  0  0  0  0  0  0  0
   -1.3956    0.7727    2.3093 C   0  0  0  0  0  0  0  0  0  0  0  0
   -1.5931    0.1404    3.1772 H   0  0  0  0  0  0  0  0  0  0  0  0
   -0.3987    1.2040    2.4238 H   0  0  0  0  0  0  0  0  0  0  0  0
   -2.4348    1.9032    2.2895 C   0  0  0  0  0  0  0  0  0  0  0  0
   -2.2519    2.5575    1.4360 H   0  0  0  0  0  0  0  0  0  0  0  0
   -3.4336    1.4736    2.2066 H   0  0  0  0  0  0  0  0  0  0  0  0
   -2.3381    2.7245    3.5824 C   0  0  0  0  0  0  0  0  0  0  0  0
   -2.4959    2.0567    4.4323 H   0  0  0  0  0  0  0  0  0  0  0  0
   -1.3340    3.1498    3.6498 H   0  0  0  0  0  0  0  0  0  0  0  0
   -3.3380    3.8116    3.6175 N   0  3  0  0  0  0  0  0  0  0  0  0
   -3.9168    3.9195    2.8022 H   0  0  0  0  0  0  0  0  0  0  0  0
   -3.5430    4.6530    4.6170 C   0  0  0  0  0  0  0  0  0  0  0  0
   -2.8492    4.6019    5.7194 N   0  0  0  0  0  0  0  0  0  0  0  0
   -2.1373    3.8989    5.8109 H   0  0  0  0  0  0  0  0  0  0  0  0
   -3.0173    5.2483    6.4683 H   0  0  0  0  0  0  0  0  0  0  0  0
   -4.4598    5.5742    4.5266 N   0  0  0  0  0  0  0  0  0  0  0  0
   -5.0207    5.6529    3.6958 H   0  0  0  0  0  0  0  0  0  0  0  0
   -4.6120    6.2104    5.2872 H   0  0  0  0  0  0  0  0  0  0  0  0
   -0.2367   -1.0741    0.9966 C   0  0  0  0  0  0  0  0  0  0  0  0
    0.8021   -0.7319    0.4443 O   0  0  0  0  0  0  0  0  0  0  0  0
   -0.4136   -2.2820    1.5409 N   0  0  0  0  0  0  0  0  0  0  0  0
   -1.2872   -2.4655    2.0069 H   0  0  0  0  0  0  0  0  0  0  0  0
    0.6169   -3.3209    1.5812 C   0  0  0  0  0  0  0  0  0  0  0  0
    1.4587   -2.9827    2.1891 H   0  0  0  0  0  0  0  0  0  0  0  0
    0.2143   -4.2391    2.0109 H   0  0  0  0  0  0  0  0  0  0  0  0
    0.9808   -3.5255    0.5719 H   0  0  0  0  0  0  0  0  0  0  0  0
  5  6  2  0  0  0  0
  5  7  1  0  0  0  0
  2  3  1  0  0  0  0
  2  4  1  0  0  0  0
  2  5  1  0  0  0  0
  1  2  1  0  0  0  0
 29 30  2  0  0  0  0
 29 31  1  0  0  0  0
 26 27  1  0  0  0  0
 26 28  1  0  0  0  0
 23 24  1  0  0  0  0
 23 25  1  0  0  0  0
 22 23  1  0  0  0  0
 22 26  1  0  0  0  0
 20 21  1  0  0  0  0
 20 22  2  0  0  0  0
 17 18  1  0  0  0  0
 17 19  1  0  0  0  0
 17 20  1  0  0  0  0
 14 15  1  0  0  0  0
 14 16  1  0  0  0  0
 14 17  1  0  0  0  0
 11 12  1  0  0  0  0
 11 13  1  0  0  0  0
 11 14  1  0  0  0  0
  9 10  1  0  0  0  0
  9 11  1  0  0  0  0
  9 29  1  0  0  0  0
  7  8  1  0  0  0  0
  7  9  1  0  0  0  0
 33 34  1  0  0  0  0
 33 35  1  0  0  0  0
 33 36  1  0  0  0  0
 31 32  1  0  0  0  0
 31 33  1  0  0  0  0
M  CHG  1  20   1
M  END
$$$$
default_name
  -OEChem-01062215323D

 36 35  0     1  0  0  0  0  0999 V2000
   -4.2256   -3.6731    1.8584 H   0  0  0  0  0  0  0  0  0  0  0  0
   -4.2396   -2.6781    1.4144 C   0  0  0  0  0  0  0  0  0  0  0  0
   -4.9506   -2.0521    1.9514 H   0  0  0  0  0  0  0  0  0  0  0  0
   -4.5266   -2.7521    0.3674 H   0  0  0  0  0  0  0  0  0  0  0  0
   -2.8576   -2.0761    1.5184 C   0  0  0  0  0  0  0  0  0  0  0  0
   -1.9456   -2.7051    2.0404 O   0  0  0  0  0  0  0  0  0  0  0  0
   -2.6926   -0.8481    1.0174 N   0  0  0  0  0  0  0  0  0  0  0  0
   -3.4926   -0.3971    0.5954 H   0  0  0  0  0  0  0  0  0  0  0  0
   -1.4216   -0.1071    1.0434 C   0  0  1  0  0  0  0  0  0  0  0  0
   -1.3825    0.5396    0.1654 H   0  0  0  0  0  0  0  0  0  0  0  0
   -1.3956    0.7727    2.3093 C   0  0  0  0  0  0  0  0  0  0  0  0
   -1.5931    0.1404    3.1772 H   0  0  0  0  0  0  0  0  0  0  0  0
   -0.3987    1.2040    2.4238 H   0  0  0  0  0  0  0  0  0  0  0  0
   -2.4348    1.9032    2.2895 C   0  0  0  0  0  0  0  0  0  0  0  0
   -2.2519    2.5575    1.4360 H   0  0  0  0  0  0  0  0  0  0  0  0
   -3.4336    1.4736    2.2066 H   0  0  0  0  0  0  0  0  0  0  0  0
   -2.3381    2.7245    3.5824 C   0  0  0  0  0  0  0  0  0  0  0  0
   -2.4959    2.0567    4.4323 H   0  0  0  0  0  0  0  0  0  0  0  0
   -1.3340    3.1498    3.6498 H   0  0  0  0  0  0  0  0  0  0  0  0
   -3.3380    3.8116    3.6175 N   0  3  0  0  0  0  0  0  0  0  0  0
   -3.9168    3.9195    2.8022 H   0  0  0  0  0  0  0  0  0  0  0  0
   -3.5430    4.6530    4.6170 C   0  0  0  0  0  0  0  0  0  0  0  0
   -2.8492    4.6019    5.7194 N   0  0  0  0  0  0  0  0  0  0  0  0
   -2.1373    3.8989    5.8109 H   0  0  0  0  0  0  0  0  0  0  0  0
   -3.0173    5.2483    6.4683 H   0  0  0  0  0  0  0  0  0  0  0  0
   -4.4598    5.5742    4.5266 N   0  0  0  0  0  0  0  0  0  0  0  0
   -5.0207    5.6529    3.6958 H   0  0  0  0  0  0  0  0  0  0  0  0
   -4.6120    6.2104    5.2872 H   0  0  0  0  0  0  0  0  0  0  0  0
   -0.2367   -1.0741    0.9966 C   0  0  0  0  0  0  0  0  0  0  0  0
    0.8757   -0.6542    0.7010 O   0  0  0  0  0  0  0  0  0  0  0  0
   -0.4901   -2.3617    1.2507 N   0  0  0  0  0  0  0  0  0  0  0  0
   -1.4267   -2.6130    1.5217 H   0  0  0  0  0  0  0  0  0  0  0  0
    0.5288   -3.4127    1.2484 C   0  0  0  0  0  0  0  0  0  0  0  0
    1.2562   -3.2236    2.0407 H   0  0  0  0  0  0  0  0  0  0  0  0
    0.0691   -4.3880    1.4133 H   0  0  0  0  0  0  0  0  0  0  0  0
    1.0554   -3.4204    0.2916 H   0  0  0  0  0  0  0  0  0  0  0  0
  5  6  2  0  0  0  0
  5  7  1  0  0  0  0
  2  3  1  0  0  0  0
  2  4  1  0  0  0  0
  2  5  1  0  0  0  0
  1  2  1  0  0  0  0
 29 30  2  0  0  0  0
 29 31  1  0  0  0  0
 26 27  1  0  0  0  0
 26 28  1  0  0  0  0
 23 24  1  0  0  0  0
 23 25  1  0  0  0  0
 22 23  1  0  0  0  0
 22 26  1  0  0  0  0
 20 21  1  0  0  0  0
 20 22  2  0  0  0  0
 17 18  1  0  0  0  0
 17 19  1  0  0  0  0
 17 20  1  0  0  0  0
 14 15  1  0  0  0  0
 14 16  1  0  0  0  0
 14 17  1  0  0  0  0
 11 12  1  0  0  0  0
 11 13  1  0  0  0  0
 11 14  1  0  0  0  0
  9 10  1  0  0  0  0
  9 11  1  0  0  0  0
  9 29  1  0  0  0  0
  7  8  1  0  0  0  0
  7  9  1  0  0  0  0
 33 34  1  0  0  0  0
 33 35  1  0  0  0  0
 33 36  1  0  0  0  0
 31 32  1  0  0  0  0
 31 33  1  0  0  0  0
M  CHG  1  20   1
M  END
$$$$
default_name
  -OEChem-01062215323D

 36 35  0     1  0  0  0  0  0999 V2000
   -4.2256   -3.6731    1.8584 H   0  0  0  0  0  0  0  0  0  0  0  0
   -4.2396   -2.6781    1.4144 C   0  0  0  0  0  0  0  0  0  0  0  0
   -4.9506   -2.0521    1.9514 H   0  0  0  0  0  0  0  0  0  0  0  0
   -4.5266   -2.7521    0.3674 H   0  0  0  0  0  0  0  0  0  0  0  0
   -2.8576   -2.0761    1.5184 C   0  0  0  0  0  0  0  0  0  0  0  0
   -1.9456   -2.7051    2.0404 O   0  0  0  0  0  0  0  0  0  0  0  0
   -2.6926   -0.8481    1.0174 N   0  0  0  0  0  0  0  0  0  0  0  0
   -3.4926   -0.3971    0.5954 H   0  0  0  0  0  0  0  0  0  0  0  0
   -1.4216   -0.1071    1.0434 C   0  0  1  0  0  0  0  0  0  0  0  0
   -1.3825    0.5396    0.1654 H   0  0  0  0  0  0  0  0  0  0  0  0
   -1.3956    0.7727    2.3093 C   0  0  0  0  0  0  0  0  0  0  0  0
   -1.5931    0.1404    3.1772 H   0  0  0  0  0  0  0  0  0  0  0  0
   -0.3987    1.2040    2.4238 H   0  0  0  0  0  0  0  0  0  0  0  0
   -2.4348    1.9032    2.2895 C   0  0  0  0  0  0  0  0  0  0  0  0
   -2.2519    2.5575    1.4360 H   0  0  0  0  0  0  0  0  0  0  0  0
   -3.4336    1.4736    2.2066 H   0  0  0  0  0  0  0  0  0  0  0  0
   -2.3381    2.7245    3.5824 C   0  0  0  0  0  0  0  0  0  0  0  0
   -2.4959    2.0567    4.4323 H   0  0  0  0  0  0  0  0  0  0  0  0
   -1.3340    3.1498    3.6498 H   0  0  0  0  0  0  0  0  0  0  0  0
   -3.3380    3.8116    3.6175 N   0  3  0  0  0  0  0  0  0  0  0  0
   -3.9168    3.9195    2.8022 H   0  0  0  0  0  0  0  0  0  0  0  0
   -3.5430    4.6530    4.6170 C   0  0  0  0  0  0  0  0  0  0  0  0
   -2.8492    4.6019    5.7194 N   0  0  0  0  0  0  0  0  0  0  0  0
   -2.1373    3.8989    5.8109 H   0  0  0  0  0  0  0  0  0  0  0  0
   -3.0173    5.2483    6.4683 H   0  0  0  0  0  0  0  0  0  0  0  0
   -4.4598    5.5742    4.5266 N   0  0  0  0  0  0  0  0  0  0  0  0
   -5.0207    5.6529    3.6958 H   0  0  0  0  0  0  0  0  0  0  0  0
   -4.6120    6.2104    5.2872 H   0  0  0  0  0  0  0  0  0  0  0  0
   -0.2367   -1.0741    0.9966 C   0  0  0  0  0  0  0  0  0  0  0  0
    0.9054   -0.6311    0.9765 O   0  0  0  0  0  0  0  0  0  0  0  0
   -0.5172   -2.3799    0.9419 N   0  0  0  0  0  0  0  0  0  0  0  0
   -1.4834   -2.6571    1.0007 H   0  0  0  0  0  0  0  0  0  0  0  0
    0.4974   -3.4340    0.8942 C   0  0  0  0  0  0  0  0  0  0  0  0
    1.0831   -3.4249    1.8159 H   0  0  0  0  0  0  0  0  0  0  0  0
    0.0254   -4.4110    0.7825 H   0  0  0  0  0  0  0  0  0  0  0  0
    1.1742   -3.2634    0.0541 H   0  0  0  0  0  0  0  0  0  0  0  0
  5  6  2  0  0  0  0
  5  7  1  0  0  0  0
  2  3  1  0  0  0  0
  2  4  1  0  0  0  0
  2  5  1  0  0  0  0
  1  2  1  0  0  0  0
 29 30  2  0  0  0  0
 29 31  1  0  0  0  0
 26 27  1  0  0  0  0
 26 28  1  0  0  0  0
 23 24  1  0  0  0  0
 23 25  1  0  0  0  0
 22 23  1  0  0  0  0
 22 26  1  0  0  0  0
 20 21  1  0  0  0  0
 20 22  2  0  0  0  0
 17 18  1  0  0  0  0
 17 19  1  0  0  0  0
 17 20  1  0  0  0  0
 14 15  1  0  0  0  0
 14 16  1  0  0  0  0
 14 17  1  0  0  0  0
 11 12  1  0  0  0  0
 11 13  1  0  0  0  0
 11 14  1  0  0  0  0
  9 10  1  0  0  0  0
  9 11  1  0  0  0  0
  9 29  1  0  0  0  0
  7  8  1  0  0  0  0
  7  9  1  0  0  0  0
 33 34  1  0  0  0  0
 33 35  1  0  0  0  0
 33 36  1  0  0  0  0
 31 32  1  0  0  0  0
 31 33  1  0  0  0  0
M  CHG  1  20   1
M  END
$$$$
default_name
  -OEChem-01062215323D

 36 35  0     1  0  0  0  0  0999 V2000
   -4.2256   -3.6731    1.8584 H   0  0  0  0  0  0  0  0  0  0  0  0
   -4.2396   -2.6781    1.4144 C   0  0  0  0  0  0  0  0  0  0  0  0
   -4.9506   -2.0521    1.9514 H   0  0  0  0  0  0  0  0  0  0  0  0
   -4.5266   -2.7521    0.3674 H   0  0  0  0  0  0  0  0  0  0  0  0
   -2.8576   -2.0761    1.5184 C   0  0  0  0  0  0  0  0  0  0  0  0
   -1.9456   -2.7051    2.0404 O   0  0  0  0  0  0  0  0  0  0  0  0
   -2.6926   -0.8481    1.0174 N   0  0  0  0  0  0  0  0  0  0  0  0
   -3.4926   -0.3971    0.5954 H   0  0  0  0  0  0  0  0  0  0  0  0
   -1.4216   -0.1071    1.0434 C   0  0  1  0  0  0  0  0  0  0  0  0
   -1.3825    0.5396    0.1654 H   0  0  0  0  0  0  0  0  0  0  0  0
   -1.3956    0.7727    2.3093 C   0  0  0  0  0  0  0  0  0  0  0  0
   -1.5931    0.1404    3.1772 H   0  0  0  0  0  0  0  0  0  0  0  0
   -0.3987    1.2040    2.4238 H   0  0  0  0  0  0  0  0  0  0  0  0
   -2.4348    1.9032    2.2895 C   0  0  0  0  0  0  0  0  0  0  0  0
   -2.2519    2.5575    1.4360 H   0  0  0  0  0  0  0  0  0  0  0  0
   -3.4336    1.4736    2.2066 H   0  0  0  0  0  0  0  0  0  0  0  0
   -2.3381    2.7245    3.5824 C   0  0  0  0  0  0  0  0  0  0  0  0
   -2.4959    2.0567    4.4323 H   0  0  0  0  0  0  0  0  0  0  0  0
   -1.3340    3.1498    3.6498 H   0  0  0  0  0  0  0  0  0  0  0  0
   -3.3380    3.8116    3.6175 N   0  3  0  0  0  0  0  0  0  0  0  0
   -3.9168    3.9195    2.8022 H   0  0  0  0  0  0  0  0  0  0  0  0
   -3.5430    4.6530    4.6170 C   0  0  0  0  0  0  0  0  0  0  0  0
   -2.8492    4.6019    5.7194 N   0  0  0  0  0  0  0  0  0  0  0  0
   -2.1373    3.8989    5.8109 H   0  0  0  0  0  0  0  0  0  0  0  0
   -3.0173    5.2483    6.4683 H   0  0  0  0  0  0  0  0  0  0  0  0
   -4.4598    5.5742    4.5266 N   0  0  0  0  0  0  0  0  0  0  0  0
   -5.0207    5.6529    3.6958 H   0  0  0  0  0  0  0  0  0  0  0  0
   -4.6120    6.2104    5.2872 H   0  0  0  0  0  0  0  0  0  0  0  0
   -0.2367   -1.0741    0.9966 C   0  0  0  0  0  0  0  0  0  0  0  0
    0.8893   -0.6642    1.2522 O   0  0  0  0  0  0  0  0  0  0  0  0
   -0.4929   -2.3353    0.6355 N   0  0  0  0  0  0  0  0  0  0  0  0
   -1.4532   -2.5948    0.4793 H   0  0  0  0  0  0  0  0  0  0  0  0
    0.5249   -3.3833    0.5426 C   0  0  0  0  0  0  0  0  0  0  0  0
    0.9509   -3.5729    1.5301 H   0  0  0  0  0  0  0  0  0  0  0  0
    0.0862   -4.3064    0.1614 H   0  0  0  0  0  0  0  0  0  0  0  0
    1.3290   -3.0650   -0.1244 H   0  0  0  0  0  0  0  0  0  0  0  0
  5  6  2  0  0  0  0
  5  7  1  0  0  0  0
  2  3  1  0  0  0  0
  2  4  1  0  0  0  0
  2  5  1  0  0  0  0
  1  2  1  0  0  0  0
 29 30  2  0  0  0  0
 29 31  1  0  0  0  0
 26 27  1  0  0  0  0
 26 28  1  0  0  0  0
 23 24  1  0  0  0  0
 23 25  1  0  0  0  0
 22 23  1  0  0  0  0
 22 26  1  0  0  0  0
 20 21  1  0  0  0  0
 20 22  2  0  0  0  0
 17 18  1  0  0  0  0
 17 19  1  0  0  0  0
 17 20  1  0  0  0  0
 14 15  1  0  0  0  0
 14 16  1  0  0  0  0
 14 17  1  0  0  0  0
 11 12  1  0  0  0  0
 11 13  1  0  0  0  0
 11 14  1  0  0  0  0
  9 10  1  0  0  0  0
  9 11  1  0  0  0  0
  9 29  1  0  0  0  0
  7  8  1  0  0  0  0
  7  9  1  0  0  0  0
 33 34  1  0  0  0  0
 33 35  1  0  0  0  0
 33 36  1  0  0  0  0
 31 32  1  0  0  0  0
 31 33  1  0  0  0  0
M  CHG  1  20   1
M  END
$$$$
default_name
  -OEChem-01062215323D

 36 35  0     1  0  0  0  0  0999 V2000
   -4.2256   -3.6731    1.8584 H   0  0  0  0  0  0  0  0  0  0  0  0
   -4.2396   -2.6781    1.4144 C   0  0  0  0  0  0  0  0  0  0  0  0
   -4.9506   -2.0521    1.9514 H   0  0  0  0  0  0  0  0  0  0  0  0
   -4.5266   -2.7521    0.3674 H   0  0  0  0  0  0  0  0  0  0  0  0
   -2.8576   -2.0761    1.5184 C   0  0  0  0  0  0  0  0  0  0  0  0
   -1.9456   -2.7051    2.0404 O   0  0  0  0  0  0  0  0  0  0  0  0
   -2.6926   -0.8481    1.0174 N   0  0  0  0  0  0  0  0  0  0  0  0
   -3.4926   -0.3971    0.5954 H   0  0  0  0  0  0  0  0  0  0  0  0
   -1.4216   -0.1071    1.0434 C   0  0  1  0  0  0  0  0  0  0  0  0
   -1.3825    0.5396    0.1654 H   0  0  0  0  0  0  0  0  0  0  0  0
   -1.3956    0.7727    2.3093 C   0  0  0  0  0  0  0  0  0  0  0  0
   -1.5931    0.1404    3.1772 H   0  0  0  0  0  0  0  0  0  0  0  0
   -0.3987    1.2040    2.4238 H   0  0  0  0  0  0  0  0  0  0  0  0
   -2.4348    1.9032    2.2895 C   0  0  0  0  0  0  0  0  0  0  0  0
   -2.2519    2.5575    1.4360 H   0  0  0  0  0  0  0  0  0  0  0  0
   -3.4336    1.4736    2.2066 H   0  0  0  0  0  0  0  0  0  0  0  0
   -2.3381    2.7245    3.5824 C   0  0  0  0  0  0  0  0  0  0  0  0
   -2.4959    2.0567    4.4323 H   0  0  0  0  0  0  0  0  0  0  0  0
   -1.3340    3.1498    3.6498 H   0  0  0  0  0  0  0  0  0  0  0  0
   -3.3380    3.8116    3.6175 N   0  3  0  0  0  0  0  0  0  0  0  0
   -3.9168    3.9195    2.8022 H   0  0  0  0  0  0  0  0  0  0  0  0
   -3.5430    4.6530    4.6170 C   0  0  0  0  0  0  0  0  0  0  0  0
   -2.8492    4.6019    5.7194 N   0  0  0  0  0  0  0  0  0  0  0  0
   -2.1373    3.8989    5.8109 H   0  0  0  0  0  0  0  0  0  0  0  0
   -3.0173    5.2483    6.4683 H   0  0  0  0  0  0  0  0  0  0  0  0
   -4.4598    5.5742    4.5266 N   0  0  0  0  0  0  0  0  0  0  0  0
   -5.0207    5.6529    3.6958 H   0  0  0  0  0  0  0  0  0  0  0  0
   -4.6120    6.2104    5.2872 H   0  0  0  0  0  0  0  0  0  0  0  0
   -0.2367   -1.0741    0.9966 C   0  0  0  0  0  0  0  0  0  0  0  0
    0.8283   -0.7514    1.5092 O   0  0  0  0  0  0  0  0  0  0  0  0
   -0.4190   -2.2311    0.3525 N   0  0  0  0  0  0  0  0  0  0  0  0
   -1.3383   -2.4305   -0.0069 H   0  0  0  0  0  0  0  0  0  0  0  0
    0.6093   -3.2641    0.2176 C   0  0  0  0  0  0  0  0  0  0  0  0
    0.8689   -3.6576    1.2027 H   0  0  0  0  0  0  0  0  0  0  0  0
    0.2474   -4.0813   -0.4076 H   0  0  0  0  0  0  0  0  0  0  0  0
    1.5093   -2.8388   -0.2318 H   0  0  0  0  0  0  0  0  0  0  0  0
  5  6  2  0  0  0  0
  5  7  1  0  0  0  0
  2  3  1  0  0  0  0
  2  4  1  0  0  0  0
  2  5  1  0  0  0  0
  1  2  1  0  0  0  0
 29 30  2  0  0  0  0
 29 31  1  0  0  0  0
 26 27  1  0  0  0  0
 26 28  1  0  0  0  0
 23 24  1  0  0  0  0
 23 25  1  0  0  0  0
 22 23  1  0  0  0  0
 22 26  1  0  0  0  0
 20 21  1  0  0  0  0
 20 22  2  0  0  0  0
 17 18  1  0  0  0  0
 17 19  1  0  0  0  0
 17 20  1  0  0  0  0
 14 15  1  0  0  0  0
 14 16  1  0  0  0  0
 14 17  1  0  0  0  0
 11 12  1  0  0  0  0
 11 13  1  0  0  0  0
 11 14  1  0  0  0  0
  9 10  1  0  0  0  0
  9 11  1  0  0  0  0
  9 29  1  0  0  0  0
  7  8  1  0  0  0  0
  7  9  1  0  0  0  0
 33 34  1  0  0  0  0
 33 35  1  0  0  0  0
 33 36  1  0  0  0  0
 31 32  1  0  0  0  0
 31 33  1  0  0  0  0
M  CHG  1  20   1
M  END
$$$$
default_name
  -OEChem-01062215323D

 36 35  0     1  0  0  0  0  0999 V2000
   -4.2256   -3.6731    1.8584 H   0  0  0  0  0  0  0  0  0  0  0  0
   -4.2396   -2.6781    1.4144 C   0  0  0  0  0  0  0  0  0  0  0  0
   -4.9506   -2.0521    1.9514 H   0  0  0  0  0  0  0  0  0  0  0  0
   -4.5266   -2.7521    0.3674 H   0  0  0  0  0  0  0  0  0  0  0  0
   -2.8576   -2.0761    1.5184 C   0  0  0  0  0  0  0  0  0  0  0  0
   -1.9456   -2.7051    2.0404 O   0  0  0  0  0  0  0  0  0  0  0  0
   -2.6926   -0.8481    1.0174 N   0  0  0  0  0  0  0  0  0  0  0  0
   -3.4926   -0.3971    0.5954 H   0  0  0  0  0  0  0  0  0  0  0  0
   -1.4216   -0.1071    1.0434 C   0  0  1  0  0  0  0  0  0  0  0  0
   -1.3825    0.5396    0.1654 H   0  0  0  0  0  0  0  0  0  0  0  0
   -1.3956    0.7727    2.3093 C   0  0  0  0  0  0  0  0  0  0  0  0
   -1.5931    0.1404    3.1772 H   0  0  0  0  0  0  0  0  0  0  0  0
   -0.3987    1.2040    2.4238 H   0  0  0  0  0  0  0  0  0  0  0  0
   -2.4348    1.9032    2.2895 C   0  0  0  0  0  0  0  0  0  0  0  0
   -2.2519    2.5575    1.4360 H   0  0  0  0  0  0  0  0  0  0  0  0
   -3.4336    1.4736    2.2066 H   0  0  0  0  0  0  0  0  0  0  0  0
   -2.3381    2.7245    3.5824 C   0  0  0  0  0  0  0  0  0  0  0  0
   -2.4959    2.0567    4.4323 H   0  0  0  0  0  0  0  0  0  0  0  0
   -1.3340    3.1498    3.6498 H   0  0  0  0  0  0  0  0  0  0  0  0
   -3.3380    3.8116    3.6175 N   0  3  0  0  0  0  0  0  0  0  0  0
   -3.9168    3.9195    2.8022 H   0  0  0  0  0  0  0  0  0  0  0  0
   -3.5430    4.6530    4.6170 C   0  0  0  0  0  0  0  0  0  0  0  0
   -2.8492    4.6019    5.7194 N   0  0  0  0  0  0  0  0  0  0  0  0
   -2.1373    3.8989    5.8109 H   0  0  0  0  0  0  0  0  0  0  0  0
   -3.0173    5.2483    6.4683 H   0  0  0  0  0  0  0  0  0  0  0  0
   -4.4598    5.5742    4.5266 N   0  0  0  0  0  0  0  0  0  0  0  0
   -5.0207    5.6529    3.6958 H   0  0  0  0  0  0  0  0  0  0  0  0
   -4.6120    6.2104    5.2872 H   0  0  0  0  0  0  0  0  0  0  0  0
   -0.2367   -1.0741    0.9966 C   0  0  0  0  0  0  0  0  0  0  0  0
    0.7267   -0.8866    1.7299 O   0  0  0  0  0  0  0  0  0  0  0  0
   -0.3005   -2.0742    0.1121 N   0  0  0  0  0  0  0  0  0  0  0  0
   -1.1464   -2.1751   -0.4247 H   0  0  0  0  0  0  0  0  0  0  0  0
    0.7450   -3.0845   -0.0585 C   0  0  0  0  0  0  0  0  0  0  0  0
    0.8425   -3.6731    0.8562 H   0  0  0  0  0  0  0  0  0  0  0  0
    0.4979   -3.7512   -0.8857 H   0  0  0  0  0  0  0  0  0  0  0  0
    1.7029   -2.6003   -0.2606 H   0  0  0  0  0  0  0  0  0  0  0  0
  5  6  2  0  0  0  0
  5  7  1  0  0  0  0
  2  3  1  0  0  0  0
  2  4  1  0  0  0  0
  2  5  1  0  0  0  0
  1  2  1  0  0  0  0
 29 30  2  0  0  0  0
 29 31  1  0  0  0  0
 26 27  1  0  0  0  0
 26 28  1  0  0  0  0
 23 24  1  0  0  0  0
 23 25  1  0  0  0  0
 22 23  1  0  0  0  0
 22 26  1  0  0  0  0
 20 21  1  0  0  0  0
 20 22  2  0  0  0  0
 17 18  1  0  0  0  0
 17 19  1  0  0  0  0
 17 20  1  0  0  0  0
 14 15  1  0  0  0  0
 14 16  1  0  0  0  0
 14 17  1  0  0  0  0
 11 12  1  0  0  0  0
 11 13  1  0  0  0  0
 11 14  1  0  0  0  0
  9 10  1  0  0  0  0
  9 11  1  0  0  0  0
  9 29  1  0  0  0  0
  7  8  1  0  0  0  0
  7  9  1  0  0  0  0
 33 34  1  0  0  0  0
 33 35  1  0  0  0  0
 33 36  1  0  0  0  0
 31 32  1  0  0  0  0
 31 33  1  0  0  0  0
M  CHG  1  20   1
M  END
$$$$
default_name
  -OEChem-01062215323D

 36 35  0     1  0  0  0  0  0999 V2000
   -4.2256   -3.6731    1.8584 H   0  0  0  0  0  0  0  0  0  0  0  0
   -4.2396   -2.6781    1.4144 C   0  0  0  0  0  0  0  0  0  0  0  0
   -4.9506   -2.0521    1.9514 H   0  0  0  0  0  0  0  0  0  0  0  0
   -4.5266   -2.7521    0.3674 H   0  0  0  0  0  0  0  0  0  0  0  0
   -2.8576   -2.0761    1.5184 C   0  0  0  0  0  0  0  0  0  0  0  0
   -1.9456   -2.7051    2.0404 O   0  0  0  0  0  0  0  0  0  0  0  0
   -2.6926   -0.8481    1.0174 N   0  0  0  0  0  0  0  0  0  0  0  0
   -3.4926   -0.3971    0.5954 H   0  0  0  0  0  0  0  0  0  0  0  0
   -1.4216   -0.1071    1.0434 C   0  0  1  0  0  0  0  0  0  0  0  0
   -1.3825    0.5396    0.1654 H   0  0  0  0  0  0  0  0  0  0  0  0
   -1.3956    0.7727    2.3093 C   0  0  0  0  0  0  0  0  0  0  0  0
   -1.5931    0.1404    3.1772 H   0  0  0  0  0  0  0  0  0  0  0  0
   -0.3987    1.2040    2.4238 H   0  0  0  0  0  0  0  0  0  0  0  0
   -2.4348    1.9032    2.2895 C   0  0  0  0  0  0  0  0  0  0  0  0
   -2.2519    2.5575    1.4360 H   0  0  0  0  0  0  0  0  0  0  0  0
   -3.4336    1.4736    2.2066 H   0  0  0  0  0  0  0  0  0  0  0  0
   -2.3381    2.7245    3.5824 C   0  0  0  0  0  0  0  0  0  0  0  0
   -2.4959    2.0567    4.4323 H   0  0  0  0  0  0  0  0  0  0  0  0
   -1.3340    3.1498    3.6498 H   0  0  0  0  0  0  0  0  0  0  0  0
   -3.3380    3.8116    3.6175 N   0  3  0  0  0  0  0  0  0  0  0  0
   -3.9168    3.9195    2.8022 H   0  0  0  0  0  0  0  0  0  0  0  0
   -3.5430    4.6530    4.6170 C   0  0  0  0  0  0  0  0  0  0  0  0
   -2.8492    4.6019    5.7194 N   0  0  0  0  0  0  0  0  0  0  0  0
   -2.1373    3.8989    5.8109 H   0  0  0  0  0  0  0  0  0  0  0  0
   -3.0173    5.2483    6.4683 H   0  0  0  0  0  0  0  0  0  0  0  0
   -4.4598    5.5742    4.5266 N   0  0  0  0  0  0  0  0  0  0  0  0
   -5.0207    5.6529    3.6958 H   0  0  0  0  0  0  0  0  0  0  0  0
   -4.6120    6.2104    5.2872 H   0  0  0  0  0  0  0  0  0  0  0  0
   -0.2367   -1.0741    0.9966 C   0  0  0  0  0  0  0  0  0  0  0  0
    0.5914   -1.0606    1.8995 O   0  0  0  0  0  0  0  0  0  0  0  0
   -0.1455   -1.8755   -0.0693 N   0  0  0  0  0  0  0  0  0  0  0  0
   -0.8908   -1.8463   -0.7458 H   0  0  0  0  0  0  0  0  0  0  0  0
    0.9226   -2.8567   -0.2671 C   0  0  0  0  0  0  0  0  0  0  0  0
    0.8736   -3.6184    0.5140 H   0  0  0  0  0  0  0  0  0  0  0  0
    0.8207   -3.3385   -1.2404 H   0  0  0  0  0  0  0  0  0  0  0  0
    1.8964   -2.3656   -0.2091 H   0  0  0  0  0  0  0  0  0  0  0  0
  5  6  2  0  0  0  0
  5  7  1  0  0  0  0
  2  3  1  0  0  0  0
  2  4  1  0  0  0  0
  2  5  1  0  0  0  0
  1  2  1  0  0  0  0
 29 30  2  0  0  0  0
 29 31  1  0  0  0  0
 26 27  1  0  0  0  0
 26 28  1  0  0  0  0
 23 24  1  0  0  0  0
 23 25  1  0  0  0  0
 22 23  1  0  0  0  0
 22 26  1  0  0  0  0
 20 21  1  0  0  0  0
 20 22  2  0  0  0  0
 17 18  1  0  0  0  0
 17 19  1  0  0  0  0
 17 20  1  0  0  0  0
 14 15  1  0  0  0  0
 14 16  1  0  0  0  0
 14 17  1  0  0  0  0
 11 12  1  0  0  0  0
 11 13  1  0  0  0  0
 11 14  1  0  0  0  0
  9 10  1  0  0  0  0
  9 11  1  0  0  0  0
  9 29  1  0  0  0  0
  7  8  1  0  0  0  0
  7  9  1  0  0  0  0
 33 34  1  0  0  0  0
 33 35  1  0  0  0  0
 33 36  1  0  0  0  0
 31 32  1  0  0  0  0
 31 33  1  0  0  0  0
M  CHG  1  20   1
M  END
$$$$
default_name
  -OEChem-01062215323D

 36 35  0     1  0  0  0  0  0999 V2000
   -4.2256   -3.6731    1.8584 H   0  0  0  0  0  0  0  0  0  0  0  0
   -4.2396   -2.6781    1.4144 C   0  0  0  0  0  0  0  0  0  0  0  0
   -4.9506   -2.0521    1.9514 H   0  0  0  0  0  0  0  0  0  0  0  0
   -4.5266   -2.7521    0.3674 H   0  0  0  0  0  0  0  0  0  0  0  0
   -2.8576   -2.0761    1.5184 C   0  0  0  0  0  0  0  0  0  0  0  0
   -1.9456   -2.7051    2.0404 O   0  0  0  0  0  0  0  0  0  0  0  0
   -2.6926   -0.8481    1.0174 N   0  0  0  0  0  0  0  0  0  0  0  0
   -3.4926   -0.3971    0.5954 H   0  0  0  0  0  0  0  0  0  0  0  0
   -1.4216   -0.1071    1.0434 C   0  0  1  0  0  0  0  0  0  0  0  0
   -1.3825    0.5396    0.1654 H   0  0  0  0  0  0  0  0  0  0  0  0
   -1.3956    0.7727    2.3093 C   0  0  0  0  0  0  0  0  0  0  0  0
   -1.5931    0.1404    3.1772 H   0  0  0  0  0  0  0  0  0  0  0  0
   -0.3987    1.2040    2.4238 H   0  0  0  0  0  0  0  0  0  0  0  0
   -2.4348    1.9032    2.2895 C   0  0  0  0  0  0  0  0  0  0  0  0
   -2.2519    2.5575    1.4360 H   0  0  0  0  0  0  0  0  0  0  0  0
   -3.4336    1.4736    2.2066 H   0  0  0  0  0  0  0  0  0  0  0  0
   -2.3381    2.7245    3.5824 C   0  0  0  0  0  0  0  0  0  0  0  0
   -2.4959    2.0567    4.4323 H   0  0  0  0  0  0  0  0  0  0  0  0
   -1.3340    3.1498    3.6498 H   0  0  0  0  0  0  0  0  0  0  0  0
   -3.3380    3.8116    3.6175 N   0  3  0  0  0  0  0  0  0  0  0  0
   -3.9168    3.9195    2.8022 H   0  0  0  0  0  0  0  0  0  0  0  0
   -3.5430    4.6530    4.6170 C   0  0  0  0  0  0  0  0  0  0  0  0
   -2.8492    4.6019    5.7194 N   0  0  0  0  0  0  0  0  0  0  0  0
   -2.1373    3.8989    5.8109 H   0  0  0  0  0  0  0  0  0  0  0  0
   -3.0173    5.2483    6.4683 H   0  0  0  0  0  0  0  0  0  0  0  0
   -4.4598    5.5742    4.5266 N   0  0  0  0  0  0  0  0  0  0  0  0
   -5.0207    5.6529    3.6958 H   0  0  0  0  0  0  0  0  0  0  0  0
   -4.6120    6.2104    5.2872 H   0  0  0  0  0  0  0  0  0  0  0  0
   -0.2367   -1.0741    0.9966 C   0  0  0  0  0  0  0  0  0  0  0  0
    0.4316   -1.2616    2.0062 O   0  0  0  0  0  0  0  0  0  0  0  0
    0.0354   -1.6484   -0.1794 N   0  0  0  0  0  0  0  0  0  0  0  0
   -0.5887   -1.4663   -0.9483 H   0  0  0  0  0  0  0  0  0  0  0  0
    1.1301   -2.5963   -0.3939 C   0  0  0  0  0  0  0  0  0  0  0  0
    0.9601   -3.4972    0.1995 H   0  0  0  0  0  0  0  0  0  0  0  0
    1.1938   -2.8713   -1.4475 H   0  0  0  0  0  0  0  0  0  0  0  0
    2.0768   -2.1508   -0.0806 H   0  0  0  0  0  0  0  0  0  0  0  0
  5  6  2  0  0  0  0
  5  7  1  0  0  0  0
  2  3  1  0  0  0  0
  2  4  1  0  0  0  0
  2  5  1  0  0  0  0
  1  2  1  0  0  0  0
 29 30  2  0  0  0  0
 29 31  1  0  0  0  0
 26 27  1  0  0  0  0
 26 28  1  0  0  0  0
 23 24  1  0  0  0  0
 23 25  1  0  0  0  0
 22 23  1  0  0  0  0
 22 26  1  0  0  0  0
 20 21  1  0  0  0  0
 20 22  2  0  0  0  0
 17 18  1  0  0  0  0
 17 19  1  0  0  0  0
 17 20  1  0  0  0  0
 14 15  1  0  0  0  0
 14 16  1  0  0  0  0
 14 17  1  0  0  0  0
 11 12  1  0  0  0  0
 11 13  1  0  0  0  0
 11 14  1  0  0  0  0
  9 10  1  0  0  0  0
  9 11  1  0  0  0  0
  9 29  1  0  0  0  0
  7  8  1  0  0  0  0
  7  9  1  0  0  0  0
 33 34  1  0  0  0  0
 33 35  1  0  0  0  0
 33 36  1  0  0  0  0
 31 32  1  0  0  0  0
 31 33  1  0  0  0  0
M  CHG  1  20   1
M  END
$$$$
default_name
  -OEChem-01062215323D

 36 35  0     1  0  0  0  0  0999 V2000
   -4.2256   -3.6731    1.8584 H   0  0  0  0  0  0  0  0  0  0  0  0
   -4.2396   -2.6781    1.4144 C   0  0  0  0  0  0  0  0  0  0  0  0
   -4.9506   -2.0521    1.9514 H   0  0  0  0  0  0  0  0  0  0  0  0
   -4.5266   -2.7521    0.3674 H   0  0  0  0  0  0  0  0  0  0  0  0
   -2.8576   -2.0761    1.5184 C   0  0  0  0  0  0  0  0  0  0  0  0
   -1.9456   -2.7051    2.0404 O   0  0  0  0  0  0  0  0  0  0  0  0
   -2.6926   -0.8481    1.0174 N   0  0  0  0  0  0  0  0  0  0  0  0
   -3.4926   -0.3971    0.5954 H   0  0  0  0  0  0  0  0  0  0  0  0
   -1.4216   -0.1071    1.0434 C   0  0  1  0  0  0  0  0  0  0  0  0
   -1.3825    0.5396    0.1654 H   0  0  0  0  0  0  0  0  0  0  0  0
   -1.3956    0.7727    2.3093 C   0  0  0  0  0  0  0  0  0  0  0  0
   -1.5931    0.1404    3.1772 H   0  0  0  0  0  0  0  0  0  0  0  0
   -0.3987    1.2040    2.4238 H   0  0  0  0  0  0  0  0  0  0  0  0
   -2.4348    1.9032    2.2895 C   0  0  0  0  0  0  0  0  0  0  0  0
   -2.2519    2.5575    1.4360 H   0  0  0  0  0  0  0  0  0  0  0  0
   -3.4336    1.4736    2.2066 H   0  0  0  0  0  0  0  0  0  0  0  0
   -2.3381    2.7245    3.5824 C   0  0  0  0  0  0  0  0  0  0  0  0
   -2.4959    2.0567    4.4323 H   0  0  0  0  0  0  0  0  0  0  0  0
   -1.3340    3.1498    3.6498 H   0  0  0  0  0  0  0  0  0  0  0  0
   -3.3380    3.8116    3.6175 N   0  3  0  0  0  0  0  0  0  0  0  0
   -3.9168    3.9195    2.8022 H   0  0  0  0  0  0  0  0  0  0  0  0
   -3.5430    4.6530    4.6170 C   0  0  0  0  0  0  0  0  0  0  0  0
   -2.8492    4.6019    5.7194 N   0  0  0  0  0  0  0  0  0  0  0  0
   -2.1373    3.8989    5.8109 H   0  0  0  0  0  0  0  0  0  0  0  0
   -3.0173    5.2483    6.4683 H   0  0  0  0  0  0  0  0  0  0  0  0
   -4.4598    5.5742    4.5266 N   0  0  0  0  0  0  0  0  0  0  0  0
   -5.0207    5.6529    3.6958 H   0  0  0  0  0  0  0  0  0  0  0  0
   -4.6120    6.2104    5.2872 H   0  0  0  0  0  0  0  0  0  0  0  0
   -0.2367   -1.0741    0.9966 C   0  0  0  0  0  0  0  0  0  0  0  0
    0.2581   -1.4759    2.0429 O   0  0  0  0  0  0  0  0  0  0  0  0
    0.2301   -1.4084   -0.2105 N   0  0  0  0  0  0  0  0  0  0  0  0
   -0.2608   -1.0611   -1.0182 H   0  0  0  0  0  0  0  0  0  0  0  0
    1.3533   -2.3210   -0.4302 C   0  0  0  0  0  0  0  0  0  0  0  0
    1.0960   -3.3179   -0.0659 H   0  0  0  0  0  0  0  0  0  0  0  0
    1.5917   -2.3814   -1.4928 H   0  0  0  0  0  0  0  0  0  0  0  0
    2.2317   -1.9705    0.1161 H   0  0  0  0  0  0  0  0  0  0  0  0
  5  6  2  0  0  0  0
  5  7  1  0  0  0  0
  2  3  1  0  0  0  0
  2  4  1  0  0  0  0
  2  5  1  0  0  0  0
  1  2  1  0  0  0  0
 29 30  2  0  0  0  0
 29 31  1  0  0  0  0
 26 27  1  0  0  0  0
 26 28  1  0  0  0  0
 23 24  1  0  0  0  0
 23 25  1  0  0  0  0
 22 23  1  0  0  0  0
 22 26  1  0  0  0  0
 20 21  1  0  0  0  0
 20 22  2  0  0  0  0
 17 18  1  0  0  0  0
 17 19  1  0  0  0  0
 17 20  1  0  0  0  0
 14 15  1  0  0  0  0
 14 16  1  0  0  0  0
 14 17  1  0  0  0  0
 11 12  1  0  0  0  0
 11 13  1  0  0  0  0
 11 14  1  0  0  0  0
  9 10  1  0  0  0  0
  9 11  1  0  0  0  0
  9 29  1  0  0  0  0
  7  8  1  0  0  0  0
  7  9  1  0  0  0  0
 33 34  1  0  0  0  0
 33 35  1  0  0  0  0
 33 36  1  0  0  0  0
 31 32  1  0  0  0  0
 31 33  1  0  0  0  0
M  CHG  1  20   1
M  END
$$$$
default_name
  -OEChem-01062215323D

 36 35  0     1  0  0  0  0  0999 V2000
   -4.2256   -3.6731    1.8584 H   0  0  0  0  0  0  0  0  0  0  0  0
   -4.2396   -2.6781    1.4144 C   0  0  0  0  0  0  0  0  0  0  0  0
   -4.9506   -2.0521    1.9514 H   0  0  0  0  0  0  0  0  0  0  0  0
   -4.5266   -2.7521    0.3674 H   0  0  0  0  0  0  0  0  0  0  0  0
   -2.8576   -2.0761    1.5184 C   0  0  0  0  0  0  0  0  0  0  0  0
   -1.9456   -2.7051    2.0404 O   0  0  0  0  0  0  0  0  0  0  0  0
   -2.6926   -0.8481    1.0174 N   0  0  0  0  0  0  0  0  0  0  0  0
   -3.4926   -0.3971    0.5954 H   0  0  0  0  0  0  0  0  0  0  0  0
   -1.4216   -0.1071    1.0434 C   0  0  1  0  0  0  0  0  0  0  0  0
   -1.3825    0.5396    0.1654 H   0  0  0  0  0  0  0  0  0  0  0  0
   -1.3956    0.7727    2.3093 C   0  0  0  0  0  0  0  0  0  0  0  0
   -1.5931    0.1404    3.1772 H   0  0  0  0  0  0  0  0  0  0  0  0
   -0.3987    1.2040    2.4238 H   0  0  0  0  0  0  0  0  0  0  0  0
   -2.4348    1.9032    2.2895 C   0  0  0  0  0  0  0  0  0  0  0  0
   -2.2519    2.5575    1.4360 H   0  0  0  0  0  0  0  0  0  0  0  0
   -3.4336    1.4736    2.2066 H   0  0  0  0  0  0  0  0  0  0  0  0
   -2.3381    2.7245    3.5824 C   0  0  0  0  0  0  0  0  0  0  0  0
   -2.4959    2.0567    4.4323 H   0  0  0  0  0  0  0  0  0  0  0  0
   -1.3340    3.1498    3.6498 H   0  0  0  0  0  0  0  0  0  0  0  0
   -3.3380    3.8116    3.6175 N   0  3  0  0  0  0  0  0  0  0  0  0
   -3.9168    3.9195    2.8022 H   0  0  0  0  0  0  0  0  0  0  0  0
   -3.5430    4.6530    4.6170 C   0  0  0  0  0  0  0  0  0  0  0  0
   -2.8492    4.6019    5.7194 N   0  0  0  0  0  0  0  0  0  0  0  0
   -2.1373    3.8989    5.8109 H   0  0  0  0  0  0  0  0  0  0  0  0
   -3.0173    5.2483    6.4683 H   0  0  0  0  0  0  0  0  0  0  0  0
   -4.4598    5.5742    4.5266 N   0  0  0  0  0  0  0  0  0  0  0  0
   -5.0207    5.6529    3.6958 H   0  0  0  0  0  0  0  0  0  0  0  0
   -4.6120    6.2104    5.2872 H   0  0  0  0  0  0  0  0  0  0  0  0
   -0.2367   -1.0741    0.9966 C   0  0  0  0  0  0  0  0  0  0  0  0
    0.0829   -1.6889    2.0070 O   0  0  0  0  0  0  0  0  0  0  0  0
    0.4250   -1.1719   -0.1607 N   0  0  0  0  0  0  0  0  0  0  0  0
    0.0706   -0.6583   -0.9509 H   0  0  0  0  0  0  0  0  0  0  0  0
    1.5771   -2.0496   -0.3736 C   0  0  0  0  0  0  0  0  0  0  0  0
    1.2721   -3.0925   -0.2640 H   0  0  0  0  0  0  0  0  0  0  0  0
    1.9874   -1.9023   -1.3734 H   0  0  0  0  0  0  0  0  0  0  0  0
    2.3506   -1.8370    0.3676 H   0  0  0  0  0  0  0  0  0  0  0  0
  5  6  2  0  0  0  0
  5  7  1  0  0  0  0
  2  3  1  0  0  0  0
  2  4  1  0  0  0  0
  2  5  1  0  0  0  0
  1  2  1  0  0  0  0
 29 30  2  0  0  0  0
 29 31  1  0  0  0  0
 26 27  1  0  0  0  0
 26 28  1  0  0  0  0
 23 24  1  0  0  0  0
 23 25  1  0  0  0  0
 22 23  1  0  0  0  0
 22 26  1  0  0  0  0
 20 21  1  0  0  0  0
 20 22  2  0  0  0  0
 17 18  1  0  0  0  0
 17 19  1  0  0  0  0
 17 20  1  0  0  0  0
 14 15  1  0  0  0  0
 14 16  1  0  0  0  0
 14 17  1  0  0  0  0
 11 12  1  0  0  0  0
 11 13  1  0  0  0  0
 11 14  1  0  0  0  0
  9 10  1  0  0  0  0
  9 11  1  0  0  0  0
  9 29  1  0  0  0  0
  7  8  1  0  0  0  0
  7  9  1  0  0  0  0
 33 34  1  0  0  0  0
 33 35  1  0  0  0  0
 33 36  1  0  0  0  0
 31 32  1  0  0  0  0
 31 33  1  0  0  0  0
M  CHG  1  20   1
M  END
$$$$
default_name
  -OEChem-01062215323D

 36 35  0     1  0  0  0  0  0999 V2000
   -4.2256   -3.6731    1.8584 H   0  0  0  0  0  0  0  0  0  0  0  0
   -4.2396   -2.6781    1.4144 C   0  0  0  0  0  0  0  0  0  0  0  0
   -4.9506   -2.0521    1.9514 H   0  0  0  0  0  0  0  0  0  0  0  0
   -4.5266   -2.7521    0.3674 H   0  0  0  0  0  0  0  0  0  0  0  0
   -2.8576   -2.0761    1.5184 C   0  0  0  0  0  0  0  0  0  0  0  0
   -1.9456   -2.7051    2.0404 O   0  0  0  0  0  0  0  0  0  0  0  0
   -2.6926   -0.8481    1.0174 N   0  0  0  0  0  0  0  0  0  0  0  0
   -3.4926   -0.3971    0.5954 H   0  0  0  0  0  0  0  0  0  0  0  0
   -1.4216   -0.1071    1.0434 C   0  0  1  0  0  0  0  0  0  0  0  0
   -1.3825    0.5396    0.1654 H   0  0  0  0  0  0  0  0  0  0  0  0
   -1.3956    0.7727    2.3093 C   0  0  0  0  0  0  0  0  0  0  0  0
   -1.5931    0.1404    3.1772 H   0  0  0  0  0  0  0  0  0  0  0  0
   -0.3987    1.2040    2.4238 H   0  0  0  0  0  0  0  0  0  0  0  0
   -2.4348    1.9032    2.2895 C   0  0  0  0  0  0  0  0  0  0  0  0
   -2.2519    2.5575    1.4360 H   0  0  0  0  0  0  0  0  0  0  0  0
   -3.4336    1.4736    2.2066 H   0  0  0  0  0  0  0  0  0  0  0  0
   -2.3381    2.7245    3.5824 C   0  0  0  0  0  0  0  0  0  0  0  0
   -2.4959    2.0567    4.4323 H   0  0  0  0  0  0  0  0  0  0  0  0
   -1.3340    3.1498    3.6498 H   0  0  0  0  0  0  0  0  0  0  0  0
   -3.3380    3.8116    3.6175 N   0  3  0  0  0  0  0  0  0  0  0  0
   -3.9168    3.9195    2.8022 H   0  0  0  0  0  0  0  0  0  0  0  0
   -3.5430    4.6530    4.6170 C   0  0  0  0  0  0  0  0  0  0  0  0
   -2.8492    4.6019    5.7194 N   0  0  0  0  0  0  0  0  0  0  0  0
   -2.1373    3.8989    5.8109 H   0  0  0  0  0  0  0  0  0  0  0  0
   -3.0173    5.2483    6.4683 H   0  0  0  0  0  0  0  0  0  0  0  0
   -4.4598    5.5742    4.5266 N   0  0  0  0  0  0  0  0  0  0  0  0
   -5.0207    5.6529    3.6958 H   0  0  0  0  0  0  0  0  0  0  0  0
   -4.6120    6.2104    5.2872 H   0  0  0  0  0  0  0  0  0  0  0  0
   -0.2367   -1.0741    0.9966 C   0  0  0  0  0  0  0  0  0  0  0  0
   -0.0822   -1.8860    1.9010 O   0  0  0  0  0  0  0  0  0  0  0  0
    0.6071   -0.9550   -0.0333 N   0  0  0  0  0  0  0  0  0  0  0  0
    0.3829   -0.2853   -0.7510 H   0  0  0  0  0  0  0  0  0  0  0  0
    1.7861   -1.8006   -0.2279 C   0  0  0  0  0  0  0  0  0  0  0  0
    1.4763   -2.8365   -0.3814 H   0  0  0  0  0  0  0  0  0  0  0  0
    2.3539   -1.4667   -1.0973 H   0  0  0  0  0  0  0  0  0  0  0  0
    2.4254   -1.7594    0.6567 H   0  0  0  0  0  0  0  0  0  0  0  0
  5  6  2  0  0  0  0
  5  7  1  0  0  0  0
  2  3  1  0  0  0  0
  2  4  1  0  0  0  0
  2  5  1  0  0  0  0
  1  2  1  0  0  0  0
 29 30  2  0  0  0  0
 29 31  1  0  0  0  0
 26 27  1  0  0  0  0
 26 28  1  0  0  0  0
 23 24  1  0  0  0  0
 23 25  1  0  0  0  0
 22 23  1  0  0  0  0
 22 26  1  0  0  0  0
 20 21  1  0  0  0  0
 20 22  2  0  0  0  0
 17 18  1  0  0  0  0
 17 19  1  0  0  0  0
 17 20  1  0  0  0  0
 14 15  1  0  0  0  0
 14 16  1  0  0  0  0
 14 17  1  0  0  0  0
 11 12  1  0  0  0  0
 11 13  1  0  0  0  0
 11 14  1  0  0  0  0
  9 10  1  0  0  0  0
  9 11  1  0  0  0  0
  9 29  1  0  0  0  0
  7  8  1  0  0  0  0
  7  9  1  0  0  0  0
 33 34  1  0  0  0  0
 33 35  1  0  0  0  0
 33 36  1  0  0  0  0
 31 32  1  0  0  0  0
 31 33  1  0  0  0  0
M  CHG  1  20   1
M  END
$$$$
default_name
  -OEChem-01062215323D

 36 35  0     1  0  0  0  0  0999 V2000
   -4.2256   -3.6731    1.8584 H   0  0  0  0  0  0  0  0  0  0  0  0
   -4.2396   -2.6781    1.4144 C   0  0  0  0  0  0  0  0  0  0  0  0
   -4.9506   -2.0521    1.9514 H   0  0  0  0  0  0  0  0  0  0  0  0
   -4.5266   -2.7521    0.3674 H   0  0  0  0  0  0  0  0  0  0  0  0
   -2.8576   -2.0761    1.5184 C   0  0  0  0  0  0  0  0  0  0  0  0
   -1.9456   -2.7051    2.0404 O   0  0  0  0  0  0  0  0  0  0  0  0
   -2.6926   -0.8481    1.0174 N   0  0  0  0  0  0  0  0  0  0  0  0
   -3.4926   -0.3971    0.5954 H   0  0  0  0  0  0  0  0  0  0  0  0
   -1.4216   -0.1071    1.0434 C   0  0  1  0  0  0  0  0  0  0  0  0
   -1.3825    0.5396    0.1654 H   0  0  0  0  0  0  0  0  0  0  0  0
   -1.3956    0.7727    2.3093 C   0  0  0  0  0  0  0  0  0  0  0  0
   -1.5931    0.1404    3.1772 H   0  0  0  0  0  0  0  0  0  0  0  0
   -0.3987    1.2040    2.4238 H   0  0  0  0  0  0  0  0  0  0  0  0
   -2.4348    1.9032    2.2895 C   0  0  0  0  0  0  0  0  0  0  0  0
   -2.2519    2.5575    1.4360 H   0  0  0  0  0  0  0  0  0  0  0  0
   -3.4336    1.4736    2.2066 H   0  0  0  0  0  0  0  0  0  0  0  0
   -2.3381    2.7245    3.5824 C   0  0  0  0  0  0  0  0  0  0  0  0
   -2.4959    2.0567    4.4323 H   0  0  0  0  0  0  0  0  0  0  0  0
   -1.3340    3.1498    3.6498 H   0  0  0  0  0  0  0  0  0  0  0  0
   -3.3380    3.8116    3.6175 N   0  3  0  0  0  0  0  0  0  0  0  0
   -3.9168    3.9195    2.8022 H   0  0  0  0  0  0  0  0  0  0  0  0
   -3.5430    4.6530    4.6170 C   0  0  0  0  0  0  0  0  0  0  0  0
   -2.8492    4.6019    5.7194 N   0  0  0  0  0  0  0  0  0  0  0  0
   -2.1373    3.8989    5.8109 H   0  0  0  0  0  0  0  0  0  0  0  0
   -3.0173    5.2483    6.4683 H   0  0  0  0  0  0  0  0  0  0  0  0
   -4.4598    5.5742    4.5266 N   0  0  0  0  0  0  0  0  0  0  0  0
   -5.0207    5.6529    3.6958 H   0  0  0  0  0  0  0  0  0  0  0  0
   -4.6120    6.2104    5.2872 H   0  0  0  0  0  0  0  0  0  0  0  0
   -0.2367   -1.0741    0.9966 C   0  0  0  0  0  0  0  0  0  0  0  0
   -0.2258   -2.0539    1.7321 O   0  0  0  0  0  0  0  0  0  0  0  0
    0.7638   -0.7725    0.1631 N   0  0  0  0  0  0  0  0  0  0  0  0
    0.6548    0.0324   -0.4321 H   0  0  0  0  0  0  0  0  0  0  0  0
    1.9661   -1.5908   -0.0031 C   0  0  0  0  0  0  0  0  0  0  0  0
    1.6949   -2.5673   -0.4101 H   0  0  0  0  0  0  0  0  0  0  0  0
    2.6662   -1.1041   -0.6833 H   0  0  0  0  0  0  0  0  0  0  0  0
    2.4509   -1.7430    0.9637 H   0  0  0  0  0  0  0  0  0  0  0  0
  5  6  2  0  0  0  0
  5  7  1  0  0  0  0
  2  3  1  0  0  0  0
  2  4  1  0  0  0  0
  2  5  1  0  0  0  0
  1  2  1  0  0  0  0
 29 30  2  0  0  0  0
 29 31  1  0  0  0  0
 26 27  1  0  0  0  0
 26 28  1  0  0  0  0
 23 24  1  0  0  0  0
 23 25  1  0  0  0  0
 22 23  1  0  0  0  0
 22 26  1  0  0  0  0
 20 21  1  0  0  0  0
 20 22  2  0  0  0  0
 17 18  1  0  0  0  0
 17 19  1  0  0  0  0
 17 20  1  0  0  0  0
 14 15  1  0  0  0  0
 14 16  1  0  0  0  0
 14 17  1  0  0  0  0
 11 12  1  0  0  0  0
 11 13  1  0  0  0  0
 11 14  1  0  0  0  0
  9 10  1  0  0  0  0
  9 11  1  0  0  0  0
  9 29  1  0  0  0  0
  7  8  1  0  0  0  0
  7  9  1  0  0  0  0
 33 34  1  0  0  0  0
 33 35  1  0  0  0  0
 33 36  1  0  0  0  0
 31 32  1  0  0  0  0
 31 33  1  0  0  0  0
M  CHG  1  20   1
M  END
$$$$
default_name
  -OEChem-01062215323D

 36 35  0     1  0  0  0  0  0999 V2000
   -4.2256   -3.6731    1.8584 H   0  0  0  0  0  0  0  0  0  0  0  0
   -4.2396   -2.6781    1.4144 C   0  0  0  0  0  0  0  0  0  0  0  0
   -4.9506   -2.0521    1.9514 H   0  0  0  0  0  0  0  0  0  0  0  0
   -4.5266   -2.7521    0.3674 H   0  0  0  0  0  0  0  0  0  0  0  0
   -2.8576   -2.0761    1.5184 C   0  0  0  0  0  0  0  0  0  0  0  0
   -1.9456   -2.7051    2.0404 O   0  0  0  0  0  0  0  0  0  0  0  0
   -2.6926   -0.8481    1.0174 N   0  0  0  0  0  0  0  0  0  0  0  0
   -3.4926   -0.3971    0.5954 H   0  0  0  0  0  0  0  0  0  0  0  0
   -1.4216   -0.1071    1.0434 C   0  0  1  0  0  0  0  0  0  0  0  0
   -1.3825    0.5396    0.1654 H   0  0  0  0  0  0  0  0  0  0  0  0
   -1.3956    0.7727    2.3093 C   0  0  0  0  0  0  0  0  0  0  0  0
   -1.5931    0.1404    3.1772 H   0  0  0  0  0  0  0  0  0  0  0  0
   -0.3987    1.2040    2.4238 H   0  0  0  0  0  0  0  0  0  0  0  0
   -2.4348    1.9032    2.2895 C   0  0  0  0  0  0  0  0  0  0  0  0
   -2.2519    2.5575    1.4360 H   0  0  0  0  0  0  0  0  0  0  0  0
   -3.4336    1.4736    2.2066 H   0  0  0  0  0  0  0  0  0  0  0  0
   -2.3381    2.7245    3.5824 C   0  0  0  0  0  0  0  0  0  0  0  0
   -2.4959    2.0567    4.4323 H   0  0  0  0  0  0  0  0  0  0  0  0
   -1.3340    3.1498    3.6498 H   0  0  0  0  0  0  0  0  0  0  0  0
   -3.3380    3.8116    3.6175 N   0  3  0  0  0  0  0  0  0  0  0  0
   -3.9168    3.9195    2.8022 H   0  0  0  0  0  0  0  0  0  0  0  0
   -3.5430    4.6530    4.6170 C   0  0  0  0  0  0  0  0  0  0  0  0
   -2.8492    4.6019    5.7194 N   0  0  0  0  0  0  0  0  0  0  0  0
   -2.1373    3.8989    5.8109 H   0  0  0  0  0  0  0  0  0  0  0  0
   -3.0173    5.2483    6.4683 H   0  0  0  0  0  0  0  0  0  0  0  0
   -4.4598    5.5742    4.5266 N   0  0  0  0  0  0  0  0  0  0  0  0
   -5.0207    5.6529    3.6958 H   0  0  0  0  0  0  0  0  0  0  0  0
   -4.6120    6.2104    5.2872 H   0  0  0  0  0  0  0  0  0  0  0  0
   -0.2367   -1.0741    0.9966 C   0  0  0  0  0  0  0  0  0  0  0  0
   -0.3383   -2.1810    1.5118 O   0  0  0  0  0  0  0  0  0  0  0  0
    0.8845   -0.6368    0.4149 N   0  0  0  0  0  0  0  0  0  0  0  0
    0.8678    0.2732   -0.0158 H   0  0  0  0  0  0  0  0  0  0  0  0
    2.1049   -1.4348    0.2856 C   0  0  0  0  0  0  0  0  0  0  0  0
    1.9128   -2.3033   -0.3481 H   0  0  0  0  0  0  0  0  0  0  0  0
    2.9029   -0.8393   -0.1597 H   0  0  0  0  0  0  0  0  0  0  0  0
    2.4255   -1.7889    1.2678 H   0  0  0  0  0  0  0  0  0  0  0  0
  5  6  2  0  0  0  0
  5  7  1  0  0  0  0
  2  3  1  0  0  0  0
  2  4  1  0  0  0  0
  2  5  1  0  0  0  0
  1  2  1  0  0  0  0
 29 30  2  0  0  0  0
 29 31  1  0  0  0  0
 26 27  1  0  0  0  0
 26 28  1  0  0  0  0
 23 24  1  0  0  0  0
 23 25  1  0  0  0  0
 22 23  1  0  0  0  0
 22 26  1  0  0  0  0
 20 21  1  0  0  0  0
 20 22  2  0  0  0  0
 17 18  1  0  0  0  0
 17 19  1  0  0  0  0
 17 20  1  0  0  0  0
 14 15  1  0  0  0  0
 14 16  1  0  0  0  0
 14 17  1  0  0  0  0
 11 12  1  0  0  0  0
 11 13  1  0  0  0  0
 11 14  1  0  0  0  0
  9 10  1  0  0  0  0
  9 11  1  0  0  0  0
  9 29  1  0  0  0  0
  7  8  1  0  0  0  0
  7  9  1  0  0  0  0
 33 34  1  0  0  0  0
 33 35  1  0  0  0  0
 33 36  1  0  0  0  0
 31 32  1  0  0  0  0
 31 33  1  0  0  0  0
M  CHG  1  20   1
M  END
$$$$
default_name
  -OEChem-01062215323D

 36 35  0     1  0  0  0  0  0999 V2000
   -4.2256   -3.6731    1.8584 H   0  0  0  0  0  0  0  0  0  0  0  0
   -4.2396   -2.6781    1.4144 C   0  0  0  0  0  0  0  0  0  0  0  0
   -4.9506   -2.0521    1.9514 H   0  0  0  0  0  0  0  0  0  0  0  0
   -4.5266   -2.7521    0.3674 H   0  0  0  0  0  0  0  0  0  0  0  0
   -2.8576   -2.0761    1.5184 C   0  0  0  0  0  0  0  0  0  0  0  0
   -1.9456   -2.7051    2.0404 O   0  0  0  0  0  0  0  0  0  0  0  0
   -2.6926   -0.8481    1.0174 N   0  0  0  0  0  0  0  0  0  0  0  0
   -3.4926   -0.3971    0.5954 H   0  0  0  0  0  0  0  0  0  0  0  0
   -1.4216   -0.1071    1.0434 C   0  0  1  0  0  0  0  0  0  0  0  0
   -1.3825    0.5396    0.1654 H   0  0  0  0  0  0  0  0  0  0  0  0
   -1.3956    0.7727    2.3093 C   0  0  0  0  0  0  0  0  0  0  0  0
   -1.5931    0.1404    3.1772 H   0  0  0  0  0  0  0  0  0  0  0  0
   -0.3987    1.2040    2.4238 H   0  0  0  0  0  0  0  0  0  0  0  0
   -2.4348    1.9032    2.2895 C   0  0  0  0  0  0  0  0  0  0  0  0
   -2.2519    2.5575    1.4360 H   0  0  0  0  0  0  0  0  0  0  0  0
   -3.4336    1.4736    2.2066 H   0  0  0  0  0  0  0  0  0  0  0  0
   -2.3381    2.7245    3.5824 C   0  0  0  0  0  0  0  0  0  0  0  0
   -2.4959    2.0567    4.4323 H   0  0  0  0  0  0  0  0  0  0  0  0
   -1.3340    3.1498    3.6498 H   0  0  0  0  0  0  0  0  0  0  0  0
   -3.3380    3.8116    3.6175 N   0  3  0  0  0  0  0  0  0  0  0  0
   -3.9168    3.9195    2.8022 H   0  0  0  0  0  0  0  0  0  0  0  0
   -3.5430    4.6530    4.6170 C   0  0  0  0  0  0  0  0  0  0  0  0
   -2.8492    4.6019    5.7194 N   0  0  0  0  0  0  0  0  0  0  0  0
   -2.1373    3.8989    5.8109 H   0  0  0  0  0  0  0  0  0  0  0  0
   -3.0173    5.2483    6.4683 H   0  0  0  0  0  0  0  0  0  0  0  0
   -4.4598    5.5742    4.5266 N   0  0  0  0  0  0  0  0  0  0  0  0
   -5.0207    5.6529    3.6958 H   0  0  0  0  0  0  0  0  0  0  0  0
   -4.6120    6.2104    5.2872 H   0  0  0  0  0  0  0  0  0  0  0  0
   -0.2367   -1.0741    0.9966 C   0  0  0  0  0  0  0  0  0  0  0  0
   -0.4119   -2.2588    1.2551 O   0  0  0  0  0  0  0  0  0  0  0  0
    0.9610   -0.5571    0.7051 N   0  0  0  0  0  0  0  0  0  0  0  0
    1.0074    0.4207    0.4693 H   0  0  0  0  0  0  0  0  0  0  0  0
    2.1930   -1.3430    0.6184 C   0  0  0  0  0  0  0  0  0  0  0  0
    2.1153   -2.0624   -0.1996 H   0  0  0  0  0  0  0  0  0  0  0  0
    3.0481   -0.6904    0.4379 H   0  0  0  0  0  0  0  0  0  0  0  0
    2.3509   -1.8939    1.5481 H   0  0  0  0  0  0  0  0  0  0  0  0
  5  6  2  0  0  0  0
  5  7  1  0  0  0  0
  2  3  1  0  0  0  0
  2  4  1  0  0  0  0
  2  5  1  0  0  0  0
  1  2  1  0  0  0  0
 29 30  2  0  0  0  0
 29 31  1  0  0  0  0
 26 27  1  0  0  0  0
 26 28  1  0  0  0  0
 23 24  1  0  0  0  0
 23 25  1  0  0  0  0
 22 23  1  0  0  0  0
 22 26  1  0  0  0  0
 20 21  1  0  0  0  0
 20 22  2  0  0  0  0
 17 18  1  0  0  0  0
 17 19  1  0  0  0  0
 17 20  1  0  0  0  0
 14 15  1  0  0  0  0
 14 16  1  0  0  0  0
 14 17  1  0  0  0  0
 11 12  1  0  0  0  0
 11 13  1  0  0  0  0
 11 14  1  0  0  0  0
  9 10  1  0  0  0  0
  9 11  1  0  0  0  0
  9 29  1  0  0  0  0
  7  8  1  0  0  0  0
  7  9  1  0  0  0  0
 33 34  1  0  0  0  0
 33 35  1  0  0  0  0
 33 36  1  0  0  0  0
 31 32  1  0  0  0  0
 31 33  1  0  0  0  0
M  CHG  1  20   1
M  END
$$$$
default_name
  -OEChem-01062215323D

 36 35  0     1  0  0  0  0  0999 V2000
   -4.2256   -3.6731    1.8584 H   0  0  0  0  0  0  0  0  0  0  0  0
   -4.2396   -2.6781    1.4144 C   0  0  0  0  0  0  0  0  0  0  0  0
   -4.9506   -2.0521    1.9514 H   0  0  0  0  0  0  0  0  0  0  0  0
   -4.5266   -2.7521    0.3674 H   0  0  0  0  0  0  0  0  0  0  0  0
   -2.8576   -2.0761    1.5184 C   0  0  0  0  0  0  0  0  0  0  0  0
   -1.9456   -2.7051    2.0404 O   0  0  0  0  0  0  0  0  0  0  0  0
   -2.6926   -0.8481    1.0174 N   0  0  0  0  0  0  0  0  0  0  0  0
   -3.4926   -0.3971    0.5954 H   0  0  0  0  0  0  0  0  0  0  0  0
   -1.4216   -0.1071    1.0434 C   0  0  1  0  0  0  0  0  0  0  0  0
   -1.4911    0.7200    0.3350 H   0  0  0  0  0  0  0  0  0  0  0  0
   -1.2212    0.4683    2.4598 C   0  0  0  0  0  0  0  0  0  0  0  0
   -1.3098   -0.3456    3.1822 H   0  0  0  0  0  0  0  0  0  0  0  0
   -0.2135    0.8823    2.5375 H   0  0  0  0  0  0  0  0  0  0  0  0
   -2.2424    1.5542    2.8286 C   0  0  0  0  0  0  0  0  0  0  0  0
   -2.1661    2.3860    2.1269 H   0  0  0  0  0  0  0  0  0  0  0  0
   -3.2478    1.1347    2.7821 H   0  0  0  0  0  0  0  0  0  0  0  0
   -1.9689    2.0679    4.2488 C   0  0  0  0  0  0  0  0  0  0  0  0
   -2.0210    1.2242    4.9408 H   0  0  0  0  0  0  0  0  0  0  0  0
   -0.9603    2.4867    4.2788 H   0  0  0  0  0  0  0  0  0  0  0  0
   -2.9444    3.1001    4.6558 N   0  3  0  0  0  0  0  0  0  0  0  0
   -3.6238    3.3760    3.9676 H   0  0  0  0  0  0  0  0  0  0  0  0
   -3.0082    3.6930    5.8363 C   0  0  0  0  0  0  0  0  0  0  0  0
   -2.1767    3.4105    6.7996 N   0  0  0  0  0  0  0  0  0  0  0  0
   -1.4662    2.7187    6.6382 H   0  0  0  0  0  0  0  0  0  0  0  0
   -2.2387    3.8701    7.6895 H   0  0  0  0  0  0  0  0  0  0  0  0
   -3.9195    4.5932    6.0742 N   0  0  0  0  0  0  0  0  0  0  0  0
   -4.5835    4.8445    5.3622 H   0  0  0  0  0  0  0  0  0  0  0  0
   -3.9644    5.0404    6.9711 H   0  0  0  0  0  0  0  0  0  0  0  0
   -0.2630   -1.0161    0.6279 C   0  0  0  0  0  0  0  0  0  0  0  0
   -0.4808   -2.1933    0.3677 O   0  0  0  0  0  0  0  0  0  0  0  0
    0.9589   -0.4746    0.6055 N   0  0  0  0  0  0  0  0  0  0  0  0
    1.0414    0.5104    0.7975 H   0  0  0  0  0  0  0  0  0  0  0  0
    2.1711   -1.2043    0.2298 C   0  0  0  0  0  0  0  0  0  0  0  0
    2.1051   -1.5172   -0.8144 H   0  0  0  0  0  0  0  0  0  0  0  0
    3.0503   -0.5713    0.3565 H   0  0  0  0  0  0  0  0  0  0  0  0
    2.2777   -2.0964    0.8509 H   0  0  0  0  0  0  0  0  0  0  0  0
  5  6  2  0  0  0  0
  5  7  1  0  0  0  0
  2  3  1  0  0  0  0
  2  4  1  0  0  0  0
  2  5  1  0  0  0  0
  1  2  1  0  0  0  0
 29 30  2  0  0  0  0
 29 31  1  0  0  0  0
 26 27  1  0  0  0  0
 26 28  1  0  0  0  0
 23 24  1  0  0  0  0
 23 25  1  0  0  0  0
 22 23  1  0  0  0  0
 22 26  1  0  0  0  0
 20 21  1  0  0  0  0
 20 22  2  0  0  0  0
 17 18  1  0  0  0  0
 17 19  1  0  0  0  0
 17 20  1  0  0  0  0
 14 15  1  0  0  0  0
 14 16  1  0  0  0  0
 14 17  1  0  0  0  0
 11 12  1  0  0  0  0
 11 13  1  0  0  0  0
 11 14  1  0  0  0  0
  9 10  1  0  0  0  0
  9 11  1  0  0  0  0
  9 29  1  0  0  0  0
  7  8  1  0  0  0  0
  7  9  1  0  0  0  0
 33 34  1  0  0  0  0
 33 35  1  0  0  0  0
 33 36  1  0  0  0  0
 31 32  1  0  0  0  0
 31 33  1  0  0  0  0
M  CHG  1  20   1
M  END
$$$$
default_name
  -OEChem-01062215323D

 36 35  0     1  0  0  0  0  0999 V2000
   -4.2256   -3.6731    1.8584 H   0  0  0  0  0  0  0  0  0  0  0  0
   -4.2396   -2.6781    1.4144 C   0  0  0  0  0  0  0  0  0  0  0  0
   -4.9506   -2.0521    1.9514 H   0  0  0  0  0  0  0  0  0  0  0  0
   -4.5266   -2.7521    0.3674 H   0  0  0  0  0  0  0  0  0  0  0  0
   -2.8576   -2.0761    1.5184 C   0  0  0  0  0  0  0  0  0  0  0  0
   -1.9456   -2.7051    2.0404 O   0  0  0  0  0  0  0  0  0  0  0  0
   -2.6926   -0.8481    1.0174 N   0  0  0  0  0  0  0  0  0  0  0  0
   -3.4926   -0.3971    0.5954 H   0  0  0  0  0  0  0  0  0  0  0  0
   -1.4216   -0.1071    1.0434 C   0  0  1  0  0  0  0  0  0  0  0  0
   -1.4911    0.7200    0.3350 H   0  0  0  0  0  0  0  0  0  0  0  0
   -1.2212    0.4683    2.4598 C   0  0  0  0  0  0  0  0  0  0  0  0
   -1.3098   -0.3456    3.1822 H   0  0  0  0  0  0  0  0  0  0  0  0
   -0.2135    0.8823    2.5375 H   0  0  0  0  0  0  0  0  0  0  0  0
   -2.2424    1.5542    2.8286 C   0  0  0  0  0  0  0  0  0  0  0  0
   -2.1661    2.3860    2.1269 H   0  0  0  0  0  0  0  0  0  0  0  0
   -3.2478    1.1347    2.7821 H   0  0  0  0  0  0  0  0  0  0  0  0
   -1.9689    2.0679    4.2488 C   0  0  0  0  0  0  0  0  0  0  0  0
   -2.0210    1.2242    4.9408 H   0  0  0  0  0  0  0  0  0  0  0  0
   -0.9603    2.4867    4.2788 H   0  0  0  0  0  0  0  0  0  0  0  0
   -2.9444    3.1001    4.6558 N   0  3  0  0  0  0  0  0  0  0  0  0
   -3.6238    3.3760    3.9676 H   0  0  0  0  0  0  0  0  0  0  0  0
   -3.0082    3.6930    5.8363 C   0  0  0  0  0  0  0  0  0  0  0  0
   -2.1767    3.4105    6.7996 N   0  0  0  0  0  0  0  0  0  0  0  0
   -1.4662    2.7187    6.6382 H   0  0  0  0  0  0  0  0  0  0  0  0
   -2.2387    3.8701    7.6895 H   0  0  0  0  0  0  0  0  0  0  0  0
   -3.9195    4.5932    6.0742 N   0  0  0  0  0  0  0  0  0  0  0  0
   -4.5835    4.8445    5.3622 H   0  0  0  0  0  0  0  0  0  0  0  0
   -3.9644    5.0404    6.9711 H   0  0  0  0  0  0  0  0  0  0  0  0
   -0.2630   -1.0161    0.6279 C   0  0  0  0  0  0  0  0  0  0  0  0
   -0.5005   -2.0991    0.1068 O   0  0  0  0  0  0  0  0  0  0  0  0
    0.9745   -0.5869    0.8946 N   0  0  0  0  0  0  0  0  0  0  0  0
    1.0791    0.3327    1.2911 H   0  0  0  0  0  0  0  0  0  0  0  0
    2.1894   -1.3327    0.5617 C   0  0  0  0  0  0  0  0  0  0  0  0
    2.2750   -1.4341   -0.5223 H   0  0  0  0  0  0  0  0  0  0  0  0
    3.0702   -0.8131    0.9409 H   0  0  0  0  0  0  0  0  0  0  0  0
    2.1455   -2.3325    0.9990 H   0  0  0  0  0  0  0  0  0  0  0  0
  5  6  2  0  0  0  0
  5  7  1  0  0  0  0
  2  3  1  0  0  0  0
  2  4  1  0  0  0  0
  2  5  1  0  0  0  0
  1  2  1  0  0  0  0
 29 30  2  0  0  0  0
 29 31  1  0  0  0  0
 26 27  1  0  0  0  0
 26 28  1  0  0  0  0
 23 24  1  0  0  0  0
 23 25  1  0  0  0  0
 22 23  1  0  0  0  0
 22 26  1  0  0  0  0
 20 21  1  0  0  0  0
 20 22  2  0  0  0  0
 17 18  1  0  0  0  0
 17 19  1  0  0  0  0
 17 20  1  0  0  0  0
 14 15  1  0  0  0  0
 14 16  1  0  0  0  0
 14 17  1  0  0  0  0
 11 12  1  0  0  0  0
 11 13  1  0  0  0  0
 11 14  1  0  0  0  0
  9 10  1  0  0  0  0
  9 11  1  0  0  0  0
  9 29  1  0  0  0  0
  7  8  1  0  0  0  0
  7  9  1  0  0  0  0
 33 34  1  0  0  0  0
 33 35  1  0  0  0  0
 33 36  1  0  0  0  0
 31 32  1  0  0  0  0
 31 33  1  0  0  0  0
M  CHG  1  20   1
M  END
$$$$
default_name
  -OEChem-01062215323D

 36 35  0     1  0  0  0  0  0999 V2000
   -4.2256   -3.6731    1.8584 H   0  0  0  0  0  0  0  0  0  0  0  0
   -4.2396   -2.6781    1.4144 C   0  0  0  0  0  0  0  0  0  0  0  0
   -4.9506   -2.0521    1.9514 H   0  0  0  0  0  0  0  0  0  0  0  0
   -4.5266   -2.7521    0.3674 H   0  0  0  0  0  0  0  0  0  0  0  0
   -2.8576   -2.0761    1.5184 C   0  0  0  0  0  0  0  0  0  0  0  0
   -1.9456   -2.7051    2.0404 O   0  0  0  0  0  0  0  0  0  0  0  0
   -2.6926   -0.8481    1.0174 N   0  0  0  0  0  0  0  0  0  0  0  0
   -3.4926   -0.3971    0.5954 H   0  0  0  0  0  0  0  0  0  0  0  0
   -1.4216   -0.1071    1.0434 C   0  0  1  0  0  0  0  0  0  0  0  0
   -1.4911    0.7200    0.3350 H   0  0  0  0  0  0  0  0  0  0  0  0
   -1.2212    0.4683    2.4598 C   0  0  0  0  0  0  0  0  0  0  0  0
   -1.3098   -0.3456    3.1822 H   0  0  0  0  0  0  0  0  0  0  0  0
   -0.2135    0.8823    2.5375 H   0  0  0  0  0  0  0  0  0  0  0  0
   -2.2424    1.5542    2.8286 C   0  0  0  0  0  0  0  0  0  0  0  0
   -2.1661    2.3860    2.1269 H   0  0  0  0  0  0  0  0  0  0  0  0
   -3.2478    1.1347    2.7821 H   0  0  0  0  0  0  0  0  0  0  0  0
   -1.9689    2.0679    4.2488 C   0  0  0  0  0  0  0  0  0  0  0  0
   -2.0210    1.2242    4.9408 H   0  0  0  0  0  0  0  0  0  0  0  0
   -0.9603    2.4867    4.2788 H   0  0  0  0  0  0  0  0  0  0  0  0
   -2.9444    3.1001    4.6558 N   0  3  0  0  0  0  0  0  0  0  0  0
   -3.6238    3.3760    3.9676 H   0  0  0  0  0  0  0  0  0  0  0  0
   -3.0082    3.6930    5.8363 C   0  0  0  0  0  0  0  0  0  0  0  0
   -2.1767    3.4105    6.7996 N   0  0  0  0  0  0  0  0  0  0  0  0
   -1.4662    2.7187    6.6382 H   0  0  0  0  0  0  0  0  0  0  0  0
   -2.2387    3.8701    7.6895 H   0  0  0  0  0  0  0  0  0  0  0  0
   -3.9195    4.5932    6.0742 N   0  0  0  0  0  0  0  0  0  0  0  0
   -4.5835    4.8445    5.3622 H   0  0  0  0  0  0  0  0  0  0  0  0
   -3.9644    5.0404    6.9711 H   0  0  0  0  0  0  0  0  0  0  0  0
   -0.2630   -1.0161    0.6279 C   0  0  0  0  0  0  0  0  0  0  0  0
   -0.4728   -1.9557   -0.1299 O   0  0  0  0  0  0  0  0  0  0  0  0
    0.9373   -0.7531    1.1542 N   0  0  0  0  0  0  0  0  0  0  0  0
    1.0271    0.0617    1.7389 H   0  0  0  0  0  0  0  0  0  0  0  0
    2.1470   -1.5231    0.8598 C   0  0  0  0  0  0  0  0  0  0  0  0
    2.4000   -1.4231   -0.1978 H   0  0  0  0  0  0  0  0  0  0  0  0
    2.9826   -1.1625    1.4610 H   0  0  0  0  0  0  0  0  0  0  0  0
    1.9785   -2.5804    1.0755 H   0  0  0  0  0  0  0  0  0  0  0  0
  5  6  2  0  0  0  0
  5  7  1  0  0  0  0
  2  3  1  0  0  0  0
  2  4  1  0  0  0  0
  2  5  1  0  0  0  0
  1  2  1  0  0  0  0
 29 30  2  0  0  0  0
 29 31  1  0  0  0  0
 26 27  1  0  0  0  0
 26 28  1  0  0  0  0
 23 24  1  0  0  0  0
 23 25  1  0  0  0  0
 22 23  1  0  0  0  0
 22 26  1  0  0  0  0
 20 21  1  0  0  0  0
 20 22  2  0  0  0  0
 17 18  1  0  0  0  0
 17 19  1  0  0  0  0
 17 20  1  0  0  0  0
 14 15  1  0  0  0  0
 14 16  1  0  0  0  0
 14 17  1  0  0  0  0
 11 12  1  0  0  0  0
 11 13  1  0  0  0  0
 11 14  1  0  0  0  0
  9 10  1  0  0  0  0
  9 11  1  0  0  0  0
  9 29  1  0  0  0  0
  7  8  1  0  0  0  0
  7  9  1  0  0  0  0
 33 34  1  0  0  0  0
 33 35  1  0  0  0  0
 33 36  1  0  0  0  0
 31 32  1  0  0  0  0
 31 33  1  0  0  0  0
M  CHG  1  20   1
M  END
$$$$
default_name
  -OEChem-01062215323D

 36 35  0     1  0  0  0  0  0999 V2000
   -4.2256   -3.6731    1.8584 H   0  0  0  0  0  0  0  0  0  0  0  0
   -4.2396   -2.6781    1.4144 C   0  0  0  0  0  0  0  0  0  0  0  0
   -4.9506   -2.0521    1.9514 H   0  0  0  0  0  0  0  0  0  0  0  0
   -4.5266   -2.7521    0.3674 H   0  0  0  0  0  0  0  0  0  0  0  0
   -2.8576   -2.0761    1.5184 C   0  0  0  0  0  0  0  0  0  0  0  0
   -1.9456   -2.7051    2.0404 O   0  0  0  0  0  0  0  0  0  0  0  0
   -2.6926   -0.8481    1.0174 N   0  0  0  0  0  0  0  0  0  0  0  0
   -3.4926   -0.3971    0.5954 H   0  0  0  0  0  0  0  0  0  0  0  0
   -1.4216   -0.1071    1.0434 C   0  0  1  0  0  0  0  0  0  0  0  0
   -1.4911    0.7200    0.3350 H   0  0  0  0  0  0  0  0  0  0  0  0
   -1.2212    0.4683    2.4598 C   0  0  0  0  0  0  0  0  0  0  0  0
   -1.3098   -0.3456    3.1822 H   0  0  0  0  0  0  0  0  0  0  0  0
   -0.2135    0.8823    2.5375 H   0  0  0  0  0  0  0  0  0  0  0  0
   -2.2424    1.5542    2.8286 C   0  0  0  0  0  0  0  0  0  0  0  0
   -2.1661    2.3860    2.1269 H   0  0  0  0  0  0  0  0  0  0  0  0
   -3.2478    1.1347    2.7821 H   0  0  0  0  0  0  0  0  0  0  0  0
   -1.9689    2.0679    4.2488 C   0  0  0  0  0  0  0  0  0  0  0  0
   -2.0210    1.2242    4.9408 H   0  0  0  0  0  0  0  0  0  0  0  0
   -0.9603    2.4867    4.2788 H   0  0  0  0  0  0  0  0  0  0  0  0
   -2.9444    3.1001    4.6558 N   0  3  0  0  0  0  0  0  0  0  0  0
   -3.6238    3.3760    3.9676 H   0  0  0  0  0  0  0  0  0  0  0  0
   -3.0082    3.6930    5.8363 C   0  0  0  0  0  0  0  0  0  0  0  0
   -2.1767    3.4105    6.7996 N   0  0  0  0  0  0  0  0  0  0  0  0
   -1.4662    2.7187    6.6382 H   0  0  0  0  0  0  0  0  0  0  0  0
   -2.2387    3.8701    7.6895 H   0  0  0  0  0  0  0  0  0  0  0  0
   -3.9195    4.5932    6.0742 N   0  0  0  0  0  0  0  0  0  0  0  0
   -4.5835    4.8445    5.3622 H   0  0  0  0  0  0  0  0  0  0  0  0
   -3.9644    5.0404    6.9711 H   0  0  0  0  0  0  0  0  0  0  0  0
   -0.2630   -1.0161    0.6279 C   0  0  0  0  0  0  0  0  0  0  0  0
   -0.3996   -1.7726   -0.3261 O   0  0  0  0  0  0  0  0  0  0  0  0
    0.8497   -0.9620    1.3667 N   0  0  0  0  0  0  0  0  0  0  0  0
    0.8890   -0.2841    2.1103 H   0  0  0  0  0  0  0  0  0  0  0  0
    2.0468   -1.7624    1.1040 C   0  0  0  0  0  0  0  0  0  0  0  0
    2.4717   -1.4849    0.1370 H   0  0  0  0  0  0  0  0  0  0  0  0
    2.7935   -1.5959    1.8815 H   0  0  0  0  0  0  0  0  0  0  0  0
    1.7880   -2.8231    1.0751 H   0  0  0  0  0  0  0  0  0  0  0  0
  5  6  2  0  0  0  0
  5  7  1  0  0  0  0
  2  3  1  0  0  0  0
  2  4  1  0  0  0  0
  2  5  1  0  0  0  0
  1  2  1  0  0  0  0
 29 30  2  0  0  0  0
 29 31  1  0  0  0  0
 26 27  1  0  0  0  0
 26 28  1  0  0  0  0
 23 24  1  0  0  0  0
 23 25  1  0  0  0  0
 22 23  1  0  0  0  0
 22 26  1  0  0  0  0
 20 21  1  0  0  0  0
 20 22  2  0  0  0  0
 17 18  1  0  0  0  0
 17 19  1  0  0  0  0
 17 20  1  0  0  0  0
 14 15  1  0  0  0  0
 14 16  1  0  0  0  0
 14 17  1  0  0  0  0
 11 12  1  0  0  0  0
 11 13  1  0  0  0  0
 11 14  1  0  0  0  0
  9 10  1  0  0  0  0
  9 11  1  0  0  0  0
  9 29  1  0  0  0  0
  7  8  1  0  0  0  0
  7  9  1  0  0  0  0
 33 34  1  0  0  0  0
 33 35  1  0  0  0  0
 33 36  1  0  0  0  0
 31 32  1  0  0  0  0
 31 33  1  0  0  0  0
M  CHG  1  20   1
M  END
$$$$
default_name
  -OEChem-01062215323D

 36 35  0     1  0  0  0  0  0999 V2000
   -4.2256   -3.6731    1.8584 H   0  0  0  0  0  0  0  0  0  0  0  0
   -4.2396   -2.6781    1.4144 C   0  0  0  0  0  0  0  0  0  0  0  0
   -4.9506   -2.0521    1.9514 H   0  0  0  0  0  0  0  0  0  0  0  0
   -4.5266   -2.7521    0.3674 H   0  0  0  0  0  0  0  0  0  0  0  0
   -2.8576   -2.0761    1.5184 C   0  0  0  0  0  0  0  0  0  0  0  0
   -1.9456   -2.7051    2.0404 O   0  0  0  0  0  0  0  0  0  0  0  0
   -2.6926   -0.8481    1.0174 N   0  0  0  0  0  0  0  0  0  0  0  0
   -3.4926   -0.3971    0.5954 H   0  0  0  0  0  0  0  0  0  0  0  0
   -1.4216   -0.1071    1.0434 C   0  0  1  0  0  0  0  0  0  0  0  0
   -1.4911    0.7200    0.3350 H   0  0  0  0  0  0  0  0  0  0  0  0
   -1.2212    0.4683    2.4598 C   0  0  0  0  0  0  0  0  0  0  0  0
   -1.3098   -0.3456    3.1822 H   0  0  0  0  0  0  0  0  0  0  0  0
   -0.2135    0.8823    2.5375 H   0  0  0  0  0  0  0  0  0  0  0  0
   -2.2424    1.5542    2.8286 C   0  0  0  0  0  0  0  0  0  0  0  0
   -2.1661    2.3860    2.1269 H   0  0  0  0  0  0  0  0  0  0  0  0
   -3.2478    1.1347    2.7821 H   0  0  0  0  0  0  0  0  0  0  0  0
   -1.9689    2.0679    4.2488 C   0  0  0  0  0  0  0  0  0  0  0  0
   -2.0210    1.2242    4.9408 H   0  0  0  0  0  0  0  0  0  0  0  0
   -0.9603    2.4867    4.2788 H   0  0  0  0  0  0  0  0  0  0  0  0
   -2.9444    3.1001    4.6558 N   0  3  0  0  0  0  0  0  0  0  0  0
   -3.6238    3.3760    3.9676 H   0  0  0  0  0  0  0  0  0  0  0  0
   -3.0082    3.6930    5.8363 C   0  0  0  0  0  0  0  0  0  0  0  0
   -2.1767    3.4105    6.7996 N   0  0  0  0  0  0  0  0  0  0  0  0
   -1.4662    2.7187    6.6382 H   0  0  0  0  0  0  0  0  0  0  0  0
   -2.2387    3.8701    7.6895 H   0  0  0  0  0  0  0  0  0  0  0  0
   -3.9195    4.5932    6.0742 N   0  0  0  0  0  0  0  0  0  0  0  0
   -4.5835    4.8445    5.3622 H   0  0  0  0  0  0  0  0  0  0  0  0
   -3.9644    5.0404    6.9711 H   0  0  0  0  0  0  0  0  0  0  0  0
   -0.2630   -1.0161    0.6279 C   0  0  0  0  0  0  0  0  0  0  0  0
   -0.2858   -1.5625   -0.4684 O   0  0  0  0  0  0  0  0  0  0  0  0
    0.7177   -1.1991    1.5176 N   0  0  0  0  0  0  0  0  0  0  0  0
    0.6742   -0.6812    2.3800 H   0  0  0  0  0  0  0  0  0  0  0  0
    1.8956   -2.0344    1.2775 C   0  0  0  0  0  0  0  0  0  0  0  0
    2.4851   -1.6152    0.4593 H   0  0  0  0  0  0  0  0  0  0  0  0
    2.5156   -2.0836    2.1736 H   0  0  0  0  0  0  0  0  0  0  0  0
    1.5869   -3.0440    0.9979 H   0  0  0  0  0  0  0  0  0  0  0  0
  5  6  2  0  0  0  0
  5  7  1  0  0  0  0
  2  3  1  0  0  0  0
  2  4  1  0  0  0  0
  2  5  1  0  0  0  0
  1  2  1  0  0  0  0
 29 30  2  0  0  0  0
 29 31  1  0  0  0  0
 26 27  1  0  0  0  0
 26 28  1  0  0  0  0
 23 24  1  0  0  0  0
 23 25  1  0  0  0  0
 22 23  1  0  0  0  0
 22 26  1  0  0  0  0
 20 21  1  0  0  0  0
 20 22  2  0  0  0  0
 17 18  1  0  0  0  0
 17 19  1  0  0  0  0
 17 20  1  0  0  0  0
 14 15  1  0  0  0  0
 14 16  1  0  0  0  0
 14 17  1  0  0  0  0
 11 12  1  0  0  0  0
 11 13  1  0  0  0  0
 11 14  1  0  0  0  0
  9 10  1  0  0  0  0
  9 11  1  0  0  0  0
  9 29  1  0  0  0  0
  7  8  1  0  0  0  0
  7  9  1  0  0  0  0
 33 34  1  0  0  0  0
 33 35  1  0  0  0  0
 33 36  1  0  0  0  0
 31 32  1  0  0  0  0
 31 33  1  0  0  0  0
M  CHG  1  20   1
M  END
$$$$
default_name
  -OEChem-01062215323D

 36 35  0     1  0  0  0  0  0999 V2000
   -4.2256   -3.6731    1.8584 H   0  0  0  0  0  0  0  0  0  0  0  0
   -4.2396   -2.6781    1.4144 C   0  0  0  0  0  0  0  0  0  0  0  0
   -4.9506   -2.0521    1.9514 H   0  0  0  0  0  0  0  0  0  0  0  0
   -4.5266   -2.7521    0.3674 H   0  0  0  0  0  0  0  0  0  0  0  0
   -2.8576   -2.0761    1.5184 C   0  0  0  0  0  0  0  0  0  0  0  0
   -1.9456   -2.7051    2.0404 O   0  0  0  0  0  0  0  0  0  0  0  0
   -2.6926   -0.8481    1.0174 N   0  0  0  0  0  0  0  0  0  0  0  0
   -3.4926   -0.3971    0.5954 H   0  0  0  0  0  0  0  0  0  0  0  0
   -1.4216   -0.1071    1.0434 C   0  0  1  0  0  0  0  0  0  0  0  0
   -1.4911    0.7200    0.3350 H   0  0  0  0  0  0  0  0  0  0  0  0
   -1.2212    0.4683    2.4598 C   0  0  0  0  0  0  0  0  0  0  0  0
   -1.3098   -0.3456    3.1822 H   0  0  0  0  0  0  0  0  0  0  0  0
   -0.2135    0.8823    2.5375 H   0  0  0  0  0  0  0  0  0  0  0  0
   -2.2424    1.5542    2.8286 C   0  0  0  0  0  0  0  0  0  0  0  0
   -2.1661    2.3860    2.1269 H   0  0  0  0  0  0  0  0  0  0  0  0
   -3.2478    1.1347    2.7821 H   0  0  0  0  0  0  0  0  0  0  0  0
   -1.9689    2.0679    4.2488 C   0  0  0  0  0  0  0  0  0  0  0  0
   -2.0210    1.2242    4.9408 H   0  0  0  0  0  0  0  0  0  0  0  0
   -0.9603    2.4867    4.2788 H   0  0  0  0  0  0  0  0  0  0  0  0
   -2.9444    3.1001    4.6558 N   0  3  0  0  0  0  0  0  0  0  0  0
   -3.6238    3.3760    3.9676 H   0  0  0  0  0  0  0  0  0  0  0  0
   -3.0082    3.6930    5.8363 C   0  0  0  0  0  0  0  0  0  0  0  0
   -2.1767    3.4105    6.7996 N   0  0  0  0  0  0  0  0  0  0  0  0
   -1.4662    2.7187    6.6382 H   0  0  0  0  0  0  0  0  0  0  0  0
   -2.2387    3.8701    7.6895 H   0  0  0  0  0  0  0  0  0  0  0  0
   -3.9195    4.5932    6.0742 N   0  0  0  0  0  0  0  0  0  0  0  0
   -4.5835    4.8445    5.3622 H   0  0  0  0  0  0  0  0  0  0  0  0
   -3.9644    5.0404    6.9711 H   0  0  0  0  0  0  0  0  0  0  0  0
   -0.2630   -1.0161    0.6279 C   0  0  0  0  0  0  0  0  0  0  0  0
   -0.1393   -1.3397   -0.5473 O   0  0  0  0  0  0  0  0  0  0  0  0
    0.5503   -1.4485    1.5965 N   0  0  0  0  0  0  0  0  0  0  0  0
    0.3973   -1.1026    2.5297 H   0  0  0  0  0  0  0  0  0  0  0  0
    1.7038   -2.3205    1.3686 C   0  0  0  0  0  0  0  0  0  0  0  0
    2.4393   -1.8051    0.7472 H   0  0  0  0  0  0  0  0  0  0  0  0
    2.1681   -2.5924    2.3175 H   0  0  0  0  0  0  0  0  0  0  0  0
    1.3891   -3.2282    0.8491 H   0  0  0  0  0  0  0  0  0  0  0  0
  5  6  2  0  0  0  0
  5  7  1  0  0  0  0
  2  3  1  0  0  0  0
  2  4  1  0  0  0  0
  2  5  1  0  0  0  0
  1  2  1  0  0  0  0
 29 30  2  0  0  0  0
 29 31  1  0  0  0  0
 26 27  1  0  0  0  0
 26 28  1  0  0  0  0
 23 24  1  0  0  0  0
 23 25  1  0  0  0  0
 22 23  1  0  0  0  0
 22 26  1  0  0  0  0
 20 21  1  0  0  0  0
 20 22  2  0  0  0  0
 17 18  1  0  0  0  0
 17 19  1  0  0  0  0
 17 20  1  0  0  0  0
 14 15  1  0  0  0  0
 14 16  1  0  0  0  0
 14 17  1  0  0  0  0
 11 12  1  0  0  0  0
 11 13  1  0  0  0  0
 11 14  1  0  0  0  0
  9 10  1  0  0  0  0
  9 11  1  0  0  0  0
  9 29  1  0  0  0  0
  7  8  1  0  0  0  0
  7  9  1  0  0  0  0
 33 34  1  0  0  0  0
 33 35  1  0  0  0  0
 33 36  1  0  0  0  0
 31 32  1  0  0  0  0
 31 33  1  0  0  0  0
M  CHG  1  20   1
M  END
$$$$
default_name
  -OEChem-01062215323D

 36 35  0     1  0  0  0  0  0999 V2000
   -4.2256   -3.6731    1.8584 H   0  0  0  0  0  0  0  0  0  0  0  0
   -4.2396   -2.6781    1.4144 C   0  0  0  0  0  0  0  0  0  0  0  0
   -4.9506   -2.0521    1.9514 H   0  0  0  0  0  0  0  0  0  0  0  0
   -4.5266   -2.7521    0.3674 H   0  0  0  0  0  0  0  0  0  0  0  0
   -2.8576   -2.0761    1.5184 C   0  0  0  0  0  0  0  0  0  0  0  0
   -1.9456   -2.7051    2.0404 O   0  0  0  0  0  0  0  0  0  0  0  0
   -2.6926   -0.8481    1.0174 N   0  0  0  0  0  0  0  0  0  0  0  0
   -3.4926   -0.3971    0.5954 H   0  0  0  0  0  0  0  0  0  0  0  0
   -1.4216   -0.1071    1.0434 C   0  0  1  0  0  0  0  0  0  0  0  0
   -1.4911    0.7200    0.3350 H   0  0  0  0  0  0  0  0  0  0  0  0
   -1.2212    0.4683    2.4598 C   0  0  0  0  0  0  0  0  0  0  0  0
   -1.3098   -0.3456    3.1822 H   0  0  0  0  0  0  0  0  0  0  0  0
   -0.2135    0.8823    2.5375 H   0  0  0  0  0  0  0  0  0  0  0  0
   -2.2424    1.5542    2.8286 C   0  0  0  0  0  0  0  0  0  0  0  0
   -2.1661    2.3860    2.1269 H   0  0  0  0  0  0  0  0  0  0  0  0
   -3.2478    1.1347    2.7821 H   0  0  0  0  0  0  0  0  0  0  0  0
   -1.9689    2.0679    4.2488 C   0  0  0  0  0  0  0  0  0  0  0  0
   -2.0210    1.2242    4.9408 H   0  0  0  0  0  0  0  0  0  0  0  0
   -0.9603    2.4867    4.2788 H   0  0  0  0  0  0  0  0  0  0  0  0
   -2.9444    3.1001    4.6558 N   0  3  0  0  0  0  0  0  0  0  0  0
   -3.6238    3.3760    3.9676 H   0  0  0  0  0  0  0  0  0  0  0  0
   -3.0082    3.6930    5.8363 C   0  0  0  0  0  0  0  0  0  0  0  0
   -2.1767    3.4105    6.7996 N   0  0  0  0  0  0  0  0  0  0  0  0
   -1.4662    2.7187    6.6382 H   0  0  0  0  0  0  0  0  0  0  0  0
   -2.2387    3.8701    7.6895 H   0  0  0  0  0  0  0  0  0  0  0  0
   -3.9195    4.5932    6.0742 N   0  0  0  0  0  0  0  0  0  0  0  0
   -4.5835    4.8445    5.3622 H   0  0  0  0  0  0  0  0  0  0  0  0
   -3.9644    5.0404    6.9711 H   0  0  0  0  0  0  0  0  0  0  0  0
   -0.2630   -1.0161    0.6279 C   0  0  0  0  0  0  0  0  0  0  0  0
    0.0300   -1.1193   -0.5572 O   0  0  0  0  0  0  0  0  0  0  0  0
    0.3590   -1.6931    1.5981 N   0  0  0  0  0  0  0  0  0  0  0  0
    0.0772   -1.5195    2.5491 H   0  0  0  0  0  0  0  0  0  0  0  0
    1.4845   -2.6012    1.3710 C   0  0  0  0  0  0  0  0  0  0  0  0
    2.3375   -2.0418    0.9810 H   0  0  0  0  0  0  0  0  0  0  0  0
    1.7745   -3.0876    2.3033 H   0  0  0  0  0  0  0  0  0  0  0  0
    1.2079   -3.3630    0.6388 H   0  0  0  0  0  0  0  0  0  0  0  0
  5  6  2  0  0  0  0
  5  7  1  0  0  0  0
  2  3  1  0  0  0  0
  2  4  1  0  0  0  0
  2  5  1  0  0  0  0
  1  2  1  0  0  0  0
 29 30  2  0  0  0  0
 29 31  1  0  0  0  0
 26 27  1  0  0  0  0
 26 28  1  0  0  0  0
 23 24  1  0  0  0  0
 23 25  1  0  0  0  0
 22 23  1  0  0  0  0
 22 26  1  0  0  0  0
 20 21  1  0  0  0  0
 20 22  2  0  0  0  0
 17 18  1  0  0  0  0
 17 19  1  0  0  0  0
 17 20  1  0  0  0  0
 14 15  1  0  0  0  0
 14 16  1  0  0  0  0
 14 17  1  0  0  0  0
 11 12  1  0  0  0  0
 11 13  1  0  0  0  0
 11 14  1  0  0  0  0
  9 10  1  0  0  0  0
  9 11  1  0  0  0  0
  9 29  1  0  0  0  0
  7  8  1  0  0  0  0
  7  9  1  0  0  0  0
 33 34  1  0  0  0  0
 33 35  1  0  0  0  0
 33 36  1  0  0  0  0
 31 32  1  0  0  0  0
 31 33  1  0  0  0  0
M  CHG  1  20   1
M  END
$$$$
default_name
  -OEChem-01062215323D

 36 35  0     1  0  0  0  0  0999 V2000
   -4.2256   -3.6731    1.8584 H   0  0  0  0  0  0  0  0  0  0  0  0
   -4.2396   -2.6781    1.4144 C   0  0  0  0  0  0  0  0  0  0  0  0
   -4.9506   -2.0521    1.9514 H   0  0  0  0  0  0  0  0  0  0  0  0
   -4.5266   -2.7521    0.3674 H   0  0  0  0  0  0  0  0  0  0  0  0
   -2.8576   -2.0761    1.5184 C   0  0  0  0  0  0  0  0  0  0  0  0
   -1.9456   -2.7051    2.0404 O   0  0  0  0  0  0  0  0  0  0  0  0
   -2.6926   -0.8481    1.0174 N   0  0  0  0  0  0  0  0  0  0  0  0
   -3.4926   -0.3971    0.5954 H   0  0  0  0  0  0  0  0  0  0  0  0
   -1.4216   -0.1071    1.0434 C   0  0  1  0  0  0  0  0  0  0  0  0
   -1.4911    0.7200    0.3350 H   0  0  0  0  0  0  0  0  0  0  0  0
   -1.2212    0.4683    2.4598 C   0  0  0  0  0  0  0  0  0  0  0  0
   -1.3098   -0.3456    3.1822 H   0  0  0  0  0  0  0  0  0  0  0  0
   -0.2135    0.8823    2.5375 H   0  0  0  0  0  0  0  0  0  0  0  0
   -2.2424    1.5542    2.8286 C   0  0  0  0  0  0  0  0  0  0  0  0
   -2.1661    2.3860    2.1269 H   0  0  0  0  0  0  0  0  0  0  0  0
   -3.2478    1.1347    2.7821 H   0  0  0  0  0  0  0  0  0  0  0  0
   -1.9689    2.0679    4.2488 C   0  0  0  0  0  0  0  0  0  0  0  0
   -2.0210    1.2242    4.9408 H   0  0  0  0  0  0  0  0  0  0  0  0
   -0.9603    2.4867    4.2788 H   0  0  0  0  0  0  0  0  0  0  0  0
   -2.9444    3.1001    4.6558 N   0  3  0  0  0  0  0  0  0  0  0  0
   -3.6238    3.3760    3.9676 H   0  0  0  0  0  0  0  0  0  0  0  0
   -3.0082    3.6930    5.8363 C   0  0  0  0  0  0  0  0  0  0  0  0
   -2.1767    3.4105    6.7996 N   0  0  0  0  0  0  0  0  0  0  0  0
   -1.4662    2.7187    6.6382 H   0  0  0  0  0  0  0  0  0  0  0  0
   -2.2387    3.8701    7.6895 H   0  0  0  0  0  0  0  0  0  0  0  0
   -3.9195    4.5932    6.0742 N   0  0  0  0  0  0  0  0  0  0  0  0
   -4.5835    4.8445    5.3622 H   0  0  0  0  0  0  0  0  0  0  0  0
   -3.9644    5.0404    6.9711 H   0  0  0  0  0  0  0  0  0  0  0  0
   -0.2630   -1.0161    0.6279 C   0  0  0  0  0  0  0  0  0  0  0  0
    0.2106   -0.9164   -0.4977 O   0  0  0  0  0  0  0  0  0  0  0  0
    0.1568   -1.9163    1.5224 N   0  0  0  0  0  0  0  0  0  0  0  0
   -0.2642   -1.9034    2.4369 H   0  0  0  0  0  0  0  0  0  0  0  0
    1.2525   -2.8574    1.2846 C   0  0  0  0  0  0  0  0  0  0  0  0
    2.1865   -2.3091    1.1448 H   0  0  0  0  0  0  0  0  0  0  0  0
    1.3617   -3.5355    2.1320 H   0  0  0  0  0  0  0  0  0  0  0  0
    1.0558   -3.4392    0.3815 H   0  0  0  0  0  0  0  0  0  0  0  0
  5  6  2  0  0  0  0
  5  7  1  0  0  0  0
  2  3  1  0  0  0  0
  2  4  1  0  0  0  0
  2  5  1  0  0  0  0
  1  2  1  0  0  0  0
 29 30  2  0  0  0  0
 29 31  1  0  0  0  0
 26 27  1  0  0  0  0
 26 28  1  0  0  0  0
 23 24  1  0  0  0  0
 23 25  1  0  0  0  0
 22 23  1  0  0  0  0
 22 26  1  0  0  0  0
 20 21  1  0  0  0  0
 20 22  2  0  0  0  0
 17 18  1  0  0  0  0
 17 19  1  0  0  0  0
 17 20  1  0  0  0  0
 14 15  1  0  0  0  0
 14 16  1  0  0  0  0
 14 17  1  0  0  0  0
 11 12  1  0  0  0  0
 11 13  1  0  0  0  0
 11 14  1  0  0  0  0
  9 10  1  0  0  0  0
  9 11  1  0  0  0  0
  9 29  1  0  0  0  0
  7  8  1  0  0  0  0
  7  9  1  0  0  0  0
 33 34  1  0  0  0  0
 33 35  1  0  0  0  0
 33 36  1  0  0  0  0
 31 32  1  0  0  0  0
 31 33  1  0  0  0  0
M  CHG  1  20   1
M  END
$$$$
default_name
  -OEChem-01062215323D

 36 35  0     1  0  0  0  0  0999 V2000
   -4.2256   -3.6731    1.8584 H   0  0  0  0  0  0  0  0  0  0  0  0
   -4.2396   -2.6781    1.4144 C   0  0  0  0  0  0  0  0  0  0  0  0
   -4.9506   -2.0521    1.9514 H   0  0  0  0  0  0  0  0  0  0  0  0
   -4.5266   -2.7521    0.3674 H   0  0  0  0  0  0  0  0  0  0  0  0
   -2.8576   -2.0761    1.5184 C   0  0  0  0  0  0  0  0  0  0  0  0
   -1.9456   -2.7051    2.0404 O   0  0  0  0  0  0  0  0  0  0  0  0
   -2.6926   -0.8481    1.0174 N   0  0  0  0  0  0  0  0  0  0  0  0
   -3.4926   -0.3971    0.5954 H   0  0  0  0  0  0  0  0  0  0  0  0
   -1.4216   -0.1071    1.0434 C   0  0  1  0  0  0  0  0  0  0  0  0
   -1.4911    0.7200    0.3350 H   0  0  0  0  0  0  0  0  0  0  0  0
   -1.2212    0.4683    2.4598 C   0  0  0  0  0  0  0  0  0  0  0  0
   -1.3098   -0.3456    3.1822 H   0  0  0  0  0  0  0  0  0  0  0  0
   -0.2135    0.8823    2.5375 H   0  0  0  0  0  0  0  0  0  0  0  0
   -2.2424    1.5542    2.8286 C   0  0  0  0  0  0  0  0  0  0  0  0
   -2.1661    2.3860    2.1269 H   0  0  0  0  0  0  0  0  0  0  0  0
   -3.2478    1.1347    2.7821 H   0  0  0  0  0  0  0  0  0  0  0  0
   -1.9689    2.0679    4.2488 C   0  0  0  0  0  0  0  0  0  0  0  0
   -2.0210    1.2242    4.9408 H   0  0  0  0  0  0  0  0  0  0  0  0
   -0.9603    2.4867    4.2788 H   0  0  0  0  0  0  0  0  0  0  0  0
   -2.9444    3.1001    4.6558 N   0  3  0  0  0  0  0  0  0  0  0  0
   -3.6238    3.3760    3.9676 H   0  0  0  0  0  0  0  0  0  0  0  0
   -3.0082    3.6930    5.8363 C   0  0  0  0  0  0  0  0  0  0  0  0
   -2.1767    3.4105    6.7996 N   0  0  0  0  0  0  0  0  0  0  0  0
   -1.4662    2.7187    6.6382 H   0  0  0  0  0  0  0  0  0  0  0  0
   -2.2387    3.8701    7.6895 H   0  0  0  0  0  0  0  0  0  0  0  0
   -3.9195    4.5932    6.0742 N   0  0  0  0  0  0  0  0  0  0  0  0
   -4.5835    4.8445    5.3622 H   0  0  0  0  0  0  0  0  0  0  0  0
   -3.9644    5.0404    6.9711 H   0  0  0  0  0  0  0  0  0  0  0  0
   -0.2630   -1.0161    0.6279 C   0  0  0  0  0  0  0  0  0  0  0  0
    0.3901   -0.7447   -0.3725 O   0  0  0  0  0  0  0  0  0  0  0  0
   -0.0426   -2.1028    1.3744 N   0  0  0  0  0  0  0  0  0  0  0  0
   -0.6038   -2.2284    2.2009 H   0  0  0  0  0  0  0  0  0  0  0  0
    1.0237   -3.0717    1.1153 C   0  0  0  0  0  0  0  0  0  0  0  0
    1.9968   -2.5888    1.2274 H   0  0  0  0  0  0  0  0  0  0  0  0
    0.9578   -3.9055    1.8154 H   0  0  0  0  0  0  0  0  0  0  0  0
    0.9431   -3.4518    0.0945 H   0  0  0  0  0  0  0  0  0  0  0  0
  5  6  2  0  0  0  0
  5  7  1  0  0  0  0
  2  3  1  0  0  0  0
  2  4  1  0  0  0  0
  2  5  1  0  0  0  0
  1  2  1  0  0  0  0
 29 30  2  0  0  0  0
 29 31  1  0  0  0  0
 26 27  1  0  0  0  0
 26 28  1  0  0  0  0
 23 24  1  0  0  0  0
 23 25  1  0  0  0  0
 22 23  1  0  0  0  0
 22 26  1  0  0  0  0
 20 21  1  0  0  0  0
 20 22  2  0  0  0  0
 17 18  1  0  0  0  0
 17 19  1  0  0  0  0
 17 20  1  0  0  0  0
 14 15  1  0  0  0  0
 14 16  1  0  0  0  0
 14 17  1  0  0  0  0
 11 12  1  0  0  0  0
 11 13  1  0  0  0  0
 11 14  1  0  0  0  0
  9 10  1  0  0  0  0
  9 11  1  0  0  0  0
  9 29  1  0  0  0  0
  7  8  1  0  0  0  0
  7  9  1  0  0  0  0
 33 34  1  0  0  0  0
 33 35  1  0  0  0  0
 33 36  1  0  0  0  0
 31 32  1  0  0  0  0
 31 33  1  0  0  0  0
M  CHG  1  20   1
M  END
$$$$
default_name
  -OEChem-01062215323D

 36 35  0     1  0  0  0  0  0999 V2000
   -4.2256   -3.6731    1.8584 H   0  0  0  0  0  0  0  0  0  0  0  0
   -4.2396   -2.6781    1.4144 C   0  0  0  0  0  0  0  0  0  0  0  0
   -4.9506   -2.0521    1.9514 H   0  0  0  0  0  0  0  0  0  0  0  0
   -4.5266   -2.7521    0.3674 H   0  0  0  0  0  0  0  0  0  0  0  0
   -2.8576   -2.0761    1.5184 C   0  0  0  0  0  0  0  0  0  0  0  0
   -1.9456   -2.7051    2.0404 O   0  0  0  0  0  0  0  0  0  0  0  0
   -2.6926   -0.8481    1.0174 N   0  0  0  0  0  0  0  0  0  0  0  0
   -3.4926   -0.3971    0.5954 H   0  0  0  0  0  0  0  0  0  0  0  0
   -1.4216   -0.1071    1.0434 C   0  0  1  0  0  0  0  0  0  0  0  0
   -1.4911    0.7200    0.3350 H   0  0  0  0  0  0  0  0  0  0  0  0
   -1.2212    0.4683    2.4598 C   0  0  0  0  0  0  0  0  0  0  0  0
   -1.3098   -0.3456    3.1822 H   0  0  0  0  0  0  0  0  0  0  0  0
   -0.2135    0.8823    2.5375 H   0  0  0  0  0  0  0  0  0  0  0  0
   -2.2424    1.5542    2.8286 C   0  0  0  0  0  0  0  0  0  0  0  0
   -2.1661    2.3860    2.1269 H   0  0  0  0  0  0  0  0  0  0  0  0
   -3.2478    1.1347    2.7821 H   0  0  0  0  0  0  0  0  0  0  0  0
   -1.9689    2.0679    4.2488 C   0  0  0  0  0  0  0  0  0  0  0  0
   -2.0210    1.2242    4.9408 H   0  0  0  0  0  0  0  0  0  0  0  0
   -0.9603    2.4867    4.2788 H   0  0  0  0  0  0  0  0  0  0  0  0
   -2.9444    3.1001    4.6558 N   0  3  0  0  0  0  0  0  0  0  0  0
   -3.6238    3.3760    3.9676 H   0  0  0  0  0  0  0  0  0  0  0  0
   -3.0082    3.6930    5.8363 C   0  0  0  0  0  0  0  0  0  0  0  0
   -2.1767    3.4105    6.7996 N   0  0  0  0  0  0  0  0  0  0  0  0
   -1.4662    2.7187    6.6382 H   0  0  0  0  0  0  0  0  0  0  0  0
   -2.2387    3.8701    7.6895 H   0  0  0  0  0  0  0  0  0  0  0  0
   -3.9195    4.5932    6.0742 N   0  0  0  0  0  0  0  0  0  0  0  0
   -4.5835    4.8445    5.3622 H   0  0  0  0  0  0  0  0  0  0  0  0
   -3.9644    5.0404    6.9711 H   0  0  0  0  0  0  0  0  0  0  0  0
   -0.2630   -1.0161    0.6279 C   0  0  0  0  0  0  0  0  0  0  0  0
    0.5564   -0.6161   -0.1905 O   0  0  0  0  0  0  0  0  0  0  0  0
   -0.2255   -2.2399    1.1642 N   0  0  0  0  0  0  0  0  0  0  0  0
   -0.9184   -2.4721    1.8570 H   0  0  0  0  0  0  0  0  0  0  0  0
    0.8136   -3.2294    0.8745 C   0  0  0  0  0  0  0  0  0  0  0  0
    1.7811   -2.8618    1.2232 H   0  0  0  0  0  0  0  0  0  0  0  0
    0.5903   -4.1725    1.3749 H   0  0  0  0  0  0  0  0  0  0  0  0
    0.8774   -3.3997   -0.2024 H   0  0  0  0  0  0  0  0  0  0  0  0
  5  6  2  0  0  0  0
  5  7  1  0  0  0  0
  2  3  1  0  0  0  0
  2  4  1  0  0  0  0
  2  5  1  0  0  0  0
  1  2  1  0  0  0  0
 29 30  2  0  0  0  0
 29 31  1  0  0  0  0
 26 27  1  0  0  0  0
 26 28  1  0  0  0  0
 23 24  1  0  0  0  0
 23 25  1  0  0  0  0
 22 23  1  0  0  0  0
 22 26  1  0  0  0  0
 20 21  1  0  0  0  0
 20 22  2  0  0  0  0
 17 18  1  0  0  0  0
 17 19  1  0  0  0  0
 17 20  1  0  0  0  0
 14 15  1  0  0  0  0
 14 16  1  0  0  0  0
 14 17  1  0  0  0  0
 11 12  1  0  0  0  0
 11 13  1  0  0  0  0
 11 14  1  0  0  0  0
  9 10  1  0  0  0  0
  9 11  1  0  0  0  0
  9 29  1  0  0  0  0
  7  8  1  0  0  0  0
  7  9  1  0  0  0  0
 33 34  1  0  0  0  0
 33 35  1  0  0  0  0
 33 36  1  0  0  0  0
 31 32  1  0  0  0  0
 31 33  1  0  0  0  0
M  CHG  1  20   1
M  END
$$$$
default_name
  -OEChem-01062215323D

 36 35  0     1  0  0  0  0  0999 V2000
   -4.2256   -3.6731    1.8584 H   0  0  0  0  0  0  0  0  0  0  0  0
   -4.2396   -2.6781    1.4144 C   0  0  0  0  0  0  0  0  0  0  0  0
   -4.9506   -2.0521    1.9514 H   0  0  0  0  0  0  0  0  0  0  0  0
   -4.5266   -2.7521    0.3674 H   0  0  0  0  0  0  0  0  0  0  0  0
   -2.8576   -2.0761    1.5184 C   0  0  0  0  0  0  0  0  0  0  0  0
   -1.9456   -2.7051    2.0404 O   0  0  0  0  0  0  0  0  0  0  0  0
   -2.6926   -0.8481    1.0174 N   0  0  0  0  0  0  0  0  0  0  0  0
   -3.4926   -0.3971    0.5954 H   0  0  0  0  0  0  0  0  0  0  0  0
   -1.4216   -0.1071    1.0434 C   0  0  1  0  0  0  0  0  0  0  0  0
   -1.4911    0.7200    0.3350 H   0  0  0  0  0  0  0  0  0  0  0  0
   -1.2212    0.4683    2.4598 C   0  0  0  0  0  0  0  0  0  0  0  0
   -1.3098   -0.3456    3.1822 H   0  0  0  0  0  0  0  0  0  0  0  0
   -0.2135    0.8823    2.5375 H   0  0  0  0  0  0  0  0  0  0  0  0
   -2.2424    1.5542    2.8286 C   0  0  0  0  0  0  0  0  0  0  0  0
   -2.1661    2.3860    2.1269 H   0  0  0  0  0  0  0  0  0  0  0  0
   -3.2478    1.1347    2.7821 H   0  0  0  0  0  0  0  0  0  0  0  0
   -1.9689    2.0679    4.2488 C   0  0  0  0  0  0  0  0  0  0  0  0
   -2.0210    1.2242    4.9408 H   0  0  0  0  0  0  0  0  0  0  0  0
   -0.9603    2.4867    4.2788 H   0  0  0  0  0  0  0  0  0  0  0  0
   -2.9444    3.1001    4.6558 N   0  3  0  0  0  0  0  0  0  0  0  0
   -3.6238    3.3760    3.9676 H   0  0  0  0  0  0  0  0  0  0  0  0
   -3.0082    3.6930    5.8363 C   0  0  0  0  0  0  0  0  0  0  0  0
   -2.1767    3.4105    6.7996 N   0  0  0  0  0  0  0  0  0  0  0  0
   -1.4662    2.7187    6.6382 H   0  0  0  0  0  0  0  0  0  0  0  0
   -2.2387    3.8701    7.6895 H   0  0  0  0  0  0  0  0  0  0  0  0
   -3.9195    4.5932    6.0742 N   0  0  0  0  0  0  0  0  0  0  0  0
   -4.5835    4.8445    5.3622 H   0  0  0  0  0  0  0  0  0  0  0  0
   -3.9644    5.0404    6.9711 H   0  0  0  0  0  0  0  0  0  0  0  0
   -0.2630   -1.0161    0.6279 C   0  0  0  0  0  0  0  0  0  0  0  0
    0.6980   -0.5392    0.0362 O   0  0  0  0  0  0  0  0  0  0  0  0
   -0.3795   -2.3182    0.9062 N   0  0  0  0  0  0  0  0  0  0  0  0
   -1.1864   -2.6180    1.4286 H   0  0  0  0  0  0  0  0  0  0  0  0
    0.6367   -3.3197    0.5788 C   0  0  0  0  0  0  0  0  0  0  0  0
    1.5542   -3.1095    1.1325 H   0  0  0  0  0  0  0  0  0  0  0  0
    0.2844   -4.3183    0.8405 H   0  0  0  0  0  0  0  0  0  0  0  0
    0.8633   -3.2867   -0.4891 H   0  0  0  0  0  0  0  0  0  0  0  0
  5  6  2  0  0  0  0
  5  7  1  0  0  0  0
  2  3  1  0  0  0  0
  2  4  1  0  0  0  0
  2  5  1  0  0  0  0
  1  2  1  0  0  0  0
 29 30  2  0  0  0  0
 29 31  1  0  0  0  0
 26 27  1  0  0  0  0
 26 28  1  0  0  0  0
 23 24  1  0  0  0  0
 23 25  1  0  0  0  0
 22 23  1  0  0  0  0
 22 26  1  0  0  0  0
 20 21  1  0  0  0  0
 20 22  2  0  0  0  0
 17 18  1  0  0  0  0
 17 19  1  0  0  0  0
 17 20  1  0  0  0  0
 14 15  1  0  0  0  0
 14 16  1  0  0  0  0
 14 17  1  0  0  0  0
 11 12  1  0  0  0  0
 11 13  1  0  0  0  0
 11 14  1  0  0  0  0
  9 10  1  0  0  0  0
  9 11  1  0  0  0  0
  9 29  1  0  0  0  0
  7  8  1  0  0  0  0
  7  9  1  0  0  0  0
 33 34  1  0  0  0  0
 33 35  1  0  0  0  0
 33 36  1  0  0  0  0
 31 32  1  0  0  0  0
 31 33  1  0  0  0  0
M  CHG  1  20   1
M  END
$$$$
default_name
  -OEChem-01062215323D

 36 35  0     1  0  0  0  0  0999 V2000
   -4.2256   -3.6731    1.8584 H   0  0  0  0  0  0  0  0  0  0  0  0
   -4.2396   -2.6781    1.4144 C   0  0  0  0  0  0  0  0  0  0  0  0
   -4.9506   -2.0521    1.9514 H   0  0  0  0  0  0  0  0  0  0  0  0
   -4.5266   -2.7521    0.3674 H   0  0  0  0  0  0  0  0  0  0  0  0
   -2.8576   -2.0761    1.5184 C   0  0  0  0  0  0  0  0  0  0  0  0
   -1.9456   -2.7051    2.0404 O   0  0  0  0  0  0  0  0  0  0  0  0
   -2.6926   -0.8481    1.0174 N   0  0  0  0  0  0  0  0  0  0  0  0
   -3.4926   -0.3971    0.5954 H   0  0  0  0  0  0  0  0  0  0  0  0
   -1.4216   -0.1071    1.0434 C   0  0  1  0  0  0  0  0  0  0  0  0
   -1.4911    0.7200    0.3350 H   0  0  0  0  0  0  0  0  0  0  0  0
   -1.2212    0.4683    2.4598 C   0  0  0  0  0  0  0  0  0  0  0  0
   -1.3098   -0.3456    3.1822 H   0  0  0  0  0  0  0  0  0  0  0  0
   -0.2135    0.8823    2.5375 H   0  0  0  0  0  0  0  0  0  0  0  0
   -2.2424    1.5542    2.8286 C   0  0  0  0  0  0  0  0  0  0  0  0
   -2.1661    2.3860    2.1269 H   0  0  0  0  0  0  0  0  0  0  0  0
   -3.2478    1.1347    2.7821 H   0  0  0  0  0  0  0  0  0  0  0  0
   -1.9689    2.0679    4.2488 C   0  0  0  0  0  0  0  0  0  0  0  0
   -2.0210    1.2242    4.9408 H   0  0  0  0  0  0  0  0  0  0  0  0
   -0.9603    2.4867    4.2788 H   0  0  0  0  0  0  0  0  0  0  0  0
   -2.9444    3.1001    4.6558 N   0  3  0  0  0  0  0  0  0  0  0  0
   -3.6238    3.3760    3.9676 H   0  0  0  0  0  0  0  0  0  0  0  0
   -3.0082    3.6930    5.8363 C   0  0  0  0  0  0  0  0  0  0  0  0
   -2.1767    3.4105    6.7996 N   0  0  0  0  0  0  0  0  0  0  0  0
   -1.4662    2.7187    6.6382 H   0  0  0  0  0  0  0  0  0  0  0  0
   -2.2387    3.8701    7.6895 H   0  0  0  0  0  0  0  0  0  0  0  0
   -3.9195    4.5932    6.0742 N   0  0  0  0  0  0  0  0  0  0  0  0
   -4.5835    4.8445    5.3622 H   0  0  0  0  0  0  0  0  0  0  0  0
   -3.9644    5.0404    6.9711 H   0  0  0  0  0  0  0  0  0  0  0  0
   -0.2630   -1.0161    0.6279 C   0  0  0  0  0  0  0  0  0  0  0  0
    0.8054   -0.5192    0.2920 O   0  0  0  0  0  0  0  0  0  0  0  0
   -0.4942   -2.3326    0.6180 N   0  0  0  0  0  0  0  0  0  0  0  0
   -1.3898   -2.6561    0.9451 H   0  0  0  0  0  0  0  0  0  0  0  0
    0.5049   -3.3366    0.2482 C   0  0  0  0  0  0  0  0  0  0  0  0
    1.3316   -3.3150    0.9614 H   0  0  0  0  0  0  0  0  0  0  0  0
    0.0607   -4.3328    0.2488 H   0  0  0  0  0  0  0  0  0  0  0  0
    0.9016   -3.1203   -0.7461 H   0  0  0  0  0  0  0  0  0  0  0  0
  5  6  2  0  0  0  0
  5  7  1  0  0  0  0
  2  3  1  0  0  0  0
  2  4  1  0  0  0  0
  2  5  1  0  0  0  0
  1  2  1  0  0  0  0
 29 30  2  0  0  0  0
 29 31  1  0  0  0  0
 26 27  1  0  0  0  0
 26 28  1  0  0  0  0
 23 24  1  0  0  0  0
 23 25  1  0  0  0  0
 22 23  1  0  0  0  0
 22 26  1  0  0  0  0
 20 21  1  0  0  0  0
 20 22  2  0  0  0  0
 17 18  1  0  0  0  0
 17 19  1  0  0  0  0
 17 20  1  0  0  0  0
 14 15  1  0  0  0  0
 14 16  1  0  0  0  0
 14 17  1  0  0  0  0
 11 12  1  0  0  0  0
 11 13  1  0  0  0  0
 11 14  1  0  0  0  0
  9 10  1  0  0  0  0
  9 11  1  0  0  0  0
  9 29  1  0  0  0  0
  7  8  1  0  0  0  0
  7  9  1  0  0  0  0
 33 34  1  0  0  0  0
 33 35  1  0  0  0  0
 33 36  1  0  0  0  0
 31 32  1  0  0  0  0
 31 33  1  0  0  0  0
M  CHG  1  20   1
M  END
$$$$
default_name
  -OEChem-01062215323D

 36 35  0     1  0  0  0  0  0999 V2000
   -4.2256   -3.6731    1.8584 H   0  0  0  0  0  0  0  0  0  0  0  0
   -4.2396   -2.6781    1.4144 C   0  0  0  0  0  0  0  0  0  0  0  0
   -4.9506   -2.0521    1.9514 H   0  0  0  0  0  0  0  0  0  0  0  0
   -4.5266   -2.7521    0.3674 H   0  0  0  0  0  0  0  0  0  0  0  0
   -2.8576   -2.0761    1.5184 C   0  0  0  0  0  0  0  0  0  0  0  0
   -1.9456   -2.7051    2.0404 O   0  0  0  0  0  0  0  0  0  0  0  0
   -2.6926   -0.8481    1.0174 N   0  0  0  0  0  0  0  0  0  0  0  0
   -3.4926   -0.3971    0.5954 H   0  0  0  0  0  0  0  0  0  0  0  0
   -1.4216   -0.1071    1.0434 C   0  0  1  0  0  0  0  0  0  0  0  0
   -1.4911    0.7200    0.3350 H   0  0  0  0  0  0  0  0  0  0  0  0
   -1.2212    0.4683    2.4598 C   0  0  0  0  0  0  0  0  0  0  0  0
   -1.3098   -0.3456    3.1822 H   0  0  0  0  0  0  0  0  0  0  0  0
   -0.2135    0.8823    2.5375 H   0  0  0  0  0  0  0  0  0  0  0  0
   -2.2424    1.5542    2.8286 C   0  0  0  0  0  0  0  0  0  0  0  0
   -2.1661    2.3860    2.1269 H   0  0  0  0  0  0  0  0  0  0  0  0
   -3.2478    1.1347    2.7821 H   0  0  0  0  0  0  0  0  0  0  0  0
   -1.9689    2.0679    4.2488 C   0  0  0  0  0  0  0  0  0  0  0  0
   -2.0210    1.2242    4.9408 H   0  0  0  0  0  0  0  0  0  0  0  0
   -0.9603    2.4867    4.2788 H   0  0  0  0  0  0  0  0  0  0  0  0
   -2.9444    3.1001    4.6558 N   0  3  0  0  0  0  0  0  0  0  0  0
   -3.6238    3.3760    3.9676 H   0  0  0  0  0  0  0  0  0  0  0  0
   -3.0082    3.6930    5.8363 C   0  0  0  0  0  0  0  0  0  0  0  0
   -2.1767    3.4105    6.7996 N   0  0  0  0  0  0  0  0  0  0  0  0
   -1.4662    2.7187    6.6382 H   0  0  0  0  0  0  0  0  0  0  0  0
   -2.2387    3.8701    7.6895 H   0  0  0  0  0  0  0  0  0  0  0  0
   -3.9195    4.5932    6.0742 N   0  0  0  0  0  0  0  0  0  0  0  0
   -4.5835    4.8445    5.3622 H   0  0  0  0  0  0  0  0  0  0  0  0
   -3.9644    5.0404    6.9711 H   0  0  0  0  0  0  0  0  0  0  0  0
   -0.2630   -1.0161    0.6279 C   0  0  0  0  0  0  0  0  0  0  0  0
    0.8712   -0.5577    0.5594 O   0  0  0  0  0  0  0  0  0  0  0  0
   -0.5616   -2.2819    0.3191 N   0  0  0  0  0  0  0  0  0  0  0  0
   -1.5146   -2.5839    0.4393 H   0  0  0  0  0  0  0  0  0  0  0  0
    0.4272   -3.2789   -0.0946 C   0  0  0  0  0  0  0  0  0  0  0  0
    1.1285   -3.4644    0.7217 H   0  0  0  0  0  0  0  0  0  0  0  0
   -0.0654   -4.2152   -0.3600 H   0  0  0  0  0  0  0  0  0  0  0  0
    0.9899   -2.9119   -0.9557 H   0  0  0  0  0  0  0  0  0  0  0  0
  5  6  2  0  0  0  0
  5  7  1  0  0  0  0
  2  3  1  0  0  0  0
  2  4  1  0  0  0  0
  2  5  1  0  0  0  0
  1  2  1  0  0  0  0
 29 30  2  0  0  0  0
 29 31  1  0  0  0  0
 26 27  1  0  0  0  0
 26 28  1  0  0  0  0
 23 24  1  0  0  0  0
 23 25  1  0  0  0  0
 22 23  1  0  0  0  0
 22 26  1  0  0  0  0
 20 21  1  0  0  0  0
 20 22  2  0  0  0  0
 17 18  1  0  0  0  0
 17 19  1  0  0  0  0
 17 20  1  0  0  0  0
 14 15  1  0  0  0  0
 14 16  1  0  0  0  0
 14 17  1  0  0  0  0
 11 12  1  0  0  0  0
 11 13  1  0  0  0  0
 11 14  1  0  0  0  0
  9 10  1  0  0  0  0
  9 11  1  0  0  0  0
  9 29  1  0  0  0  0
  7  8  1  0  0  0  0
  7  9  1  0  0  0  0
 33 34  1  0  0  0  0
 33 35  1  0  0  0  0
 33 36  1  0  0  0  0
 31 32  1  0  0  0  0
 31 33  1  0  0  0  0
M  CHG  1  20   1
M  END
$$$$
default_name
  -OEChem-01062215323D

 36 35  0     1  0  0  0  0  0999 V2000
   -4.2256   -3.6731    1.8584 H   0  0  0  0  0  0  0  0  0  0  0  0
   -4.2396   -2.6781    1.4144 C   0  0  0  0  0  0  0  0  0  0  0  0
   -4.9506   -2.0521    1.9514 H   0  0  0  0  0  0  0  0  0  0  0  0
   -4.5266   -2.7521    0.3674 H   0  0  0  0  0  0  0  0  0  0  0  0
   -2.8576   -2.0761    1.5184 C   0  0  0  0  0  0  0  0  0  0  0  0
   -1.9456   -2.7051    2.0404 O   0  0  0  0  0  0  0  0  0  0  0  0
   -2.6926   -0.8481    1.0174 N   0  0  0  0  0  0  0  0  0  0  0  0
   -3.4926   -0.3971    0.5954 H   0  0  0  0  0  0  0  0  0  0  0  0
   -1.4216   -0.1071    1.0434 C   0  0  1  0  0  0  0  0  0  0  0  0
   -1.4911    0.7200    0.3350 H   0  0  0  0  0  0  0  0  0  0  0  0
   -1.2212    0.4683    2.4598 C   0  0  0  0  0  0  0  0  0  0  0  0
   -1.3098   -0.3456    3.1822 H   0  0  0  0  0  0  0  0  0  0  0  0
   -0.2135    0.8823    2.5375 H   0  0  0  0  0  0  0  0  0  0  0  0
   -2.2424    1.5542    2.8286 C   0  0  0  0  0  0  0  0  0  0  0  0
   -2.1661    2.3860    2.1269 H   0  0  0  0  0  0  0  0  0  0  0  0
   -3.2478    1.1347    2.7821 H   0  0  0  0  0  0  0  0  0  0  0  0
   -1.9689    2.0679    4.2488 C   0  0  0  0  0  0  0  0  0  0  0  0
   -2.0210    1.2242    4.9408 H   0  0  0  0  0  0  0  0  0  0  0  0
   -0.9603    2.4867    4.2788 H   0  0  0  0  0  0  0  0  0  0  0  0
   -2.9444    3.1001    4.6558 N   0  3  0  0  0  0  0  0  0  0  0  0
   -3.6238    3.3760    3.9676 H   0  0  0  0  0  0  0  0  0  0  0  0
   -3.0082    3.6930    5.8363 C   0  0  0  0  0  0  0  0  0  0  0  0
   -2.1767    3.4105    6.7996 N   0  0  0  0  0  0  0  0  0  0  0  0
   -1.4662    2.7187    6.6382 H   0  0  0  0  0  0  0  0  0  0  0  0
   -2.2387    3.8701    7.6895 H   0  0  0  0  0  0  0  0  0  0  0  0
   -3.9195    4.5932    6.0742 N   0  0  0  0  0  0  0  0  0  0  0  0
   -4.5835    4.8445    5.3622 H   0  0  0  0  0  0  0  0  0  0  0  0
   -3.9644    5.0404    6.9711 H   0  0  0  0  0  0  0  0  0  0  0  0
   -0.2630   -1.0161    0.6279 C   0  0  0  0  0  0  0  0  0  0  0  0
    0.8909   -0.6519    0.8204 O   0  0  0  0  0  0  0  0  0  0  0  0
   -0.5772   -2.1696    0.0300 N   0  0  0  0  0  0  0  0  0  0  0  0
   -1.5522   -2.4062   -0.0543 H   0  0  0  0  0  0  0  0  0  0  0  0
    0.4089   -3.1504   -0.4265 C   0  0  0  0  0  0  0  0  0  0  0  0
    0.9586   -3.5474    0.4297 H   0  0  0  0  0  0  0  0  0  0  0  0
   -0.0853   -3.9734   -0.9443 H   0  0  0  0  0  0  0  0  0  0  0  0
    1.1221   -2.6757   -1.1039 H   0  0  0  0  0  0  0  0  0  0  0  0
  5  6  2  0  0  0  0
  5  7  1  0  0  0  0
  2  3  1  0  0  0  0
  2  4  1  0  0  0  0
  2  5  1  0  0  0  0
  1  2  1  0  0  0  0
 29 30  2  0  0  0  0
 29 31  1  0  0  0  0
 26 27  1  0  0  0  0
 26 28  1  0  0  0  0
 23 24  1  0  0  0  0
 23 25  1  0  0  0  0
 22 23  1  0  0  0  0
 22 26  1  0  0  0  0
 20 21  1  0  0  0  0
 20 22  2  0  0  0  0
 17 18  1  0  0  0  0
 17 19  1  0  0  0  0
 17 20  1  0  0  0  0
 14 15  1  0  0  0  0
 14 16  1  0  0  0  0
 14 17  1  0  0  0  0
 11 12  1  0  0  0  0
 11 13  1  0  0  0  0
 11 14  1  0  0  0  0
  9 10  1  0  0  0  0
  9 11  1  0  0  0  0
  9 29  1  0  0  0  0
  7  8  1  0  0  0  0
  7  9  1  0  0  0  0
 33 34  1  0  0  0  0
 33 35  1  0  0  0  0
 33 36  1  0  0  0  0
 31 32  1  0  0  0  0
 31 33  1  0  0  0  0
M  CHG  1  20   1
M  END
$$$$
default_name
  -OEChem-01062215323D

 36 35  0     1  0  0  0  0  0999 V2000
   -4.2256   -3.6731    1.8584 H   0  0  0  0  0  0  0  0  0  0  0  0
   -4.2396   -2.6781    1.4144 C   0  0  0  0  0  0  0  0  0  0  0  0
   -4.9506   -2.0521    1.9514 H   0  0  0  0  0  0  0  0  0  0  0  0
   -4.5266   -2.7521    0.3674 H   0  0  0  0  0  0  0  0  0  0  0  0
   -2.8576   -2.0761    1.5184 C   0  0  0  0  0  0  0  0  0  0  0  0
   -1.9456   -2.7051    2.0404 O   0  0  0  0  0  0  0  0  0  0  0  0
   -2.6926   -0.8481    1.0174 N   0  0  0  0  0  0  0  0  0  0  0  0
   -3.4926   -0.3971    0.5954 H   0  0  0  0  0  0  0  0  0  0  0  0
   -1.4216   -0.1071    1.0434 C   0  0  1  0  0  0  0  0  0  0  0  0
   -1.4911    0.7200    0.3350 H   0  0  0  0  0  0  0  0  0  0  0  0
   -1.2212    0.4683    2.4598 C   0  0  0  0  0  0  0  0  0  0  0  0
   -1.3098   -0.3456    3.1822 H   0  0  0  0  0  0  0  0  0  0  0  0
   -0.2135    0.8823    2.5375 H   0  0  0  0  0  0  0  0  0  0  0  0
   -2.2424    1.5542    2.8286 C   0  0  0  0  0  0  0  0  0  0  0  0
   -2.1661    2.3860    2.1269 H   0  0  0  0  0  0  0  0  0  0  0  0
   -3.2478    1.1347    2.7821 H   0  0  0  0  0  0  0  0  0  0  0  0
   -1.9689    2.0679    4.2488 C   0  0  0  0  0  0  0  0  0  0  0  0
   -2.0210    1.2242    4.9408 H   0  0  0  0  0  0  0  0  0  0  0  0
   -0.9603    2.4867    4.2788 H   0  0  0  0  0  0  0  0  0  0  0  0
   -2.9444    3.1001    4.6558 N   0  3  0  0  0  0  0  0  0  0  0  0
   -3.6238    3.3760    3.9676 H   0  0  0  0  0  0  0  0  0  0  0  0
   -3.0082    3.6930    5.8363 C   0  0  0  0  0  0  0  0  0  0  0  0
   -2.1767    3.4105    6.7996 N   0  0  0  0  0  0  0  0  0  0  0  0
   -1.4662    2.7187    6.6382 H   0  0  0  0  0  0  0  0  0  0  0  0
   -2.2387    3.8701    7.6895 H   0  0  0  0  0  0  0  0  0  0  0  0
   -3.9195    4.5932    6.0742 N   0  0  0  0  0  0  0  0  0  0  0  0
   -4.5835    4.8445    5.3622 H   0  0  0  0  0  0  0  0  0  0  0  0
   -3.9644    5.0404    6.9711 H   0  0  0  0  0  0  0  0  0  0  0  0
   -0.2630   -1.0161    0.6279 C   0  0  0  0  0  0  0  0  0  0  0  0
    0.8632   -0.7953    1.0570 O   0  0  0  0  0  0  0  0  0  0  0  0
   -0.5399   -2.0033   -0.2296 N   0  0  0  0  0  0  0  0  0  0  0  0
   -1.5002   -2.1353   -0.5020 H   0  0  0  0  0  0  0  0  0  0  0  0
    0.4513   -2.9601   -0.7246 C   0  0  0  0  0  0  0  0  0  0  0  0
    0.8336   -3.5584    0.1052 H   0  0  0  0  0  0  0  0  0  0  0  0
    0.0023   -3.6239   -1.4645 H   0  0  0  0  0  0  0  0  0  0  0  0
    1.2891   -2.4278   -1.1803 H   0  0  0  0  0  0  0  0  0  0  0  0
  5  6  2  0  0  0  0
  5  7  1  0  0  0  0
  2  3  1  0  0  0  0
  2  4  1  0  0  0  0
  2  5  1  0  0  0  0
  1  2  1  0  0  0  0
 29 30  2  0  0  0  0
 29 31  1  0  0  0  0
 26 27  1  0  0  0  0
 26 28  1  0  0  0  0
 23 24  1  0  0  0  0
 23 25  1  0  0  0  0
 22 23  1  0  0  0  0
 22 26  1  0  0  0  0
 20 21  1  0  0  0  0
 20 22  2  0  0  0  0
 17 18  1  0  0  0  0
 17 19  1  0  0  0  0
 17 20  1  0  0  0  0
 14 15  1  0  0  0  0
 14 16  1  0  0  0  0
 14 17  1  0  0  0  0
 11 12  1  0  0  0  0
 11 13  1  0  0  0  0
 11 14  1  0  0  0  0
  9 10  1  0  0  0  0
  9 11  1  0  0  0  0
  9 29  1  0  0  0  0
  7  8  1  0  0  0  0
  7  9  1  0  0  0  0
 33 34  1  0  0  0  0
 33 35  1  0  0  0  0
 33 36  1  0  0  0  0
 31 32  1  0  0  0  0
 31 33  1  0  0  0  0
M  CHG  1  20   1
M  END
$$$$
default_name
  -OEChem-01062215323D

 36 35  0     1  0  0  0  0  0999 V2000
   -4.2256   -3.6731    1.8584 H   0  0  0  0  0  0  0  0  0  0  0  0
   -4.2396   -2.6781    1.4144 C   0  0  0  0  0  0  0  0  0  0  0  0
   -4.9506   -2.0521    1.9514 H   0  0  0  0  0  0  0  0  0  0  0  0
   -4.5266   -2.7521    0.3674 H   0  0  0  0  0  0  0  0  0  0  0  0
   -2.8576   -2.0761    1.5184 C   0  0  0  0  0  0  0  0  0  0  0  0
   -1.9456   -2.7051    2.0404 O   0  0  0  0  0  0  0  0  0  0  0  0
   -2.6926   -0.8481    1.0174 N   0  0  0  0  0  0  0  0  0  0  0  0
   -3.4926   -0.3971    0.5954 H   0  0  0  0  0  0  0  0  0  0  0  0
   -1.4216   -0.1071    1.0434 C   0  0  1  0  0  0  0  0  0  0  0  0
   -1.4911    0.7200    0.3350 H   0  0  0  0  0  0  0  0  0  0  0  0
   -1.2212    0.4683    2.4598 C   0  0  0  0  0  0  0  0  0  0  0  0
   -1.3098   -0.3456    3.1822 H   0  0  0  0  0  0  0  0  0  0  0  0
   -0.2135    0.8823    2.5375 H   0  0  0  0  0  0  0  0  0  0  0  0
   -2.2424    1.5542    2.8286 C   0  0  0  0  0  0  0  0  0  0  0  0
   -2.1661    2.3860    2.1269 H   0  0  0  0  0  0  0  0  0  0  0  0
   -3.2478    1.1347    2.7821 H   0  0  0  0  0  0  0  0  0  0  0  0
   -1.9689    2.0679    4.2488 C   0  0  0  0  0  0  0  0  0  0  0  0
   -2.0210    1.2242    4.9408 H   0  0  0  0  0  0  0  0  0  0  0  0
   -0.9603    2.4867    4.2788 H   0  0  0  0  0  0  0  0  0  0  0  0
   -2.9444    3.1001    4.6558 N   0  3  0  0  0  0  0  0  0  0  0  0
   -3.6238    3.3760    3.9676 H   0  0  0  0  0  0  0  0  0  0  0  0
   -3.0082    3.6930    5.8363 C   0  0  0  0  0  0  0  0  0  0  0  0
   -2.1767    3.4105    6.7996 N   0  0  0  0  0  0  0  0  0  0  0  0
   -1.4662    2.7187    6.6382 H   0  0  0  0  0  0  0  0  0  0  0  0
   -2.2387    3.8701    7.6895 H   0  0  0  0  0  0  0  0  0  0  0  0
   -3.9195    4.5932    6.0742 N   0  0  0  0  0  0  0  0  0  0  0  0
   -4.5835    4.8445    5.3622 H   0  0  0  0  0  0  0  0  0  0  0  0
   -3.9644    5.0404    6.9711 H   0  0  0  0  0  0  0  0  0  0  0  0
   -0.2630   -1.0161    0.6279 C   0  0  0  0  0  0  0  0  0  0  0  0
    0.7900   -0.9784    1.2532 O   0  0  0  0  0  0  0  0  0  0  0  0
   -0.4523   -1.7945   -0.4421 N   0  0  0  0  0  0  0  0  0  0  0  0
   -1.3621   -1.7894   -0.8734 H   0  0  0  0  0  0  0  0  0  0  0  0
    0.5515   -2.7207   -0.9688 C   0  0  0  0  0  0  0  0  0  0  0  0
    0.7619   -3.4967   -0.2297 H   0  0  0  0  0  0  0  0  0  0  0  0
    0.1915   -3.1906   -1.8849 H   0  0  0  0  0  0  0  0  0  0  0  0
    1.4796   -2.1851   -1.1799 H   0  0  0  0  0  0  0  0  0  0  0  0
  5  6  2  0  0  0  0
  5  7  1  0  0  0  0
  2  3  1  0  0  0  0
  2  4  1  0  0  0  0
  2  5  1  0  0  0  0
  1  2  1  0  0  0  0
 29 30  2  0  0  0  0
 29 31  1  0  0  0  0
 26 27  1  0  0  0  0
 26 28  1  0  0  0  0
 23 24  1  0  0  0  0
 23 25  1  0  0  0  0
 22 23  1  0  0  0  0
 22 26  1  0  0  0  0
 20 21  1  0  0  0  0
 20 22  2  0  0  0  0
 17 18  1  0  0  0  0
 17 19  1  0  0  0  0
 17 20  1  0  0  0  0
 14 15  1  0  0  0  0
 14 16  1  0  0  0  0
 14 17  1  0  0  0  0
 11 12  1  0  0  0  0
 11 13  1  0  0  0  0
 11 14  1  0  0  0  0
  9 10  1  0  0  0  0
  9 11  1  0  0  0  0
  9 29  1  0  0  0  0
  7  8  1  0  0  0  0
  7  9  1  0  0  0  0
 33 34  1  0  0  0  0
 33 35  1  0  0  0  0
 33 36  1  0  0  0  0
 31 32  1  0  0  0  0
 31 33  1  0  0  0  0
M  CHG  1  20   1
M  END
$$$$
default_name
  -OEChem-01062215323D

 36 35  0     1  0  0  0  0  0999 V2000
   -4.2256   -3.6731    1.8584 H   0  0  0  0  0  0  0  0  0  0  0  0
   -4.2396   -2.6781    1.4144 C   0  0  0  0  0  0  0  0  0  0  0  0
   -4.9506   -2.0521    1.9514 H   0  0  0  0  0  0  0  0  0  0  0  0
   -4.5266   -2.7521    0.3674 H   0  0  0  0  0  0  0  0  0  0  0  0
   -2.8576   -2.0761    1.5184 C   0  0  0  0  0  0  0  0  0  0  0  0
   -1.9456   -2.7051    2.0404 O   0  0  0  0  0  0  0  0  0  0  0  0
   -2.6926   -0.8481    1.0174 N   0  0  0  0  0  0  0  0  0  0  0  0
   -3.4926   -0.3971    0.5954 H   0  0  0  0  0  0  0  0  0  0  0  0
   -1.4216   -0.1071    1.0434 C   0  0  1  0  0  0  0  0  0  0  0  0
   -1.4911    0.7200    0.3350 H   0  0  0  0  0  0  0  0  0  0  0  0
   -1.2212    0.4683    2.4598 C   0  0  0  0  0  0  0  0  0  0  0  0
   -1.3098   -0.3456    3.1822 H   0  0  0  0  0  0  0  0  0  0  0  0
   -0.2135    0.8823    2.5375 H   0  0  0  0  0  0  0  0  0  0  0  0
   -2.2424    1.5542    2.8286 C   0  0  0  0  0  0  0  0  0  0  0  0
   -2.1661    2.3860    2.1269 H   0  0  0  0  0  0  0  0  0  0  0  0
   -3.2478    1.1347    2.7821 H   0  0  0  0  0  0  0  0  0  0  0  0
   -1.9689    2.0679    4.2488 C   0  0  0  0  0  0  0  0  0  0  0  0
   -2.0210    1.2242    4.9408 H   0  0  0  0  0  0  0  0  0  0  0  0
   -0.9603    2.4867    4.2788 H   0  0  0  0  0  0  0  0  0  0  0  0
   -2.9444    3.1001    4.6558 N   0  3  0  0  0  0  0  0  0  0  0  0
   -3.6238    3.3760    3.9676 H   0  0  0  0  0  0  0  0  0  0  0  0
   -3.0082    3.6930    5.8363 C   0  0  0  0  0  0  0  0  0  0  0  0
   -2.1767    3.4105    6.7996 N   0  0  0  0  0  0  0  0  0  0  0  0
   -1.4662    2.7187    6.6382 H   0  0  0  0  0  0  0  0  0  0  0  0
   -2.2387    3.8701    7.6895 H   0  0  0  0  0  0  0  0  0  0  0  0
   -3.9195    4.5932    6.0742 N   0  0  0  0  0  0  0  0  0  0  0  0
   -4.5835    4.8445    5.3622 H   0  0  0  0  0  0  0  0  0  0  0  0
   -3.9644    5.0404    6.9711 H   0  0  0  0  0  0  0  0  0  0  0  0
   -0.2630   -1.0161    0.6279 C   0  0  0  0  0  0  0  0  0  0  0  0
    0.6762   -1.1885    1.3956 O   0  0  0  0  0  0  0  0  0  0  0  0
   -0.3203   -1.5573   -0.5929 N   0  0  0  0  0  0  0  0  0  0  0  0
   -1.1473   -1.3923   -1.1431 H   0  0  0  0  0  0  0  0  0  0  0  0
    0.7027   -2.4487   -1.1423 C   0  0  0  0  0  0  0  0  0  0  0  0
    0.7485   -3.3664   -0.5520 H   0  0  0  0  0  0  0  0  0  0  0  0
    0.4693   -2.7029   -2.1770 H   0  0  0  0  0  0  0  0  0  0  0  0
    1.6807   -1.9642   -1.1027 H   0  0  0  0  0  0  0  0  0  0  0  0
  5  6  2  0  0  0  0
  5  7  1  0  0  0  0
  2  3  1  0  0  0  0
  2  4  1  0  0  0  0
  2  5  1  0  0  0  0
  1  2  1  0  0  0  0
 29 30  2  0  0  0  0
 29 31  1  0  0  0  0
 26 27  1  0  0  0  0
 26 28  1  0  0  0  0
 23 24  1  0  0  0  0
 23 25  1  0  0  0  0
 22 23  1  0  0  0  0
 22 26  1  0  0  0  0
 20 21  1  0  0  0  0
 20 22  2  0  0  0  0
 17 18  1  0  0  0  0
 17 19  1  0  0  0  0
 17 20  1  0  0  0  0
 14 15  1  0  0  0  0
 14 16  1  0  0  0  0
 14 17  1  0  0  0  0
 11 12  1  0  0  0  0
 11 13  1  0  0  0  0
 11 14  1  0  0  0  0
  9 10  1  0  0  0  0
  9 11  1  0  0  0  0
  9 29  1  0  0  0  0
  7  8  1  0  0  0  0
  7  9  1  0  0  0  0
 33 34  1  0  0  0  0
 33 35  1  0  0  0  0
 33 36  1  0  0  0  0
 31 32  1  0  0  0  0
 31 33  1  0  0  0  0
M  CHG  1  20   1
M  END
$$$$
default_name
  -OEChem-01062215323D

 36 35  0     1  0  0  0  0  0999 V2000
   -4.2256   -3.6731    1.8584 H   0  0  0  0  0  0  0  0  0  0  0  0
   -4.2396   -2.6781    1.4144 C   0  0  0  0  0  0  0  0  0  0  0  0
   -4.9506   -2.0521    1.9514 H   0  0  0  0  0  0  0  0  0  0  0  0
   -4.5266   -2.7521    0.3674 H   0  0  0  0  0  0  0  0  0  0  0  0
   -2.8576   -2.0761    1.5184 C   0  0  0  0  0  0  0  0  0  0  0  0
   -1.9456   -2.7051    2.0404 O   0  0  0  0  0  0  0  0  0  0  0  0
   -2.6926   -0.8481    1.0174 N   0  0  0  0  0  0  0  0  0  0  0  0
   -3.4926   -0.3971    0.5954 H   0  0  0  0  0  0  0  0  0  0  0  0
   -1.4216   -0.1071    1.0434 C   0  0  1  0  0  0  0  0  0  0  0  0
   -1.4911    0.7200    0.3350 H   0  0  0  0  0  0  0  0  0  0  0  0
   -1.2212    0.4683    2.4598 C   0  0  0  0  0  0  0  0  0  0  0  0
   -1.3098   -0.3456    3.1822 H   0  0  0  0  0  0  0  0  0  0  0  0
   -0.2135    0.8823    2.5375 H   0  0  0  0  0  0  0  0  0  0  0  0
   -2.2424    1.5542    2.8286 C   0  0  0  0  0  0  0  0  0  0  0  0
   -2.1661    2.3860    2.1269 H   0  0  0  0  0  0  0  0  0  0  0  0
   -3.2478    1.1347    2.7821 H   0  0  0  0  0  0  0  0  0  0  0  0
   -1.9689    2.0679    4.2488 C   0  0  0  0  0  0  0  0  0  0  0  0
   -2.0210    1.2242    4.9408 H   0  0  0  0  0  0  0  0  0  0  0  0
   -0.9603    2.4867    4.2788 H   0  0  0  0  0  0  0  0  0  0  0  0
   -2.9444    3.1001    4.6558 N   0  3  0  0  0  0  0  0  0  0  0  0
   -3.6238    3.3760    3.9676 H   0  0  0  0  0  0  0  0  0  0  0  0
   -3.0082    3.6930    5.8363 C   0  0  0  0  0  0  0  0  0  0  0  0
   -2.1767    3.4105    6.7996 N   0  0  0  0  0  0  0  0  0  0  0  0
   -1.4662    2.7187    6.6382 H   0  0  0  0  0  0  0  0  0  0  0  0
   -2.2387    3.8701    7.6895 H   0  0  0  0  0  0  0  0  0  0  0  0
   -3.9195    4.5932    6.0742 N   0  0  0  0  0  0  0  0  0  0  0  0
   -4.5835    4.8445    5.3622 H   0  0  0  0  0  0  0  0  0  0  0  0
   -3.9644    5.0404    6.9711 H   0  0  0  0  0  0  0  0  0  0  0  0
   -0.2630   -1.0161    0.6279 C   0  0  0  0  0  0  0  0  0  0  0  0
    0.5297   -1.4113    1.4744 O   0  0  0  0  0  0  0  0  0  0  0  0
   -0.1530   -1.3079   -0.6719 N   0  0  0  0  0  0  0  0  0  0  0  0
   -0.8704   -0.9709   -1.2928 H   0  0  0  0  0  0  0  0  0  0  0  0
    0.8944   -2.1626   -1.2334 C   0  0  0  0  0  0  0  0  0  0  0  0
    0.7943   -3.1764   -0.8398 H   0  0  0  0  0  0  0  0  0  0  0  0
    0.8169   -2.1941   -2.3209 H   0  0  0  0  0  0  0  0  0  0  0  0
    1.8785   -1.7800   -0.9539 H   0  0  0  0  0  0  0  0  0  0  0  0
  5  6  2  0  0  0  0
  5  7  1  0  0  0  0
  2  3  1  0  0  0  0
  2  4  1  0  0  0  0
  2  5  1  0  0  0  0
  1  2  1  0  0  0  0
 29 30  2  0  0  0  0
 29 31  1  0  0  0  0
 26 27  1  0  0  0  0
 26 28  1  0  0  0  0
 23 24  1  0  0  0  0
 23 25  1  0  0  0  0
 22 23  1  0  0  0  0
 22 26  1  0  0  0  0
 20 21  1  0  0  0  0
 20 22  2  0  0  0  0
 17 18  1  0  0  0  0
 17 19  1  0  0  0  0
 17 20  1  0  0  0  0
 14 15  1  0  0  0  0
 14 16  1  0  0  0  0
 14 17  1  0  0  0  0
 11 12  1  0  0  0  0
 11 13  1  0  0  0  0
 11 14  1  0  0  0  0
  9 10  1  0  0  0  0
  9 11  1  0  0  0  0
  9 29  1  0  0  0  0
  7  8  1  0  0  0  0
  7  9  1  0  0  0  0
 33 34  1  0  0  0  0
 33 35  1  0  0  0  0
 33 36  1  0  0  0  0
 31 32  1  0  0  0  0
 31 33  1  0  0  0  0
M  CHG  1  20   1
M  END
$$$$
default_name
  -OEChem-01062215323D

 36 35  0     1  0  0  0  0  0999 V2000
   -4.2256   -3.6731    1.8584 H   0  0  0  0  0  0  0  0  0  0  0  0
   -4.2396   -2.6781    1.4144 C   0  0  0  0  0  0  0  0  0  0  0  0
   -4.9506   -2.0521    1.9514 H   0  0  0  0  0  0  0  0  0  0  0  0
   -4.5266   -2.7521    0.3674 H   0  0  0  0  0  0  0  0  0  0  0  0
   -2.8576   -2.0761    1.5184 C   0  0  0  0  0  0  0  0  0  0  0  0
   -1.9456   -2.7051    2.0404 O   0  0  0  0  0  0  0  0  0  0  0  0
   -2.6926   -0.8481    1.0174 N   0  0  0  0  0  0  0  0  0  0  0  0
   -3.4926   -0.3971    0.5954 H   0  0  0  0  0  0  0  0  0  0  0  0
   -1.4216   -0.1071    1.0434 C   0  0  1  0  0  0  0  0  0  0  0  0
   -1.4911    0.7200    0.3350 H   0  0  0  0  0  0  0  0  0  0  0  0
   -1.2212    0.4683    2.4598 C   0  0  0  0  0  0  0  0  0  0  0  0
   -1.3098   -0.3456    3.1822 H   0  0  0  0  0  0  0  0  0  0  0  0
   -0.2135    0.8823    2.5375 H   0  0  0  0  0  0  0  0  0  0  0  0
   -2.2424    1.5542    2.8286 C   0  0  0  0  0  0  0  0  0  0  0  0
   -2.1661    2.3860    2.1269 H   0  0  0  0  0  0  0  0  0  0  0  0
   -3.2478    1.1347    2.7821 H   0  0  0  0  0  0  0  0  0  0  0  0
   -1.9689    2.0679    4.2488 C   0  0  0  0  0  0  0  0  0  0  0  0
   -2.0210    1.2242    4.9408 H   0  0  0  0  0  0  0  0  0  0  0  0
   -0.9603    2.4867    4.2788 H   0  0  0  0  0  0  0  0  0  0  0  0
   -2.9444    3.1001    4.6558 N   0  3  0  0  0  0  0  0  0  0  0  0
   -3.6238    3.3760    3.9676 H   0  0  0  0  0  0  0  0  0  0  0  0
   -3.0082    3.6930    5.8363 C   0  0  0  0  0  0  0  0  0  0  0  0
   -2.1767    3.4105    6.7996 N   0  0  0  0  0  0  0  0  0  0  0  0
   -1.4662    2.7187    6.6382 H   0  0  0  0  0  0  0  0  0  0  0  0
   -2.2387    3.8701    7.6895 H   0  0  0  0  0  0  0  0  0  0  0  0
   -3.9195    4.5932    6.0742 N   0  0  0  0  0  0  0  0  0  0  0  0
   -4.5835    4.8445    5.3622 H   0  0  0  0  0  0  0  0  0  0  0  0
   -3.9644    5.0404    6.9711 H   0  0  0  0  0  0  0  0  0  0  0  0
   -0.2630   -1.0161    0.6279 C   0  0  0  0  0  0  0  0  0  0  0  0
    0.3603   -1.6317    1.4844 O   0  0  0  0  0  0  0  0  0  0  0  0
    0.0383   -1.0633   -0.6735 N   0  0  0  0  0  0  0  0  0  0  0  0
   -0.5504   -0.5541   -1.3122 H   0  0  0  0  0  0  0  0  0  0  0  0
    1.1138   -1.8819   -1.2358 C   0  0  0  0  0  0  0  0  0  0  0  0
    0.8961   -2.9397   -1.0736 H   0  0  0  0  0  0  0  0  0  0  0  0
    1.2104   -1.6989   -2.3068 H   0  0  0  0  0  0  0  0  0  0  0  0
    2.0597   -1.6452   -0.7437 H   0  0  0  0  0  0  0  0  0  0  0  0
  5  6  2  0  0  0  0
  5  7  1  0  0  0  0
  2  3  1  0  0  0  0
  2  4  1  0  0  0  0
  2  5  1  0  0  0  0
  1  2  1  0  0  0  0
 29 30  2  0  0  0  0
 29 31  1  0  0  0  0
 26 27  1  0  0  0  0
 26 28  1  0  0  0  0
 23 24  1  0  0  0  0
 23 25  1  0  0  0  0
 22 23  1  0  0  0  0
 22 26  1  0  0  0  0
 20 21  1  0  0  0  0
 20 22  2  0  0  0  0
 17 18  1  0  0  0  0
 17 19  1  0  0  0  0
 17 20  1  0  0  0  0
 14 15  1  0  0  0  0
 14 16  1  0  0  0  0
 14 17  1  0  0  0  0
 11 12  1  0  0  0  0
 11 13  1  0  0  0  0
 11 14  1  0  0  0  0
  9 10  1  0  0  0  0
  9 11  1  0  0  0  0
  9 29  1  0  0  0  0
  7  8  1  0  0  0  0
  7  9  1  0  0  0  0
 33 34  1  0  0  0  0
 33 35  1  0  0  0  0
 33 36  1  0  0  0  0
 31 32  1  0  0  0  0
 31 33  1  0  0  0  0
M  CHG  1  20   1
M  END
$$$$
default_name
  -OEChem-01062215323D

 36 35  0     1  0  0  0  0  0999 V2000
   -4.2256   -3.6731    1.8584 H   0  0  0  0  0  0  0  0  0  0  0  0
   -4.2396   -2.6781    1.4144 C   0  0  0  0  0  0  0  0  0  0  0  0
   -4.9506   -2.0521    1.9514 H   0  0  0  0  0  0  0  0  0  0  0  0
   -4.5266   -2.7521    0.3674 H   0  0  0  0  0  0  0  0  0  0  0  0
   -2.8576   -2.0761    1.5184 C   0  0  0  0  0  0  0  0  0  0  0  0
   -1.9456   -2.7051    2.0404 O   0  0  0  0  0  0  0  0  0  0  0  0
   -2.6926   -0.8481    1.0174 N   0  0  0  0  0  0  0  0  0  0  0  0
   -3.4926   -0.3971    0.5954 H   0  0  0  0  0  0  0  0  0  0  0  0
   -1.4216   -0.1071    1.0434 C   0  0  1  0  0  0  0  0  0  0  0  0
   -1.4911    0.7200    0.3350 H   0  0  0  0  0  0  0  0  0  0  0  0
   -1.2212    0.4683    2.4598 C   0  0  0  0  0  0  0  0  0  0  0  0
   -1.3098   -0.3456    3.1822 H   0  0  0  0  0  0  0  0  0  0  0  0
   -0.2135    0.8823    2.5375 H   0  0  0  0  0  0  0  0  0  0  0  0
   -2.2424    1.5542    2.8286 C   0  0  0  0  0  0  0  0  0  0  0  0
   -2.1661    2.3860    2.1269 H   0  0  0  0  0  0  0  0  0  0  0  0
   -3.2478    1.1347    2.7821 H   0  0  0  0  0  0  0  0  0  0  0  0
   -1.9689    2.0679    4.2488 C   0  0  0  0  0  0  0  0  0  0  0  0
   -2.0210    1.2242    4.9408 H   0  0  0  0  0  0  0  0  0  0  0  0
   -0.9603    2.4867    4.2788 H   0  0  0  0  0  0  0  0  0  0  0  0
   -2.9444    3.1001    4.6558 N   0  3  0  0  0  0  0  0  0  0  0  0
   -3.6238    3.3760    3.9676 H   0  0  0  0  0  0  0  0  0  0  0  0
   -3.0082    3.6930    5.8363 C   0  0  0  0  0  0  0  0  0  0  0  0
   -2.1767    3.4105    6.7996 N   0  0  0  0  0  0  0  0  0  0  0  0
   -1.4662    2.7187    6.6382 H   0  0  0  0  0  0  0  0  0  0  0  0
   -2.2387    3.8701    7.6895 H   0  0  0  0  0  0  0  0  0  0  0  0
   -3.9195    4.5932    6.0742 N   0  0  0  0  0  0  0  0  0  0  0  0
   -4.5835    4.8445    5.3622 H   0  0  0  0  0  0  0  0  0  0  0  0
   -3.9644    5.0404    6.9711 H   0  0  0  0  0  0  0  0  0  0  0  0
   -0.2630   -1.0161    0.6279 C   0  0  0  0  0  0  0  0  0  0  0  0
    0.1798   -1.8346    1.4248 O   0  0  0  0  0  0  0  0  0  0  0  0
    0.2406   -0.8402   -0.5978 N   0  0  0  0  0  0  0  0  0  0  0  0
   -0.2089   -0.1701   -1.2001 H   0  0  0  0  0  0  0  0  0  0  0  0
    1.3458   -1.6257   -1.1494 C   0  0  0  0  0  0  0  0  0  0  0  0
    1.0471   -2.6724   -1.2374 H   0  0  0  0  0  0  0  0  0  0  0  0
    1.6233   -1.2510   -2.1355 H   0  0  0  0  0  0  0  0  0  0  0  0
    2.2118   -1.5690   -0.4863 H   0  0  0  0  0  0  0  0  0  0  0  0
  5  6  2  0  0  0  0
  5  7  1  0  0  0  0
  2  3  1  0  0  0  0
  2  4  1  0  0  0  0
  2  5  1  0  0  0  0
  1  2  1  0  0  0  0
 29 30  2  0  0  0  0
 29 31  1  0  0  0  0
 26 27  1  0  0  0  0
 26 28  1  0  0  0  0
 23 24  1  0  0  0  0
 23 25  1  0  0  0  0
 22 23  1  0  0  0  0
 22 26  1  0  0  0  0
 20 21  1  0  0  0  0
 20 22  2  0  0  0  0
 17 18  1  0  0  0  0
 17 19  1  0  0  0  0
 17 20  1  0  0  0  0
 14 15  1  0  0  0  0
 14 16  1  0  0  0  0
 14 17  1  0  0  0  0
 11 12  1  0  0  0  0
 11 13  1  0  0  0  0
 11 14  1  0  0  0  0
  9 10  1  0  0  0  0
  9 11  1  0  0  0  0
  9 29  1  0  0  0  0
  7  8  1  0  0  0  0
  7  9  1  0  0  0  0
 33 34  1  0  0  0  0
 33 35  1  0  0  0  0
 33 36  1  0  0  0  0
 31 32  1  0  0  0  0
 31 33  1  0  0  0  0
M  CHG  1  20   1
M  END
$$$$
default_name
  -OEChem-01062215323D

 36 35  0     1  0  0  0  0  0999 V2000
   -4.2256   -3.6731    1.8584 H   0  0  0  0  0  0  0  0  0  0  0  0
   -4.2396   -2.6781    1.4144 C   0  0  0  0  0  0  0  0  0  0  0  0
   -4.9506   -2.0521    1.9514 H   0  0  0  0  0  0  0  0  0  0  0  0
   -4.5266   -2.7521    0.3674 H   0  0  0  0  0  0  0  0  0  0  0  0
   -2.8576   -2.0761    1.5184 C   0  0  0  0  0  0  0  0  0  0  0  0
   -1.9456   -2.7051    2.0404 O   0  0  0  0  0  0  0  0  0  0  0  0
   -2.6926   -0.8481    1.0174 N   0  0  0  0  0  0  0  0  0  0  0  0
   -3.4926   -0.3971    0.5954 H   0  0  0  0  0  0  0  0  0  0  0  0
   -1.4216   -0.1071    1.0434 C   0  0  1  0  0  0  0  0  0  0  0  0
   -1.4911    0.7200    0.3350 H   0  0  0  0  0  0  0  0  0  0  0  0
   -1.2212    0.4683    2.4598 C   0  0  0  0  0  0  0  0  0  0  0  0
   -1.3098   -0.3456    3.1822 H   0  0  0  0  0  0  0  0  0  0  0  0
   -0.2135    0.8823    2.5375 H   0  0  0  0  0  0  0  0  0  0  0  0
   -2.2424    1.5542    2.8286 C   0  0  0  0  0  0  0  0  0  0  0  0
   -2.1661    2.3860    2.1269 H   0  0  0  0  0  0  0  0  0  0  0  0
   -3.2478    1.1347    2.7821 H   0  0  0  0  0  0  0  0  0  0  0  0
   -1.9689    2.0679    4.2488 C   0  0  0  0  0  0  0  0  0  0  0  0
   -2.0210    1.2242    4.9408 H   0  0  0  0  0  0  0  0  0  0  0  0
   -0.9603    2.4867    4.2788 H   0  0  0  0  0  0  0  0  0  0  0  0
   -2.9444    3.1001    4.6558 N   0  3  0  0  0  0  0  0  0  0  0  0
   -3.6238    3.3760    3.9676 H   0  0  0  0  0  0  0  0  0  0  0  0
   -3.0082    3.6930    5.8363 C   0  0  0  0  0  0  0  0  0  0  0  0
   -2.1767    3.4105    6.7996 N   0  0  0  0  0  0  0  0  0  0  0  0
   -1.4662    2.7187    6.6382 H   0  0  0  0  0  0  0  0  0  0  0  0
   -2.2387    3.8701    7.6895 H   0  0  0  0  0  0  0  0  0  0  0  0
   -3.9195    4.5932    6.0742 N   0  0  0  0  0  0  0  0  0  0  0  0
   -4.5835    4.8445    5.3622 H   0  0  0  0  0  0  0  0  0  0  0  0
   -3.9644    5.0404    6.9711 H   0  0  0  0  0  0  0  0  0  0  0  0
   -0.2630   -1.0161    0.6279 C   0  0  0  0  0  0  0  0  0  0  0  0
    0.0002   -2.0063    1.2997 O   0  0  0  0  0  0  0  0  0  0  0  0
    0.4399   -0.6537   -0.4498 N   0  0  0  0  0  0  0  0  0  0  0  0
    0.1307    0.1548   -0.9640 H   0  0  0  0  0  0  0  0  0  0  0  0
    1.5746   -1.4114   -0.9801 C   0  0  0  0  0  0  0  0  0  0  0  0
    1.2368   -2.3928   -1.3200 H   0  0  0  0  0  0  0  0  0  0  0  0
    2.0272   -0.8809   -1.8188 H   0  0  0  0  0  0  0  0  0  0  0  0
    2.3246   -1.5564   -0.1994 H   0  0  0  0  0  0  0  0  0  0  0  0
  5  6  2  0  0  0  0
  5  7  1  0  0  0  0
  2  3  1  0  0  0  0
  2  4  1  0  0  0  0
  2  5  1  0  0  0  0
  1  2  1  0  0  0  0
 29 30  2  0  0  0  0
 29 31  1  0  0  0  0
 26 27  1  0  0  0  0
 26 28  1  0  0  0  0
 23 24  1  0  0  0  0
 23 25  1  0  0  0  0
 22 23  1  0  0  0  0
 22 26  1  0  0  0  0
 20 21  1  0  0  0  0
 20 22  2  0  0  0  0
 17 18  1  0  0  0  0
 17 19  1  0  0  0  0
 17 20  1  0  0  0  0
 14 15  1  0  0  0  0
 14 16  1  0  0  0  0
 14 17  1  0  0  0  0
 11 12  1  0  0  0  0
 11 13  1  0  0  0  0
 11 14  1  0  0  0  0
  9 10  1  0  0  0  0
  9 11  1  0  0  0  0
  9 29  1  0  0  0  0
  7  8  1  0  0  0  0
  7  9  1  0  0  0  0
 33 34  1  0  0  0  0
 33 35  1  0  0  0  0
 33 36  1  0  0  0  0
 31 32  1  0  0  0  0
 31 33  1  0  0  0  0
M  CHG  1  20   1
M  END
$$$$
default_name
  -OEChem-01062215323D

 36 35  0     1  0  0  0  0  0999 V2000
   -4.2256   -3.6731    1.8584 H   0  0  0  0  0  0  0  0  0  0  0  0
   -4.2396   -2.6781    1.4144 C   0  0  0  0  0  0  0  0  0  0  0  0
   -4.9506   -2.0521    1.9514 H   0  0  0  0  0  0  0  0  0  0  0  0
   -4.5266   -2.7521    0.3674 H   0  0  0  0  0  0  0  0  0  0  0  0
   -2.8576   -2.0761    1.5184 C   0  0  0  0  0  0  0  0  0  0  0  0
   -1.9456   -2.7051    2.0404 O   0  0  0  0  0  0  0  0  0  0  0  0
   -2.6926   -0.8481    1.0174 N   0  0  0  0  0  0  0  0  0  0  0  0
   -3.4926   -0.3971    0.5954 H   0  0  0  0  0  0  0  0  0  0  0  0
   -1.4216   -0.1071    1.0434 C   0  0  1  0  0  0  0  0  0  0  0  0
   -1.4911    0.7200    0.3350 H   0  0  0  0  0  0  0  0  0  0  0  0
   -1.2212    0.4683    2.4598 C   0  0  0  0  0  0  0  0  0  0  0  0
   -1.3098   -0.3456    3.1822 H   0  0  0  0  0  0  0  0  0  0  0  0
   -0.2135    0.8823    2.5375 H   0  0  0  0  0  0  0  0  0  0  0  0
   -2.2424    1.5542    2.8286 C   0  0  0  0  0  0  0  0  0  0  0  0
   -2.1661    2.3860    2.1269 H   0  0  0  0  0  0  0  0  0  0  0  0
   -3.2478    1.1347    2.7821 H   0  0  0  0  0  0  0  0  0  0  0  0
   -1.9689    2.0679    4.2488 C   0  0  0  0  0  0  0  0  0  0  0  0
   -2.0210    1.2242    4.9408 H   0  0  0  0  0  0  0  0  0  0  0  0
   -0.9603    2.4867    4.2788 H   0  0  0  0  0  0  0  0  0  0  0  0
   -2.9444    3.1001    4.6558 N   0  3  0  0  0  0  0  0  0  0  0  0
   -3.6238    3.3760    3.9676 H   0  0  0  0  0  0  0  0  0  0  0  0
   -3.0082    3.6930    5.8363 C   0  0  0  0  0  0  0  0  0  0  0  0
   -2.1767    3.4105    6.7996 N   0  0  0  0  0  0  0  0  0  0  0  0
   -1.4662    2.7187    6.6382 H   0  0  0  0  0  0  0  0  0  0  0  0
   -2.2387    3.8701    7.6895 H   0  0  0  0  0  0  0  0  0  0  0  0
   -3.9195    4.5932    6.0742 N   0  0  0  0  0  0  0  0  0  0  0  0
   -4.5835    4.8445    5.3622 H   0  0  0  0  0  0  0  0  0  0  0  0
   -3.9644    5.0404    6.9711 H   0  0  0  0  0  0  0  0  0  0  0  0
   -0.2630   -1.0161    0.6279 C   0  0  0  0  0  0  0  0  0  0  0  0
   -0.1660   -2.1349    1.1176 O   0  0  0  0  0  0  0  0  0  0  0  0
    0.6229   -0.5166   -0.2396 N   0  0  0  0  0  0  0  0  0  0  0  0
    0.4452    0.3985   -0.6201 H   0  0  0  0  0  0  0  0  0  0  0  0
    1.7847   -1.2538   -0.7393 C   0  0  0  0  0  0  0  0  0  0  0  0
    1.4525   -2.1198   -1.3158 H   0  0  0  0  0  0  0  0  0  0  0  0
    2.3946   -0.6139   -1.3783 H   0  0  0  0  0  0  0  0  0  0  0  0
    2.3902   -1.6085    0.0975 H   0  0  0  0  0  0  0  0  0  0  0  0
  5  6  2  0  0  0  0
  5  7  1  0  0  0  0
  2  3  1  0  0  0  0
  2  4  1  0  0  0  0
  2  5  1  0  0  0  0
  1  2  1  0  0  0  0
 29 30  2  0  0  0  0
 29 31  1  0  0  0  0
 26 27  1  0  0  0  0
 26 28  1  0  0  0  0
 23 24  1  0  0  0  0
 23 25  1  0  0  0  0
 22 23  1  0  0  0  0
 22 26  1  0  0  0  0
 20 21  1  0  0  0  0
 20 22  2  0  0  0  0
 17 18  1  0  0  0  0
 17 19  1  0  0  0  0
 17 20  1  0  0  0  0
 14 15  1  0  0  0  0
 14 16  1  0  0  0  0
 14 17  1  0  0  0  0
 11 12  1  0  0  0  0
 11 13  1  0  0  0  0
 11 14  1  0  0  0  0
  9 10  1  0  0  0  0
  9 11  1  0  0  0  0
  9 29  1  0  0  0  0
  7  8  1  0  0  0  0
  7  9  1  0  0  0  0
 33 34  1  0  0  0  0
 33 35  1  0  0  0  0
 33 36  1  0  0  0  0
 31 32  1  0  0  0  0
 31 33  1  0  0  0  0
M  CHG  1  20   1
M  END
$$$$
default_name
  -OEChem-01062215323D

 36 35  0     1  0  0  0  0  0999 V2000
   -4.2256   -3.6731    1.8584 H   0  0  0  0  0  0  0  0  0  0  0  0
   -4.2396   -2.6781    1.4144 C   0  0  0  0  0  0  0  0  0  0  0  0
   -4.9506   -2.0521    1.9514 H   0  0  0  0  0  0  0  0  0  0  0  0
   -4.5266   -2.7521    0.3674 H   0  0  0  0  0  0  0  0  0  0  0  0
   -2.8576   -2.0761    1.5184 C   0  0  0  0  0  0  0  0  0  0  0  0
   -1.9456   -2.7051    2.0404 O   0  0  0  0  0  0  0  0  0  0  0  0
   -2.6926   -0.8481    1.0174 N   0  0  0  0  0  0  0  0  0  0  0  0
   -3.4926   -0.3971    0.5954 H   0  0  0  0  0  0  0  0  0  0  0  0
   -1.4216   -0.1071    1.0434 C   0  0  1  0  0  0  0  0  0  0  0  0
   -1.4911    0.7200    0.3350 H   0  0  0  0  0  0  0  0  0  0  0  0
   -1.2212    0.4683    2.4598 C   0  0  0  0  0  0  0  0  0  0  0  0
   -1.3098   -0.3456    3.1822 H   0  0  0  0  0  0  0  0  0  0  0  0
   -0.2135    0.8823    2.5375 H   0  0  0  0  0  0  0  0  0  0  0  0
   -2.2424    1.5542    2.8286 C   0  0  0  0  0  0  0  0  0  0  0  0
   -2.1661    2.3860    2.1269 H   0  0  0  0  0  0  0  0  0  0  0  0
   -3.2478    1.1347    2.7821 H   0  0  0  0  0  0  0  0  0  0  0  0
   -1.9689    2.0679    4.2488 C   0  0  0  0  0  0  0  0  0  0  0  0
   -2.0210    1.2242    4.9408 H   0  0  0  0  0  0  0  0  0  0  0  0
   -0.9603    2.4867    4.2788 H   0  0  0  0  0  0  0  0  0  0  0  0
   -2.9444    3.1001    4.6558 N   0  3  0  0  0  0  0  0  0  0  0  0
   -3.6238    3.3760    3.9676 H   0  0  0  0  0  0  0  0  0  0  0  0
   -3.0082    3.6930    5.8363 C   0  0  0  0  0  0  0  0  0  0  0  0
   -2.1767    3.4105    6.7996 N   0  0  0  0  0  0  0  0  0  0  0  0
   -1.4662    2.7187    6.6382 H   0  0  0  0  0  0  0  0  0  0  0  0
   -2.2387    3.8701    7.6895 H   0  0  0  0  0  0  0  0  0  0  0  0
   -3.9195    4.5932    6.0742 N   0  0  0  0  0  0  0  0  0  0  0  0
   -4.5835    4.8445    5.3622 H   0  0  0  0  0  0  0  0  0  0  0  0
   -3.9644    5.0404    6.9711 H   0  0  0  0  0  0  0  0  0  0  0  0
   -0.2630   -1.0161    0.6279 C   0  0  0  0  0  0  0  0  0  0  0  0
   -0.3076   -2.2118    0.8909 O   0  0  0  0  0  0  0  0  0  0  0  0
    0.7769   -0.4382    0.0184 N   0  0  0  0  0  0  0  0  0  0  0  0
    0.7133    0.5444   -0.1918 H   0  0  0  0  0  0  0  0  0  0  0  0
    1.9616   -1.1634   -0.4436 C   0  0  0  0  0  0  0  0  0  0  0  0
    1.6794   -1.8721   -1.2251 H   0  0  0  0  0  0  0  0  0  0  0  0
    2.7006   -0.4682   -0.8440 H   0  0  0  0  0  0  0  0  0  0  0  0
    2.4044   -1.7216    0.3842 H   0  0  0  0  0  0  0  0  0  0  0  0
  5  6  2  0  0  0  0
  5  7  1  0  0  0  0
  2  3  1  0  0  0  0
  2  4  1  0  0  0  0
  2  5  1  0  0  0  0
  1  2  1  0  0  0  0
 29 30  2  0  0  0  0
 29 31  1  0  0  0  0
 26 27  1  0  0  0  0
 26 28  1  0  0  0  0
 23 24  1  0  0  0  0
 23 25  1  0  0  0  0
 22 23  1  0  0  0  0
 22 26  1  0  0  0  0
 20 21  1  0  0  0  0
 20 22  2  0  0  0  0
 17 18  1  0  0  0  0
 17 19  1  0  0  0  0
 17 20  1  0  0  0  0
 14 15  1  0  0  0  0
 14 16  1  0  0  0  0
 14 17  1  0  0  0  0
 11 12  1  0  0  0  0
 11 13  1  0  0  0  0
 11 14  1  0  0  0  0
  9 10  1  0  0  0  0
  9 11  1  0  0  0  0
  9 29  1  0  0  0  0
  7  8  1  0  0  0  0
  7  9  1  0  0  0  0
 33 34  1  0  0  0  0
 33 35  1  0  0  0  0
 33 36  1  0  0  0  0
 31 32  1  0  0  0  0
 31 33  1  0  0  0  0
M  CHG  1  20   1
M  END
$$$$
default_name
  -OEChem-01062215323D

 36 35  0     1  0  0  0  0  0999 V2000
   -4.2256   -3.6731    1.8584 H   0  0  0  0  0  0  0  0  0  0  0  0
   -4.2396   -2.6781    1.4144 C   0  0  0  0  0  0  0  0  0  0  0  0
   -4.9506   -2.0521    1.9514 H   0  0  0  0  0  0  0  0  0  0  0  0
   -4.5266   -2.7521    0.3674 H   0  0  0  0  0  0  0  0  0  0  0  0
   -2.8576   -2.0761    1.5184 C   0  0  0  0  0  0  0  0  0  0  0  0
   -1.9456   -2.7051    2.0404 O   0  0  0  0  0  0  0  0  0  0  0  0
   -2.6926   -0.8481    1.0174 N   0  0  0  0  0  0  0  0  0  0  0  0
   -3.4926   -0.3971    0.5954 H   0  0  0  0  0  0  0  0  0  0  0  0
   -1.4216   -0.1071    1.0434 C   0  0  1  0  0  0  0  0  0  0  0  0
   -1.4911    0.7200    0.3350 H   0  0  0  0  0  0  0  0  0  0  0  0
   -1.2212    0.4683    2.4598 C   0  0  0  0  0  0  0  0  0  0  0  0
   -1.3098   -0.3456    3.1822 H   0  0  0  0  0  0  0  0  0  0  0  0
   -0.2135    0.8823    2.5375 H   0  0  0  0  0  0  0  0  0  0  0  0
   -2.2424    1.5542    2.8286 C   0  0  0  0  0  0  0  0  0  0  0  0
   -2.1661    2.3860    2.1269 H   0  0  0  0  0  0  0  0  0  0  0  0
   -3.2478    1.1347    2.7821 H   0  0  0  0  0  0  0  0  0  0  0  0
   -1.9689    2.0679    4.2488 C   0  0  0  0  0  0  0  0  0  0  0  0
   -2.0210    1.2242    4.9408 H   0  0  0  0  0  0  0  0  0  0  0  0
   -0.9603    2.4867    4.2788 H   0  0  0  0  0  0  0  0  0  0  0  0
   -2.9444    3.1001    4.6558 N   0  3  0  0  0  0  0  0  0  0  0  0
   -3.6238    3.3760    3.9676 H   0  0  0  0  0  0  0  0  0  0  0  0
   -3.0082    3.6930    5.8363 C   0  0  0  0  0  0  0  0  0  0  0  0
   -2.1767    3.4105    6.7996 N   0  0  0  0  0  0  0  0  0  0  0  0
   -1.4662    2.7187    6.6382 H   0  0  0  0  0  0  0  0  0  0  0  0
   -2.2387    3.8701    7.6895 H   0  0  0  0  0  0  0  0  0  0  0  0
   -3.9195    4.5932    6.0742 N   0  0  0  0  0  0  0  0  0  0  0  0
   -4.5835    4.8445    5.3622 H   0  0  0  0  0  0  0  0  0  0  0  0
   -3.9644    5.0404    6.9711 H   0  0  0  0  0  0  0  0  0  0  0  0
   -0.2630   -1.0161    0.6279 C   0  0  0  0  0  0  0  0  0  0  0  0
   -0.4150   -2.2318    0.6352 O   0  0  0  0  0  0  0  0  0  0  0  0
    0.8915   -0.4239    0.3066 N   0  0  0  0  0  0  0  0  0  0  0  0
    0.9166    0.5826    0.2917 H   0  0  0  0  0  0  0  0  0  0  0  0
    2.0934   -1.1465   -0.1130 C   0  0  0  0  0  0  0  0  0  0  0  0
    1.9020   -1.6665   -1.0541 H   0  0  0  0  0  0  0  0  0  0  0  0
    2.9242   -0.4536   -0.2523 H   0  0  0  0  0  0  0  0  0  0  0  0
    2.3660   -1.8880    0.6412 H   0  0  0  0  0  0  0  0  0  0  0  0
  5  6  2  0  0  0  0
  5  7  1  0  0  0  0
  2  3  1  0  0  0  0
  2  4  1  0  0  0  0
  2  5  1  0  0  0  0
  1  2  1  0  0  0  0
 29 30  2  0  0  0  0
 29 31  1  0  0  0  0
 26 27  1  0  0  0  0
 26 28  1  0  0  0  0
 23 24  1  0  0  0  0
 23 25  1  0  0  0  0
 22 23  1  0  0  0  0
 22 26  1  0  0  0  0
 20 21  1  0  0  0  0
 20 22  2  0  0  0  0
 17 18  1  0  0  0  0
 17 19  1  0  0  0  0
 17 20  1  0  0  0  0
 14 15  1  0  0  0  0
 14 16  1  0  0  0  0
 14 17  1  0  0  0  0
 11 12  1  0  0  0  0
 11 13  1  0  0  0  0
 11 14  1  0  0  0  0
  9 10  1  0  0  0  0
  9 11  1  0  0  0  0
  9 29  1  0  0  0  0
  7  8  1  0  0  0  0
  7  9  1  0  0  0  0
 33 34  1  0  0  0  0
 33 35  1  0  0  0  0
 33 36  1  0  0  0  0
 31 32  1  0  0  0  0
 31 33  1  0  0  0  0
M  CHG  1  20   1
M  END
$$$$
default_name
  -OEChem-01062215323D

 36 35  0     1  0  0  0  0  0999 V2000
   -4.2256   -3.6731    1.8584 H   0  0  0  0  0  0  0  0  0  0  0  0
   -4.2396   -2.6781    1.4144 C   0  0  0  0  0  0  0  0  0  0  0  0
   -4.9506   -2.0521    1.9514 H   0  0  0  0  0  0  0  0  0  0  0  0
   -4.5266   -2.7521    0.3674 H   0  0  0  0  0  0  0  0  0  0  0  0
   -2.8576   -2.0761    1.5184 C   0  0  0  0  0  0  0  0  0  0  0  0
   -1.9456   -2.7051    2.0404 O   0  0  0  0  0  0  0  0  0  0  0  0
   -2.6926   -0.8481    1.0174 N   0  0  0  0  0  0  0  0  0  0  0  0
   -3.4926   -0.3971    0.5954 H   0  0  0  0  0  0  0  0  0  0  0  0
   -1.4216   -0.1071    1.0434 C   0  0  1  0  0  0  0  0  0  0  0  0
   -1.5747    0.8557    0.5533 H   0  0  0  0  0  0  0  0  0  0  0  0
   -1.0317    0.1413    2.5143 C   0  0  0  0  0  0  0  0  0  0  0  0
   -1.0334   -0.8149    3.0415 H   0  0  0  0  0  0  0  0  0  0  0  0
   -0.0183    0.5470    2.5513 H   0  0  0  0  0  0  0  0  0  0  0  0
   -1.9846    1.0975    3.2463 C   0  0  0  0  0  0  0  0  0  0  0  0
   -1.9923    2.0663    2.7448 H   0  0  0  0  0  0  0  0  0  0  0  0
   -2.9918    0.6795    3.2379 H   0  0  0  0  0  0  0  0  0  0  0  0
   -1.5224    1.2864    4.6975 C   0  0  0  0  0  0  0  0  0  0  0  0
   -1.4922    0.3087    5.1839 H   0  0  0  0  0  0  0  0  0  0  0  0
   -0.5143    1.7074    4.6893 H   0  0  0  0  0  0  0  0  0  0  0  0
   -2.4257    2.1825    5.4485 N   0  3  0  0  0  0  0  0  0  0  0  0
   -3.1864    2.5919    4.9336 H   0  0  0  0  0  0  0  0  0  0  0  0
   -2.3284    2.4955    6.7297 C   0  0  0  0  0  0  0  0  0  0  0  0
   -1.3809    2.0213    7.4891 N   0  0  0  0  0  0  0  0  0  0  0  0
   -0.7048    1.3969    7.0860 H   0  0  0  0  0  0  0  0  0  0  0  0
   -1.3212    2.2693    8.4595 H   0  0  0  0  0  0  0  0  0  0  0  0
   -3.1914    3.3020    7.2793 N   0  0  0  0  0  0  0  0  0  0  0  0
   -3.9402    3.6930    6.7340 H   0  0  0  0  0  0  0  0  0  0  0  0
   -3.1139    3.5368    8.2516 H   0  0  0  0  0  0  0  0  0  0  0  0
   -0.3367   -0.8777    0.2882 C   0  0  0  0  0  0  0  0  0  0  0  0
   -0.5987   -1.9711   -0.1984 O   0  0  0  0  0  0  0  0  0  0  0  0
    0.8773   -0.3213    0.2291 N   0  0  0  0  0  0  0  0  0  0  0  0
    0.9942    0.5973    0.6244 H   0  0  0  0  0  0  0  0  0  0  0  0
    2.0223   -0.9250   -0.4544 C   0  0  0  0  0  0  0  0  0  0  0  0
    1.8171   -0.9981   -1.5246 H   0  0  0  0  0  0  0  0  0  0  0  0
    2.9170   -0.3194   -0.3045 H   0  0  0  0  0  0  0  0  0  0  0  0
    2.2001   -1.9310   -0.0681 H   0  0  0  0  0  0  0  0  0  0  0  0
  5  6  2  0  0  0  0
  5  7  1  0  0  0  0
  2  3  1  0  0  0  0
  2  4  1  0  0  0  0
  2  5  1  0  0  0  0
  1  2  1  0  0  0  0
 29 30  2  0  0  0  0
 29 31  1  0  0  0  0
 26 27  1  0  0  0  0
 26 28  1  0  0  0  0
 23 24  1  0  0  0  0
 23 25  1  0  0  0  0
 22 23  1  0  0  0  0
 22 26  1  0  0  0  0
 20 21  1  0  0  0  0
 20 22  2  0  0  0  0
 17 18  1  0  0  0  0
 17 19  1  0  0  0  0
 17 20  1  0  0  0  0
 14 15  1  0  0  0  0
 14 16  1  0  0  0  0
 14 17  1  0  0  0  0
 11 12  1  0  0  0  0
 11 13  1  0  0  0  0
 11 14  1  0  0  0  0
  9 10  1  0  0  0  0
  9 11  1  0  0  0  0
  9 29  1  0  0  0  0
  7  8  1  0  0  0  0
  7  9  1  0  0  0  0
 33 34  1  0  0  0  0
 33 35  1  0  0  0  0
 33 36  1  0  0  0  0
 31 32  1  0  0  0  0
 31 33  1  0  0  0  0
M  CHG  1  20   1
M  END
$$$$
default_name
  -OEChem-01062215323D

 36 35  0     1  0  0  0  0  0999 V2000
   -4.2256   -3.6731    1.8584 H   0  0  0  0  0  0  0  0  0  0  0  0
   -4.2396   -2.6781    1.4144 C   0  0  0  0  0  0  0  0  0  0  0  0
   -4.9506   -2.0521    1.9514 H   0  0  0  0  0  0  0  0  0  0  0  0
   -4.5266   -2.7521    0.3674 H   0  0  0  0  0  0  0  0  0  0  0  0
   -2.8576   -2.0761    1.5184 C   0  0  0  0  0  0  0  0  0  0  0  0
   -1.9456   -2.7051    2.0404 O   0  0  0  0  0  0  0  0  0  0  0  0
   -2.6926   -0.8481    1.0174 N   0  0  0  0  0  0  0  0  0  0  0  0
   -3.4926   -0.3971    0.5954 H   0  0  0  0  0  0  0  0  0  0  0  0
   -1.4216   -0.1071    1.0434 C   0  0  1  0  0  0  0  0  0  0  0  0
   -1.5747    0.8557    0.5533 H   0  0  0  0  0  0  0  0  0  0  0  0
   -1.0317    0.1413    2.5143 C   0  0  0  0  0  0  0  0  0  0  0  0
   -1.0334   -0.8149    3.0415 H   0  0  0  0  0  0  0  0  0  0  0  0
   -0.0183    0.5470    2.5513 H   0  0  0  0  0  0  0  0  0  0  0  0
   -1.9846    1.0975    3.2463 C   0  0  0  0  0  0  0  0  0  0  0  0
   -1.9923    2.0663    2.7448 H   0  0  0  0  0  0  0  0  0  0  0  0
   -2.9918    0.6795    3.2379 H   0  0  0  0  0  0  0  0  0  0  0  0
   -1.5224    1.2864    4.6975 C   0  0  0  0  0  0  0  0  0  0  0  0
   -1.4922    0.3087    5.1839 H   0  0  0  0  0  0  0  0  0  0  0  0
   -0.5143    1.7074    4.6893 H   0  0  0  0  0  0  0  0  0  0  0  0
   -2.4257    2.1825    5.4485 N   0  3  0  0  0  0  0  0  0  0  0  0
   -3.1864    2.5919    4.9336 H   0  0  0  0  0  0  0  0  0  0  0  0
   -2.3284    2.4955    6.7297 C   0  0  0  0  0  0  0  0  0  0  0  0
   -1.3809    2.0213    7.4891 N   0  0  0  0  0  0  0  0  0  0  0  0
   -0.7048    1.3969    7.0860 H   0  0  0  0  0  0  0  0  0  0  0  0
   -1.3212    2.2693    8.4595 H   0  0  0  0  0  0  0  0  0  0  0  0
   -3.1914    3.3020    7.2793 N   0  0  0  0  0  0  0  0  0  0  0  0
   -3.9402    3.6930    6.7340 H   0  0  0  0  0  0  0  0  0  0  0  0
   -3.1139    3.5368    8.2516 H   0  0  0  0  0  0  0  0  0  0  0  0
   -0.3367   -0.8777    0.2882 C   0  0  0  0  0  0  0  0  0  0  0  0
   -0.6515   -1.8215   -0.4268 O   0  0  0  0  0  0  0  0  0  0  0  0
    0.9294   -0.4950    0.4812 N   0  0  0  0  0  0  0  0  0  0  0  0
    1.0944    0.3147    1.0565 H   0  0  0  0  0  0  0  0  0  0  0  0
    2.0825   -1.1239   -0.1650 C   0  0  0  0  0  0  0  0  0  0  0  0
    2.0245   -0.9791   -1.2459 H   0  0  0  0  0  0  0  0  0  0  0  0
    3.0107   -0.6851    0.2032 H   0  0  0  0  0  0  0  0  0  0  0  0
    2.0860   -2.1968    0.0393 H   0  0  0  0  0  0  0  0  0  0  0  0
  5  6  2  0  0  0  0
  5  7  1  0  0  0  0
  2  3  1  0  0  0  0
  2  4  1  0  0  0  0
  2  5  1  0  0  0  0
  1  2  1  0  0  0  0
 29 30  2  0  0  0  0
 29 31  1  0  0  0  0
 26 27  1  0  0  0  0
 26 28  1  0  0  0  0
 23 24  1  0  0  0  0
 23 25  1  0  0  0  0
 22 23  1  0  0  0  0
 22 26  1  0  0  0  0
 20 21  1  0  0  0  0
 20 22  2  0  0  0  0
 17 18  1  0  0  0  0
 17 19  1  0  0  0  0
 17 20  1  0  0  0  0
 14 15  1  0  0  0  0
 14 16  1  0  0  0  0
 14 17  1  0  0  0  0
 11 12  1  0  0  0  0
 11 13  1  0  0  0  0
 11 14  1  0  0  0  0
  9 10  1  0  0  0  0
  9 11  1  0  0  0  0
  9 29  1  0  0  0  0
  7  8  1  0  0  0  0
  7  9  1  0  0  0  0
 33 34  1  0  0  0  0
 33 35  1  0  0  0  0
 33 36  1  0  0  0  0
 31 32  1  0  0  0  0
 31 33  1  0  0  0  0
M  CHG  1  20   1
M  END
$$$$
default_name
  -OEChem-01062215323D

 36 35  0     1  0  0  0  0  0999 V2000
   -4.2256   -3.6731    1.8584 H   0  0  0  0  0  0  0  0  0  0  0  0
   -4.2396   -2.6781    1.4144 C   0  0  0  0  0  0  0  0  0  0  0  0
   -4.9506   -2.0521    1.9514 H   0  0  0  0  0  0  0  0  0  0  0  0
   -4.5266   -2.7521    0.3674 H   0  0  0  0  0  0  0  0  0  0  0  0
   -2.8576   -2.0761    1.5184 C   0  0  0  0  0  0  0  0  0  0  0  0
   -1.9456   -2.7051    2.0404 O   0  0  0  0  0  0  0  0  0  0  0  0
   -2.6926   -0.8481    1.0174 N   0  0  0  0  0  0  0  0  0  0  0  0
   -3.4926   -0.3971    0.5954 H   0  0  0  0  0  0  0  0  0  0  0  0
   -1.4216   -0.1071    1.0434 C   0  0  1  0  0  0  0  0  0  0  0  0
   -1.5747    0.8557    0.5533 H   0  0  0  0  0  0  0  0  0  0  0  0
   -1.0317    0.1413    2.5143 C   0  0  0  0  0  0  0  0  0  0  0  0
   -1.0334   -0.8149    3.0415 H   0  0  0  0  0  0  0  0  0  0  0  0
   -0.0183    0.5470    2.5513 H   0  0  0  0  0  0  0  0  0  0  0  0
   -1.9846    1.0975    3.2463 C   0  0  0  0  0  0  0  0  0  0  0  0
   -1.9923    2.0663    2.7448 H   0  0  0  0  0  0  0  0  0  0  0  0
   -2.9918    0.6795    3.2379 H   0  0  0  0  0  0  0  0  0  0  0  0
   -1.5224    1.2864    4.6975 C   0  0  0  0  0  0  0  0  0  0  0  0
   -1.4922    0.3087    5.1839 H   0  0  0  0  0  0  0  0  0  0  0  0
   -0.5143    1.7074    4.6893 H   0  0  0  0  0  0  0  0  0  0  0  0
   -2.4257    2.1825    5.4485 N   0  3  0  0  0  0  0  0  0  0  0  0
   -3.1864    2.5919    4.9336 H   0  0  0  0  0  0  0  0  0  0  0  0
   -2.3284    2.4955    6.7297 C   0  0  0  0  0  0  0  0  0  0  0  0
   -1.3809    2.0213    7.4891 N   0  0  0  0  0  0  0  0  0  0  0  0
   -0.7048    1.3969    7.0860 H   0  0  0  0  0  0  0  0  0  0  0  0
   -1.3212    2.2693    8.4595 H   0  0  0  0  0  0  0  0  0  0  0  0
   -3.1914    3.3020    7.2793 N   0  0  0  0  0  0  0  0  0  0  0  0
   -3.9402    3.6930    6.7340 H   0  0  0  0  0  0  0  0  0  0  0  0
   -3.1139    3.5368    8.2516 H   0  0  0  0  0  0  0  0  0  0  0  0
   -0.3367   -0.8777    0.2882 C   0  0  0  0  0  0  0  0  0  0  0  0
   -0.6535   -1.6283   -0.6269 O   0  0  0  0  0  0  0  0  0  0  0  0
    0.9247   -0.7157    0.6996 N   0  0  0  0  0  0  0  0  0  0  0  0
    1.0986   -0.0503    1.4351 H   0  0  0  0  0  0  0  0  0  0  0  0
    2.0775   -1.3769    0.0859 C   0  0  0  0  0  0  0  0  0  0  0  0
    2.1911   -1.0384   -0.9462 H   0  0  0  0  0  0  0  0  0  0  0  0
    2.9883   -1.1435    0.6388 H   0  0  0  0  0  0  0  0  0  0  0  0
    1.9279   -2.4587    0.0793 H   0  0  0  0  0  0  0  0  0  0  0  0
  5  6  2  0  0  0  0
  5  7  1  0  0  0  0
  2  3  1  0  0  0  0
  2  4  1  0  0  0  0
  2  5  1  0  0  0  0
  1  2  1  0  0  0  0
 29 30  2  0  0  0  0
 29 31  1  0  0  0  0
 26 27  1  0  0  0  0
 26 28  1  0  0  0  0
 23 24  1  0  0  0  0
 23 25  1  0  0  0  0
 22 23  1  0  0  0  0
 22 26  1  0  0  0  0
 20 21  1  0  0  0  0
 20 22  2  0  0  0  0
 17 18  1  0  0  0  0
 17 19  1  0  0  0  0
 17 20  1  0  0  0  0
 14 15  1  0  0  0  0
 14 16  1  0  0  0  0
 14 17  1  0  0  0  0
 11 12  1  0  0  0  0
 11 13  1  0  0  0  0
 11 14  1  0  0  0  0
  9 10  1  0  0  0  0
  9 11  1  0  0  0  0
  9 29  1  0  0  0  0
  7  8  1  0  0  0  0
  7  9  1  0  0  0  0
 33 34  1  0  0  0  0
 33 35  1  0  0  0  0
 33 36  1  0  0  0  0
 31 32  1  0  0  0  0
 31 33  1  0  0  0  0
M  CHG  1  20   1
M  END
$$$$
default_name
  -OEChem-01062215323D

 36 35  0     1  0  0  0  0  0999 V2000
   -4.2256   -3.6731    1.8584 H   0  0  0  0  0  0  0  0  0  0  0  0
   -4.2396   -2.6781    1.4144 C   0  0  0  0  0  0  0  0  0  0  0  0
   -4.9506   -2.0521    1.9514 H   0  0  0  0  0  0  0  0  0  0  0  0
   -4.5266   -2.7521    0.3674 H   0  0  0  0  0  0  0  0  0  0  0  0
   -2.8576   -2.0761    1.5184 C   0  0  0  0  0  0  0  0  0  0  0  0
   -1.9456   -2.7051    2.0404 O   0  0  0  0  0  0  0  0  0  0  0  0
   -2.6926   -0.8481    1.0174 N   0  0  0  0  0  0  0  0  0  0  0  0
   -3.4926   -0.3971    0.5954 H   0  0  0  0  0  0  0  0  0  0  0  0
   -1.4216   -0.1071    1.0434 C   0  0  1  0  0  0  0  0  0  0  0  0
   -1.5747    0.8557    0.5533 H   0  0  0  0  0  0  0  0  0  0  0  0
   -1.0317    0.1413    2.5143 C   0  0  0  0  0  0  0  0  0  0  0  0
   -1.0334   -0.8149    3.0415 H   0  0  0  0  0  0  0  0  0  0  0  0
   -0.0183    0.5470    2.5513 H   0  0  0  0  0  0  0  0  0  0  0  0
   -1.9846    1.0975    3.2463 C   0  0  0  0  0  0  0  0  0  0  0  0
   -1.9923    2.0663    2.7448 H   0  0  0  0  0  0  0  0  0  0  0  0
   -2.9918    0.6795    3.2379 H   0  0  0  0  0  0  0  0  0  0  0  0
   -1.5224    1.2864    4.6975 C   0  0  0  0  0  0  0  0  0  0  0  0
   -1.4922    0.3087    5.1839 H   0  0  0  0  0  0  0  0  0  0  0  0
   -0.5143    1.7074    4.6893 H   0  0  0  0  0  0  0  0  0  0  0  0
   -2.4257    2.1825    5.4485 N   0  3  0  0  0  0  0  0  0  0  0  0
   -3.1864    2.5919    4.9336 H   0  0  0  0  0  0  0  0  0  0  0  0
   -2.3284    2.4955    6.7297 C   0  0  0  0  0  0  0  0  0  0  0  0
   -1.3809    2.0213    7.4891 N   0  0  0  0  0  0  0  0  0  0  0  0
   -0.7048    1.3969    7.0860 H   0  0  0  0  0  0  0  0  0  0  0  0
   -1.3212    2.2693    8.4595 H   0  0  0  0  0  0  0  0  0  0  0  0
   -3.1914    3.3020    7.2793 N   0  0  0  0  0  0  0  0  0  0  0  0
   -3.9402    3.6930    6.7340 H   0  0  0  0  0  0  0  0  0  0  0  0
   -3.1139    3.5368    8.2516 H   0  0  0  0  0  0  0  0  0  0  0  0
   -0.3367   -0.8777    0.2882 C   0  0  0  0  0  0  0  0  0  0  0  0
   -0.6047   -1.4047   -0.7849 O   0  0  0  0  0  0  0  0  0  0  0  0
    0.8635   -0.9683    0.8695 N   0  0  0  0  0  0  0  0  0  0  0  0
    1.0068   -0.4730    1.7344 H   0  0  0  0  0  0  0  0  0  0  0  0
    2.0077   -1.6666    0.2811 C   0  0  0  0  0  0  0  0  0  0  0  0
    2.3053   -1.1719   -0.6460 H   0  0  0  0  0  0  0  0  0  0  0  0
    2.8514   -1.6634    0.9725 H   0  0  0  0  0  0  0  0  0  0  0  0
    1.7365   -2.6988    0.0494 H   0  0  0  0  0  0  0  0  0  0  0  0
  5  6  2  0  0  0  0
  5  7  1  0  0  0  0
  2  3  1  0  0  0  0
  2  4  1  0  0  0  0
  2  5  1  0  0  0  0
  1  2  1  0  0  0  0
 29 30  2  0  0  0  0
 29 31  1  0  0  0  0
 26 27  1  0  0  0  0
 26 28  1  0  0  0  0
 23 24  1  0  0  0  0
 23 25  1  0  0  0  0
 22 23  1  0  0  0  0
 22 26  1  0  0  0  0
 20 21  1  0  0  0  0
 20 22  2  0  0  0  0
 17 18  1  0  0  0  0
 17 19  1  0  0  0  0
 17 20  1  0  0  0  0
 14 15  1  0  0  0  0
 14 16  1  0  0  0  0
 14 17  1  0  0  0  0
 11 12  1  0  0  0  0
 11 13  1  0  0  0  0
 11 14  1  0  0  0  0
  9 10  1  0  0  0  0
  9 11  1  0  0  0  0
  9 29  1  0  0  0  0
  7  8  1  0  0  0  0
  7  9  1  0  0  0  0
 33 34  1  0  0  0  0
 33 35  1  0  0  0  0
 33 36  1  0  0  0  0
 31 32  1  0  0  0  0
 31 33  1  0  0  0  0
M  CHG  1  20   1
M  END
$$$$
default_name
  -OEChem-01062215323D

 36 35  0     1  0  0  0  0  0999 V2000
   -4.2256   -3.6731    1.8584 H   0  0  0  0  0  0  0  0  0  0  0  0
   -4.2396   -2.6781    1.4144 C   0  0  0  0  0  0  0  0  0  0  0  0
   -4.9506   -2.0521    1.9514 H   0  0  0  0  0  0  0  0  0  0  0  0
   -4.5266   -2.7521    0.3674 H   0  0  0  0  0  0  0  0  0  0  0  0
   -2.8576   -2.0761    1.5184 C   0  0  0  0  0  0  0  0  0  0  0  0
   -1.9456   -2.7051    2.0404 O   0  0  0  0  0  0  0  0  0  0  0  0
   -2.6926   -0.8481    1.0174 N   0  0  0  0  0  0  0  0  0  0  0  0
   -3.4926   -0.3971    0.5954 H   0  0  0  0  0  0  0  0  0  0  0  0
   -1.4216   -0.1071    1.0434 C   0  0  1  0  0  0  0  0  0  0  0  0
   -1.5747    0.8557    0.5533 H   0  0  0  0  0  0  0  0  0  0  0  0
   -1.0317    0.1413    2.5143 C   0  0  0  0  0  0  0  0  0  0  0  0
   -1.0334   -0.8149    3.0415 H   0  0  0  0  0  0  0  0  0  0  0  0
   -0.0183    0.5470    2.5513 H   0  0  0  0  0  0  0  0  0  0  0  0
   -1.9846    1.0975    3.2463 C   0  0  0  0  0  0  0  0  0  0  0  0
   -1.9923    2.0663    2.7448 H   0  0  0  0  0  0  0  0  0  0  0  0
   -2.9918    0.6795    3.2379 H   0  0  0  0  0  0  0  0  0  0  0  0
   -1.5224    1.2864    4.6975 C   0  0  0  0  0  0  0  0  0  0  0  0
   -1.4922    0.3087    5.1839 H   0  0  0  0  0  0  0  0  0  0  0  0
   -0.5143    1.7074    4.6893 H   0  0  0  0  0  0  0  0  0  0  0  0
   -2.4257    2.1825    5.4485 N   0  3  0  0  0  0  0  0  0  0  0  0
   -3.1864    2.5919    4.9336 H   0  0  0  0  0  0  0  0  0  0  0  0
   -2.3284    2.4955    6.7297 C   0  0  0  0  0  0  0  0  0  0  0  0
   -1.3809    2.0213    7.4891 N   0  0  0  0  0  0  0  0  0  0  0  0
   -0.7048    1.3969    7.0860 H   0  0  0  0  0  0  0  0  0  0  0  0
   -1.3212    2.2693    8.4595 H   0  0  0  0  0  0  0  0  0  0  0  0
   -3.1914    3.3020    7.2793 N   0  0  0  0  0  0  0  0  0  0  0  0
   -3.9402    3.6930    6.7340 H   0  0  0  0  0  0  0  0  0  0  0  0
   -3.1139    3.5368    8.2516 H   0  0  0  0  0  0  0  0  0  0  0  0
   -0.3367   -0.8777    0.2882 C   0  0  0  0  0  0  0  0  0  0  0  0
   -0.5084   -1.1660   -0.8902 O   0  0  0  0  0  0  0  0  0  0  0  0
    0.7500   -1.2357    0.9792 N   0  0  0  0  0  0  0  0  0  0  0  0
    0.8250   -0.9244    1.9339 H   0  0  0  0  0  0  0  0  0  0  0  0
    1.8778   -1.9733    0.4075 C   0  0  0  0  0  0  0  0  0  0  0  0
    2.3594   -1.3706   -0.3655 H   0  0  0  0  0  0  0  0  0  0  0  0
    2.6092   -2.2092    1.1815 H   0  0  0  0  0  0  0  0  0  0  0  0
    1.5248   -2.9008   -0.0486 H   0  0  0  0  0  0  0  0  0  0  0  0
  5  6  2  0  0  0  0
  5  7  1  0  0  0  0
  2  3  1  0  0  0  0
  2  4  1  0  0  0  0
  2  5  1  0  0  0  0
  1  2  1  0  0  0  0
 29 30  2  0  0  0  0
 29 31  1  0  0  0  0
 26 27  1  0  0  0  0
 26 28  1  0  0  0  0
 23 24  1  0  0  0  0
 23 25  1  0  0  0  0
 22 23  1  0  0  0  0
 22 26  1  0  0  0  0
 20 21  1  0  0  0  0
 20 22  2  0  0  0  0
 17 18  1  0  0  0  0
 17 19  1  0  0  0  0
 17 20  1  0  0  0  0
 14 15  1  0  0  0  0
 14 16  1  0  0  0  0
 14 17  1  0  0  0  0
 11 12  1  0  0  0  0
 11 13  1  0  0  0  0
 11 14  1  0  0  0  0
  9 10  1  0  0  0  0
  9 11  1  0  0  0  0
  9 29  1  0  0  0  0
  7  8  1  0  0  0  0
  7  9  1  0  0  0  0
 33 34  1  0  0  0  0
 33 35  1  0  0  0  0
 33 36  1  0  0  0  0
 31 32  1  0  0  0  0
 31 33  1  0  0  0  0
M  CHG  1  20   1
M  END
$$$$
default_name
  -OEChem-01062215323D

 36 35  0     1  0  0  0  0  0999 V2000
   -4.2256   -3.6731    1.8584 H   0  0  0  0  0  0  0  0  0  0  0  0
   -4.2396   -2.6781    1.4144 C   0  0  0  0  0  0  0  0  0  0  0  0
   -4.9506   -2.0521    1.9514 H   0  0  0  0  0  0  0  0  0  0  0  0
   -4.5266   -2.7521    0.3674 H   0  0  0  0  0  0  0  0  0  0  0  0
   -2.8576   -2.0761    1.5184 C   0  0  0  0  0  0  0  0  0  0  0  0
   -1.9456   -2.7051    2.0404 O   0  0  0  0  0  0  0  0  0  0  0  0
   -2.6926   -0.8481    1.0174 N   0  0  0  0  0  0  0  0  0  0  0  0
   -3.4926   -0.3971    0.5954 H   0  0  0  0  0  0  0  0  0  0  0  0
   -1.4216   -0.1071    1.0434 C   0  0  1  0  0  0  0  0  0  0  0  0
   -1.5747    0.8557    0.5533 H   0  0  0  0  0  0  0  0  0  0  0  0
   -1.0317    0.1413    2.5143 C   0  0  0  0  0  0  0  0  0  0  0  0
   -1.0334   -0.8149    3.0415 H   0  0  0  0  0  0  0  0  0  0  0  0
   -0.0183    0.5470    2.5513 H   0  0  0  0  0  0  0  0  0  0  0  0
   -1.9846    1.0975    3.2463 C   0  0  0  0  0  0  0  0  0  0  0  0
   -1.9923    2.0663    2.7448 H   0  0  0  0  0  0  0  0  0  0  0  0
   -2.9918    0.6795    3.2379 H   0  0  0  0  0  0  0  0  0  0  0  0
   -1.5224    1.2864    4.6975 C   0  0  0  0  0  0  0  0  0  0  0  0
   -1.4922    0.3087    5.1839 H   0  0  0  0  0  0  0  0  0  0  0  0
   -0.5143    1.7074    4.6893 H   0  0  0  0  0  0  0  0  0  0  0  0
   -2.4257    2.1825    5.4485 N   0  3  0  0  0  0  0  0  0  0  0  0
   -3.1864    2.5919    4.9336 H   0  0  0  0  0  0  0  0  0  0  0  0
   -2.3284    2.4955    6.7297 C   0  0  0  0  0  0  0  0  0  0  0  0
   -1.3809    2.0213    7.4891 N   0  0  0  0  0  0  0  0  0  0  0  0
   -0.7048    1.3969    7.0860 H   0  0  0  0  0  0  0  0  0  0  0  0
   -1.3212    2.2693    8.4595 H   0  0  0  0  0  0  0  0  0  0  0  0
   -3.1914    3.3020    7.2793 N   0  0  0  0  0  0  0  0  0  0  0  0
   -3.9402    3.6930    6.7340 H   0  0  0  0  0  0  0  0  0  0  0  0
   -3.1139    3.5368    8.2516 H   0  0  0  0  0  0  0  0  0  0  0  0
   -0.3367   -0.8777    0.2882 C   0  0  0  0  0  0  0  0  0  0  0  0
   -0.3712   -0.9284   -0.9355 O   0  0  0  0  0  0  0  0  0  0  0  0
    0.5919   -1.4997    1.0214 N   0  0  0  0  0  0  0  0  0  0  0  0
    0.5658   -1.3738    2.0201 H   0  0  0  0  0  0  0  0  0  0  0  0
    1.6967   -2.2762    0.4563 C   0  0  0  0  0  0  0  0  0  0  0  0
    2.3497   -1.6209   -0.1240 H   0  0  0  0  0  0  0  0  0  0  0  0
    2.2783   -2.7440    1.2517 H   0  0  0  0  0  0  0  0  0  0  0  0
    1.3074   -3.0509   -0.2079 H   0  0  0  0  0  0  0  0  0  0  0  0
  5  6  2  0  0  0  0
  5  7  1  0  0  0  0
  2  3  1  0  0  0  0
  2  4  1  0  0  0  0
  2  5  1  0  0  0  0
  1  2  1  0  0  0  0
 29 30  2  0  0  0  0
 29 31  1  0  0  0  0
 26 27  1  0  0  0  0
 26 28  1  0  0  0  0
 23 24  1  0  0  0  0
 23 25  1  0  0  0  0
 22 23  1  0  0  0  0
 22 26  1  0  0  0  0
 20 21  1  0  0  0  0
 20 22  2  0  0  0  0
 17 18  1  0  0  0  0
 17 19  1  0  0  0  0
 17 20  1  0  0  0  0
 14 15  1  0  0  0  0
 14 16  1  0  0  0  0
 14 17  1  0  0  0  0
 11 12  1  0  0  0  0
 11 13  1  0  0  0  0
 11 14  1  0  0  0  0
  9 10  1  0  0  0  0
  9 11  1  0  0  0  0
  9 29  1  0  0  0  0
  7  8  1  0  0  0  0
  7  9  1  0  0  0  0
 33 34  1  0  0  0  0
 33 35  1  0  0  0  0
 33 36  1  0  0  0  0
 31 32  1  0  0  0  0
 31 33  1  0  0  0  0
M  CHG  1  20   1
M  END
$$$$
default_name
  -OEChem-01062215323D

 36 35  0     1  0  0  0  0  0999 V2000
   -4.2256   -3.6731    1.8584 H   0  0  0  0  0  0  0  0  0  0  0  0
   -4.2396   -2.6781    1.4144 C   0  0  0  0  0  0  0  0  0  0  0  0
   -4.9506   -2.0521    1.9514 H   0  0  0  0  0  0  0  0  0  0  0  0
   -4.5266   -2.7521    0.3674 H   0  0  0  0  0  0  0  0  0  0  0  0
   -2.8576   -2.0761    1.5184 C   0  0  0  0  0  0  0  0  0  0  0  0
   -1.9456   -2.7051    2.0404 O   0  0  0  0  0  0  0  0  0  0  0  0
   -2.6926   -0.8481    1.0174 N   0  0  0  0  0  0  0  0  0  0  0  0
   -3.4926   -0.3971    0.5954 H   0  0  0  0  0  0  0  0  0  0  0  0
   -1.4216   -0.1071    1.0434 C   0  0  1  0  0  0  0  0  0  0  0  0
   -1.5747    0.8557    0.5533 H   0  0  0  0  0  0  0  0  0  0  0  0
   -1.0317    0.1413    2.5143 C   0  0  0  0  0  0  0  0  0  0  0  0
   -1.0334   -0.8149    3.0415 H   0  0  0  0  0  0  0  0  0  0  0  0
   -0.0183    0.5470    2.5513 H   0  0  0  0  0  0  0  0  0  0  0  0
   -1.9846    1.0975    3.2463 C   0  0  0  0  0  0  0  0  0  0  0  0
   -1.9923    2.0663    2.7448 H   0  0  0  0  0  0  0  0  0  0  0  0
   -2.9918    0.6795    3.2379 H   0  0  0  0  0  0  0  0  0  0  0  0
   -1.5224    1.2864    4.6975 C   0  0  0  0  0  0  0  0  0  0  0  0
   -1.4922    0.3087    5.1839 H   0  0  0  0  0  0  0  0  0  0  0  0
   -0.5143    1.7074    4.6893 H   0  0  0  0  0  0  0  0  0  0  0  0
   -2.4257    2.1825    5.4485 N   0  3  0  0  0  0  0  0  0  0  0  0
   -3.1864    2.5919    4.9336 H   0  0  0  0  0  0  0  0  0  0  0  0
   -2.3284    2.4955    6.7297 C   0  0  0  0  0  0  0  0  0  0  0  0
   -1.3809    2.0213    7.4891 N   0  0  0  0  0  0  0  0  0  0  0  0
   -0.7048    1.3969    7.0860 H   0  0  0  0  0  0  0  0  0  0  0  0
   -1.3212    2.2693    8.4595 H   0  0  0  0  0  0  0  0  0  0  0  0
   -3.1914    3.3020    7.2793 N   0  0  0  0  0  0  0  0  0  0  0  0
   -3.9402    3.6930    6.7340 H   0  0  0  0  0  0  0  0  0  0  0  0
   -3.1139    3.5368    8.2516 H   0  0  0  0  0  0  0  0  0  0  0  0
   -0.3367   -0.8777    0.2882 C   0  0  0  0  0  0  0  0  0  0  0  0
   -0.2024   -0.7081   -0.9178 O   0  0  0  0  0  0  0  0  0  0  0  0
    0.4000   -1.7421    0.9931 N   0  0  0  0  0  0  0  0  0  0  0  0
    0.2468   -1.7906    1.9871 H   0  0  0  0  0  0  0  0  0  0  0  0
    1.4766   -2.5546    0.4243 C   0  0  0  0  0  0  0  0  0  0  0  0
    2.2769   -1.9058    0.0620 H   0  0  0  0  0  0  0  0  0  0  0  0
    1.8812   -3.2311    1.1783 H   0  0  0  0  0  0  0  0  0  0  0  0
    1.0989   -3.1388   -0.4176 H   0  0  0  0  0  0  0  0  0  0  0  0
  5  6  2  0  0  0  0
  5  7  1  0  0  0  0
  2  3  1  0  0  0  0
  2  4  1  0  0  0  0
  2  5  1  0  0  0  0
  1  2  1  0  0  0  0
 29 30  2  0  0  0  0
 29 31  1  0  0  0  0
 26 27  1  0  0  0  0
 26 28  1  0  0  0  0
 23 24  1  0  0  0  0
 23 25  1  0  0  0  0
 22 23  1  0  0  0  0
 22 26  1  0  0  0  0
 20 21  1  0  0  0  0
 20 22  2  0  0  0  0
 17 18  1  0  0  0  0
 17 19  1  0  0  0  0
 17 20  1  0  0  0  0
 14 15  1  0  0  0  0
 14 16  1  0  0  0  0
 14 17  1  0  0  0  0
 11 12  1  0  0  0  0
 11 13  1  0  0  0  0
 11 14  1  0  0  0  0
  9 10  1  0  0  0  0
  9 11  1  0  0  0  0
  9 29  1  0  0  0  0
  7  8  1  0  0  0  0
  7  9  1  0  0  0  0
 33 34  1  0  0  0  0
 33 35  1  0  0  0  0
 33 36  1  0  0  0  0
 31 32  1  0  0  0  0
 31 33  1  0  0  0  0
M  CHG  1  20   1
M  END
$$$$
default_name
  -OEChem-01062215323D

 36 35  0     1  0  0  0  0  0999 V2000
   -4.2256   -3.6731    1.8584 H   0  0  0  0  0  0  0  0  0  0  0  0
   -4.2396   -2.6781    1.4144 C   0  0  0  0  0  0  0  0  0  0  0  0
   -4.9506   -2.0521    1.9514 H   0  0  0  0  0  0  0  0  0  0  0  0
   -4.5266   -2.7521    0.3674 H   0  0  0  0  0  0  0  0  0  0  0  0
   -2.8576   -2.0761    1.5184 C   0  0  0  0  0  0  0  0  0  0  0  0
   -1.9456   -2.7051    2.0404 O   0  0  0  0  0  0  0  0  0  0  0  0
   -2.6926   -0.8481    1.0174 N   0  0  0  0  0  0  0  0  0  0  0  0
   -3.4926   -0.3971    0.5954 H   0  0  0  0  0  0  0  0  0  0  0  0
   -1.4216   -0.1071    1.0434 C   0  0  1  0  0  0  0  0  0  0  0  0
   -1.5747    0.8557    0.5533 H   0  0  0  0  0  0  0  0  0  0  0  0
   -1.0317    0.1413    2.5143 C   0  0  0  0  0  0  0  0  0  0  0  0
   -1.0334   -0.8149    3.0415 H   0  0  0  0  0  0  0  0  0  0  0  0
   -0.0183    0.5470    2.5513 H   0  0  0  0  0  0  0  0  0  0  0  0
   -1.9846    1.0975    3.2463 C   0  0  0  0  0  0  0  0  0  0  0  0
   -1.9923    2.0663    2.7448 H   0  0  0  0  0  0  0  0  0  0  0  0
   -2.9918    0.6795    3.2379 H   0  0  0  0  0  0  0  0  0  0  0  0
   -1.5224    1.2864    4.6975 C   0  0  0  0  0  0  0  0  0  0  0  0
   -1.4922    0.3087    5.1839 H   0  0  0  0  0  0  0  0  0  0  0  0
   -0.5143    1.7074    4.6893 H   0  0  0  0  0  0  0  0  0  0  0  0
   -2.4257    2.1825    5.4485 N   0  3  0  0  0  0  0  0  0  0  0  0
   -3.1864    2.5919    4.9336 H   0  0  0  0  0  0  0  0  0  0  0  0
   -2.3284    2.4955    6.7297 C   0  0  0  0  0  0  0  0  0  0  0  0
   -1.3809    2.0213    7.4891 N   0  0  0  0  0  0  0  0  0  0  0  0
   -0.7048    1.3969    7.0860 H   0  0  0  0  0  0  0  0  0  0  0  0
   -1.3212    2.2693    8.4595 H   0  0  0  0  0  0  0  0  0  0  0  0
   -3.1914    3.3020    7.2793 N   0  0  0  0  0  0  0  0  0  0  0  0
   -3.9402    3.6930    6.7340 H   0  0  0  0  0  0  0  0  0  0  0  0
   -3.1139    3.5368    8.2516 H   0  0  0  0  0  0  0  0  0  0  0  0
   -0.3367   -0.8777    0.2882 C   0  0  0  0  0  0  0  0  0  0  0  0
   -0.0135   -0.5201   -0.8382 O   0  0  0  0  0  0  0  0  0  0  0  0
    0.1873   -1.9466    0.8962 N   0  0  0  0  0  0  0  0  0  0  0  0
   -0.1103   -2.1464    1.8371 H   0  0  0  0  0  0  0  0  0  0  0  0
    1.2327   -2.7895    0.3136 C   0  0  0  0  0  0  0  0  0  0  0  0
    2.1460   -2.2057    0.1800 H   0  0  0  0  0  0  0  0  0  0  0  0
    1.4449   -3.6373    0.9662 H   0  0  0  0  0  0  0  0  0  0  0  0
    0.9136   -3.1587   -0.6635 H   0  0  0  0  0  0  0  0  0  0  0  0
  5  6  2  0  0  0  0
  5  7  1  0  0  0  0
  2  3  1  0  0  0  0
  2  4  1  0  0  0  0
  2  5  1  0  0  0  0
  1  2  1  0  0  0  0
 29 30  2  0  0  0  0
 29 31  1  0  0  0  0
 26 27  1  0  0  0  0
 26 28  1  0  0  0  0
 23 24  1  0  0  0  0
 23 25  1  0  0  0  0
 22 23  1  0  0  0  0
 22 26  1  0  0  0  0
 20 21  1  0  0  0  0
 20 22  2  0  0  0  0
 17 18  1  0  0  0  0
 17 19  1  0  0  0  0
 17 20  1  0  0  0  0
 14 15  1  0  0  0  0
 14 16  1  0  0  0  0
 14 17  1  0  0  0  0
 11 12  1  0  0  0  0
 11 13  1  0  0  0  0
 11 14  1  0  0  0  0
  9 10  1  0  0  0  0
  9 11  1  0  0  0  0
  9 29  1  0  0  0  0
  7  8  1  0  0  0  0
  7  9  1  0  0  0  0
 33 34  1  0  0  0  0
 33 35  1  0  0  0  0
 33 36  1  0  0  0  0
 31 32  1  0  0  0  0
 31 33  1  0  0  0  0
M  CHG  1  20   1
M  END
$$$$
default_name
  -OEChem-01062215323D

 36 35  0     1  0  0  0  0  0999 V2000
   -4.2256   -3.6731    1.8584 H   0  0  0  0  0  0  0  0  0  0  0  0
   -4.2396   -2.6781    1.4144 C   0  0  0  0  0  0  0  0  0  0  0  0
   -4.9506   -2.0521    1.9514 H   0  0  0  0  0  0  0  0  0  0  0  0
   -4.5266   -2.7521    0.3674 H   0  0  0  0  0  0  0  0  0  0  0  0
   -2.8576   -2.0761    1.5184 C   0  0  0  0  0  0  0  0  0  0  0  0
   -1.9456   -2.7051    2.0404 O   0  0  0  0  0  0  0  0  0  0  0  0
   -2.6926   -0.8481    1.0174 N   0  0  0  0  0  0  0  0  0  0  0  0
   -3.4926   -0.3971    0.5954 H   0  0  0  0  0  0  0  0  0  0  0  0
   -1.4216   -0.1071    1.0434 C   0  0  1  0  0  0  0  0  0  0  0  0
   -1.5747    0.8557    0.5533 H   0  0  0  0  0  0  0  0  0  0  0  0
   -1.0317    0.1413    2.5143 C   0  0  0  0  0  0  0  0  0  0  0  0
   -1.0334   -0.8149    3.0415 H   0  0  0  0  0  0  0  0  0  0  0  0
   -0.0183    0.5470    2.5513 H   0  0  0  0  0  0  0  0  0  0  0  0
   -1.9846    1.0975    3.2463 C   0  0  0  0  0  0  0  0  0  0  0  0
   -1.9923    2.0663    2.7448 H   0  0  0  0  0  0  0  0  0  0  0  0
   -2.9918    0.6795    3.2379 H   0  0  0  0  0  0  0  0  0  0  0  0
   -1.5224    1.2864    4.6975 C   0  0  0  0  0  0  0  0  0  0  0  0
   -1.4922    0.3087    5.1839 H   0  0  0  0  0  0  0  0  0  0  0  0
   -0.5143    1.7074    4.6893 H   0  0  0  0  0  0  0  0  0  0  0  0
   -2.4257    2.1825    5.4485 N   0  3  0  0  0  0  0  0  0  0  0  0
   -3.1864    2.5919    4.9336 H   0  0  0  0  0  0  0  0  0  0  0  0
   -2.3284    2.4955    6.7297 C   0  0  0  0  0  0  0  0  0  0  0  0
   -1.3809    2.0213    7.4891 N   0  0  0  0  0  0  0  0  0  0  0  0
   -0.7048    1.3969    7.0860 H   0  0  0  0  0  0  0  0  0  0  0  0
   -1.3212    2.2693    8.4595 H   0  0  0  0  0  0  0  0  0  0  0  0
   -3.1914    3.3020    7.2793 N   0  0  0  0  0  0  0  0  0  0  0  0
   -3.9402    3.6930    6.7340 H   0  0  0  0  0  0  0  0  0  0  0  0
   -3.1139    3.5368    8.2516 H   0  0  0  0  0  0  0  0  0  0  0  0
   -0.3367   -0.8777    0.2882 C   0  0  0  0  0  0  0  0  0  0  0  0
    0.1826   -0.3772   -0.7022 O   0  0  0  0  0  0  0  0  0  0  0  0
   -0.0316   -2.0991    0.7373 N   0  0  0  0  0  0  0  0  0  0  0  0
   -0.4812   -2.4170    1.5804 H   0  0  0  0  0  0  0  0  0  0  0  0
    0.9815   -2.9649    0.1318 C   0  0  0  0  0  0  0  0  0  0  0  0
    1.9658   -2.5004    0.2218 H   0  0  0  0  0  0  0  0  0  0  0  0
    0.9993   -3.9351    0.6299 H   0  0  0  0  0  0  0  0  0  0  0  0
    0.7642   -3.1090   -0.9288 H   0  0  0  0  0  0  0  0  0  0  0  0
  5  6  2  0  0  0  0
  5  7  1  0  0  0  0
  2  3  1  0  0  0  0
  2  4  1  0  0  0  0
  2  5  1  0  0  0  0
  1  2  1  0  0  0  0
 29 30  2  0  0  0  0
 29 31  1  0  0  0  0
 26 27  1  0  0  0  0
 26 28  1  0  0  0  0
 23 24  1  0  0  0  0
 23 25  1  0  0  0  0
 22 23  1  0  0  0  0
 22 26  1  0  0  0  0
 20 21  1  0  0  0  0
 20 22  2  0  0  0  0
 17 18  1  0  0  0  0
 17 19  1  0  0  0  0
 17 20  1  0  0  0  0
 14 15  1  0  0  0  0
 14 16  1  0  0  0  0
 14 17  1  0  0  0  0
 11 12  1  0  0  0  0
 11 13  1  0  0  0  0
 11 14  1  0  0  0  0
  9 10  1  0  0  0  0
  9 11  1  0  0  0  0
  9 29  1  0  0  0  0
  7  8  1  0  0  0  0
  7  9  1  0  0  0  0
 33 34  1  0  0  0  0
 33 35  1  0  0  0  0
 33 36  1  0  0  0  0
 31 32  1  0  0  0  0
 31 33  1  0  0  0  0
M  CHG  1  20   1
M  END
$$$$
default_name
  -OEChem-01062215323D

 36 35  0     1  0  0  0  0  0999 V2000
   -4.2256   -3.6731    1.8584 H   0  0  0  0  0  0  0  0  0  0  0  0
   -4.2396   -2.6781    1.4144 C   0  0  0  0  0  0  0  0  0  0  0  0
   -4.9506   -2.0521    1.9514 H   0  0  0  0  0  0  0  0  0  0  0  0
   -4.5266   -2.7521    0.3674 H   0  0  0  0  0  0  0  0  0  0  0  0
   -2.8576   -2.0761    1.5184 C   0  0  0  0  0  0  0  0  0  0  0  0
   -1.9456   -2.7051    2.0404 O   0  0  0  0  0  0  0  0  0  0  0  0
   -2.6926   -0.8481    1.0174 N   0  0  0  0  0  0  0  0  0  0  0  0
   -3.4926   -0.3971    0.5954 H   0  0  0  0  0  0  0  0  0  0  0  0
   -1.4216   -0.1071    1.0434 C   0  0  1  0  0  0  0  0  0  0  0  0
   -1.5747    0.8557    0.5533 H   0  0  0  0  0  0  0  0  0  0  0  0
   -1.0317    0.1413    2.5143 C   0  0  0  0  0  0  0  0  0  0  0  0
   -1.0334   -0.8149    3.0415 H   0  0  0  0  0  0  0  0  0  0  0  0
   -0.0183    0.5470    2.5513 H   0  0  0  0  0  0  0  0  0  0  0  0
   -1.9846    1.0975    3.2463 C   0  0  0  0  0  0  0  0  0  0  0  0
   -1.9923    2.0663    2.7448 H   0  0  0  0  0  0  0  0  0  0  0  0
   -2.9918    0.6795    3.2379 H   0  0  0  0  0  0  0  0  0  0  0  0
   -1.5224    1.2864    4.6975 C   0  0  0  0  0  0  0  0  0  0  0  0
   -1.4922    0.3087    5.1839 H   0  0  0  0  0  0  0  0  0  0  0  0
   -0.5143    1.7074    4.6893 H   0  0  0  0  0  0  0  0  0  0  0  0
   -2.4257    2.1825    5.4485 N   0  3  0  0  0  0  0  0  0  0  0  0
   -3.1864    2.5919    4.9336 H   0  0  0  0  0  0  0  0  0  0  0  0
   -2.3284    2.4955    6.7297 C   0  0  0  0  0  0  0  0  0  0  0  0
   -1.3809    2.0213    7.4891 N   0  0  0  0  0  0  0  0  0  0  0  0
   -0.7048    1.3969    7.0860 H   0  0  0  0  0  0  0  0  0  0  0  0
   -1.3212    2.2693    8.4595 H   0  0  0  0  0  0  0  0  0  0  0  0
   -3.1914    3.3020    7.2793 N   0  0  0  0  0  0  0  0  0  0  0  0
   -3.9402    3.6930    6.7340 H   0  0  0  0  0  0  0  0  0  0  0  0
   -3.1139    3.5368    8.2516 H   0  0  0  0  0  0  0  0  0  0  0  0
   -0.3367   -0.8777    0.2882 C   0  0  0  0  0  0  0  0  0  0  0  0
    0.3726   -0.2893   -0.5191 O   0  0  0  0  0  0  0  0  0  0  0  0
   -0.2419   -2.1894    0.5274 N   0  0  0  0  0  0  0  0  0  0  0  0
   -0.8405   -2.5838    1.2345 H   0  0  0  0  0  0  0  0  0  0  0  0
    0.7402   -3.0689   -0.1088 C   0  0  0  0  0  0  0  0  0  0  0  0
    1.7487   -2.7697    0.1847 H   0  0  0  0  0  0  0  0  0  0  0  0
    0.5746   -4.1041    0.1923 H   0  0  0  0  0  0  0  0  0  0  0  0
    0.6607   -2.9933   -1.1955 H   0  0  0  0  0  0  0  0  0  0  0  0
  5  6  2  0  0  0  0
  5  7  1  0  0  0  0
  2  3  1  0  0  0  0
  2  4  1  0  0  0  0
  2  5  1  0  0  0  0
  1  2  1  0  0  0  0
 29 30  2  0  0  0  0
 29 31  1  0  0  0  0
 26 27  1  0  0  0  0
 26 28  1  0  0  0  0
 23 24  1  0  0  0  0
 23 25  1  0  0  0  0
 22 23  1  0  0  0  0
 22 26  1  0  0  0  0
 20 21  1  0  0  0  0
 20 22  2  0  0  0  0
 17 18  1  0  0  0  0
 17 19  1  0  0  0  0
 17 20  1  0  0  0  0
 14 15  1  0  0  0  0
 14 16  1  0  0  0  0
 14 17  1  0  0  0  0
 11 12  1  0  0  0  0
 11 13  1  0  0  0  0
 11 14  1  0  0  0  0
  9 10  1  0  0  0  0
  9 11  1  0  0  0  0
  9 29  1  0  0  0  0
  7  8  1  0  0  0  0
  7  9  1  0  0  0  0
 33 34  1  0  0  0  0
 33 35  1  0  0  0  0
 33 36  1  0  0  0  0
 31 32  1  0  0  0  0
 31 33  1  0  0  0  0
M  CHG  1  20   1
M  END
$$$$
default_name
  -OEChem-01062215323D

 36 35  0     1  0  0  0  0  0999 V2000
   -4.2256   -3.6731    1.8584 H   0  0  0  0  0  0  0  0  0  0  0  0
   -4.2396   -2.6781    1.4144 C   0  0  0  0  0  0  0  0  0  0  0  0
   -4.9506   -2.0521    1.9514 H   0  0  0  0  0  0  0  0  0  0  0  0
   -4.5266   -2.7521    0.3674 H   0  0  0  0  0  0  0  0  0  0  0  0
   -2.8576   -2.0761    1.5184 C   0  0  0  0  0  0  0  0  0  0  0  0
   -1.9456   -2.7051    2.0404 O   0  0  0  0  0  0  0  0  0  0  0  0
   -2.6926   -0.8481    1.0174 N   0  0  0  0  0  0  0  0  0  0  0  0
   -3.4926   -0.3971    0.5954 H   0  0  0  0  0  0  0  0  0  0  0  0
   -1.4216   -0.1071    1.0434 C   0  0  1  0  0  0  0  0  0  0  0  0
   -1.5747    0.8557    0.5533 H   0  0  0  0  0  0  0  0  0  0  0  0
   -1.0317    0.1413    2.5143 C   0  0  0  0  0  0  0  0  0  0  0  0
   -1.0334   -0.8149    3.0415 H   0  0  0  0  0  0  0  0  0  0  0  0
   -0.0183    0.5470    2.5513 H   0  0  0  0  0  0  0  0  0  0  0  0
   -1.9846    1.0975    3.2463 C   0  0  0  0  0  0  0  0  0  0  0  0
   -1.9923    2.0663    2.7448 H   0  0  0  0  0  0  0  0  0  0  0  0
   -2.9918    0.6795    3.2379 H   0  0  0  0  0  0  0  0  0  0  0  0
   -1.5224    1.2864    4.6975 C   0  0  0  0  0  0  0  0  0  0  0  0
   -1.4922    0.3087    5.1839 H   0  0  0  0  0  0  0  0  0  0  0  0
   -0.5143    1.7074    4.6893 H   0  0  0  0  0  0  0  0  0  0  0  0
   -2.4257    2.1825    5.4485 N   0  3  0  0  0  0  0  0  0  0  0  0
   -3.1864    2.5919    4.9336 H   0  0  0  0  0  0  0  0  0  0  0  0
   -2.3284    2.4955    6.7297 C   0  0  0  0  0  0  0  0  0  0  0  0
   -1.3809    2.0213    7.4891 N   0  0  0  0  0  0  0  0  0  0  0  0
   -0.7048    1.3969    7.0860 H   0  0  0  0  0  0  0  0  0  0  0  0
   -1.3212    2.2693    8.4595 H   0  0  0  0  0  0  0  0  0  0  0  0
   -3.1914    3.3020    7.2793 N   0  0  0  0  0  0  0  0  0  0  0  0
   -3.9402    3.6930    6.7340 H   0  0  0  0  0  0  0  0  0  0  0  0
   -3.1139    3.5368    8.2516 H   0  0  0  0  0  0  0  0  0  0  0  0
   -0.3367   -0.8777    0.2882 C   0  0  0  0  0  0  0  0  0  0  0  0
    0.5435   -0.2622   -0.3014 O   0  0  0  0  0  0  0  0  0  0  0  0
   -0.4292   -2.2112    0.2806 N   0  0  0  0  0  0  0  0  0  0  0  0
   -1.1638   -2.6356    0.8229 H   0  0  0  0  0  0  0  0  0  0  0  0
    0.5251   -3.0944   -0.3917 C   0  0  0  0  0  0  0  0  0  0  0  0
    1.5094   -2.9953    0.0710 H   0  0  0  0  0  0  0  0  0  0  0  0
    0.1999   -4.1328   -0.3167 H   0  0  0  0  0  0  0  0  0  0  0  0
    0.6104   -2.8193   -1.4453 H   0  0  0  0  0  0  0  0  0  0  0  0
  5  6  2  0  0  0  0
  5  7  1  0  0  0  0
  2  3  1  0  0  0  0
  2  4  1  0  0  0  0
  2  5  1  0  0  0  0
  1  2  1  0  0  0  0
 29 30  2  0  0  0  0
 29 31  1  0  0  0  0
 26 27  1  0  0  0  0
 26 28  1  0  0  0  0
 23 24  1  0  0  0  0
 23 25  1  0  0  0  0
 22 23  1  0  0  0  0
 22 26  1  0  0  0  0
 20 21  1  0  0  0  0
 20 22  2  0  0  0  0
 17 18  1  0  0  0  0
 17 19  1  0  0  0  0
 17 20  1  0  0  0  0
 14 15  1  0  0  0  0
 14 16  1  0  0  0  0
 14 17  1  0  0  0  0
 11 12  1  0  0  0  0
 11 13  1  0  0  0  0
 11 14  1  0  0  0  0
  9 10  1  0  0  0  0
  9 11  1  0  0  0  0
  9 29  1  0  0  0  0
  7  8  1  0  0  0  0
  7  9  1  0  0  0  0
 33 34  1  0  0  0  0
 33 35  1  0  0  0  0
 33 36  1  0  0  0  0
 31 32  1  0  0  0  0
 31 33  1  0  0  0  0
M  CHG  1  20   1
M  END
$$$$
default_name
  -OEChem-01062215323D

 36 35  0     1  0  0  0  0  0999 V2000
   -4.2256   -3.6731    1.8584 H   0  0  0  0  0  0  0  0  0  0  0  0
   -4.2396   -2.6781    1.4144 C   0  0  0  0  0  0  0  0  0  0  0  0
   -4.9506   -2.0521    1.9514 H   0  0  0  0  0  0  0  0  0  0  0  0
   -4.5266   -2.7521    0.3674 H   0  0  0  0  0  0  0  0  0  0  0  0
   -2.8576   -2.0761    1.5184 C   0  0  0  0  0  0  0  0  0  0  0  0
   -1.9456   -2.7051    2.0404 O   0  0  0  0  0  0  0  0  0  0  0  0
   -2.6926   -0.8481    1.0174 N   0  0  0  0  0  0  0  0  0  0  0  0
   -3.4926   -0.3971    0.5954 H   0  0  0  0  0  0  0  0  0  0  0  0
   -1.4216   -0.1071    1.0434 C   0  0  1  0  0  0  0  0  0  0  0  0
   -1.5747    0.8557    0.5533 H   0  0  0  0  0  0  0  0  0  0  0  0
   -1.0317    0.1413    2.5143 C   0  0  0  0  0  0  0  0  0  0  0  0
   -1.0334   -0.8149    3.0415 H   0  0  0  0  0  0  0  0  0  0  0  0
   -0.0183    0.5470    2.5513 H   0  0  0  0  0  0  0  0  0  0  0  0
   -1.9846    1.0975    3.2463 C   0  0  0  0  0  0  0  0  0  0  0  0
   -1.9923    2.0663    2.7448 H   0  0  0  0  0  0  0  0  0  0  0  0
   -2.9918    0.6795    3.2379 H   0  0  0  0  0  0  0  0  0  0  0  0
   -1.5224    1.2864    4.6975 C   0  0  0  0  0  0  0  0  0  0  0  0
   -1.4922    0.3087    5.1839 H   0  0  0  0  0  0  0  0  0  0  0  0
   -0.5143    1.7074    4.6893 H   0  0  0  0  0  0  0  0  0  0  0  0
   -2.4257    2.1825    5.4485 N   0  3  0  0  0  0  0  0  0  0  0  0
   -3.1864    2.5919    4.9336 H   0  0  0  0  0  0  0  0  0  0  0  0
   -2.3284    2.4955    6.7297 C   0  0  0  0  0  0  0  0  0  0  0  0
   -1.3809    2.0213    7.4891 N   0  0  0  0  0  0  0  0  0  0  0  0
   -0.7048    1.3969    7.0860 H   0  0  0  0  0  0  0  0  0  0  0  0
   -1.3212    2.2693    8.4595 H   0  0  0  0  0  0  0  0  0  0  0  0
   -3.1914    3.3020    7.2793 N   0  0  0  0  0  0  0  0  0  0  0  0
   -3.9402    3.6930    6.7340 H   0  0  0  0  0  0  0  0  0  0  0  0
   -3.1139    3.5368    8.2516 H   0  0  0  0  0  0  0  0  0  0  0  0
   -0.3367   -0.8777    0.2882 C   0  0  0  0  0  0  0  0  0  0  0  0
    0.6836   -0.2978   -0.0638 O   0  0  0  0  0  0  0  0  0  0  0  0
   -0.5807   -2.1630    0.0139 N   0  0  0  0  0  0  0  0  0  0  0  0
   -1.4291   -2.5687    0.3737 H   0  0  0  0  0  0  0  0  0  0  0  0
    0.3510   -3.0396   -0.6977 C   0  0  0  0  0  0  0  0  0  0  0  0
    1.2642   -3.1617   -0.1113 H   0  0  0  0  0  0  0  0  0  0  0  0
   -0.0994   -4.0192   -0.8625 H   0  0  0  0  0  0  0  0  0  0  0  0
    0.6165   -2.5991   -1.6612 H   0  0  0  0  0  0  0  0  0  0  0  0
  5  6  2  0  0  0  0
  5  7  1  0  0  0  0
  2  3  1  0  0  0  0
  2  4  1  0  0  0  0
  2  5  1  0  0  0  0
  1  2  1  0  0  0  0
 29 30  2  0  0  0  0
 29 31  1  0  0  0  0
 26 27  1  0  0  0  0
 26 28  1  0  0  0  0
 23 24  1  0  0  0  0
 23 25  1  0  0  0  0
 22 23  1  0  0  0  0
 22 26  1  0  0  0  0
 20 21  1  0  0  0  0
 20 22  2  0  0  0  0
 17 18  1  0  0  0  0
 17 19  1  0  0  0  0
 17 20  1  0  0  0  0
 14 15  1  0  0  0  0
 14 16  1  0  0  0  0
 14 17  1  0  0  0  0
 11 12  1  0  0  0  0
 11 13  1  0  0  0  0
 11 14  1  0  0  0  0
  9 10  1  0  0  0  0
  9 11  1  0  0  0  0
  9 29  1  0  0  0  0
  7  8  1  0  0  0  0
  7  9  1  0  0  0  0
 33 34  1  0  0  0  0
 33 35  1  0  0  0  0
 33 36  1  0  0  0  0
 31 32  1  0  0  0  0
 31 33  1  0  0  0  0
M  CHG  1  20   1
M  END
$$$$
default_name
  -OEChem-01062215323D

 36 35  0     1  0  0  0  0  0999 V2000
   -4.2256   -3.6731    1.8584 H   0  0  0  0  0  0  0  0  0  0  0  0
   -4.2396   -2.6781    1.4144 C   0  0  0  0  0  0  0  0  0  0  0  0
   -4.9506   -2.0521    1.9514 H   0  0  0  0  0  0  0  0  0  0  0  0
   -4.5266   -2.7521    0.3674 H   0  0  0  0  0  0  0  0  0  0  0  0
   -2.8576   -2.0761    1.5184 C   0  0  0  0  0  0  0  0  0  0  0  0
   -1.9456   -2.7051    2.0404 O   0  0  0  0  0  0  0  0  0  0  0  0
   -2.6926   -0.8481    1.0174 N   0  0  0  0  0  0  0  0  0  0  0  0
   -3.4926   -0.3971    0.5954 H   0  0  0  0  0  0  0  0  0  0  0  0
   -1.4216   -0.1071    1.0434 C   0  0  1  0  0  0  0  0  0  0  0  0
   -1.5747    0.8557    0.5533 H   0  0  0  0  0  0  0  0  0  0  0  0
   -1.0317    0.1413    2.5143 C   0  0  0  0  0  0  0  0  0  0  0  0
   -1.0334   -0.8149    3.0415 H   0  0  0  0  0  0  0  0  0  0  0  0
   -0.0183    0.5470    2.5513 H   0  0  0  0  0  0  0  0  0  0  0  0
   -1.9846    1.0975    3.2463 C   0  0  0  0  0  0  0  0  0  0  0  0
   -1.9923    2.0663    2.7448 H   0  0  0  0  0  0  0  0  0  0  0  0
   -2.9918    0.6795    3.2379 H   0  0  0  0  0  0  0  0  0  0  0  0
   -1.5224    1.2864    4.6975 C   0  0  0  0  0  0  0  0  0  0  0  0
   -1.4922    0.3087    5.1839 H   0  0  0  0  0  0  0  0  0  0  0  0
   -0.5143    1.7074    4.6893 H   0  0  0  0  0  0  0  0  0  0  0  0
   -2.4257    2.1825    5.4485 N   0  3  0  0  0  0  0  0  0  0  0  0
   -3.1864    2.5919    4.9336 H   0  0  0  0  0  0  0  0  0  0  0  0
   -2.3284    2.4955    6.7297 C   0  0  0  0  0  0  0  0  0  0  0  0
   -1.3809    2.0213    7.4891 N   0  0  0  0  0  0  0  0  0  0  0  0
   -0.7048    1.3969    7.0860 H   0  0  0  0  0  0  0  0  0  0  0  0
   -1.3212    2.2693    8.4595 H   0  0  0  0  0  0  0  0  0  0  0  0
   -3.1914    3.3020    7.2793 N   0  0  0  0  0  0  0  0  0  0  0  0
   -3.9402    3.6930    6.7340 H   0  0  0  0  0  0  0  0  0  0  0  0
   -3.1139    3.5368    8.2516 H   0  0  0  0  0  0  0  0  0  0  0  0
   -0.3367   -0.8777    0.2882 C   0  0  0  0  0  0  0  0  0  0  0  0
    0.7834   -0.3937    0.1774 O   0  0  0  0  0  0  0  0  0  0  0  0
   -0.6861   -2.0482   -0.2547 N   0  0  0  0  0  0  0  0  0  0  0  0
   -1.6182   -2.3878   -0.0825 H   0  0  0  0  0  0  0  0  0  0  0  0
    0.2298   -2.9083   -1.0059 C   0  0  0  0  0  0  0  0  0  0  0  0
    1.0299   -3.2577   -0.3499 H   0  0  0  0  0  0  0  0  0  0  0  0
   -0.3028   -3.7711   -1.4078 H   0  0  0  0  0  0  0  0  0  0  0  0
    0.6787   -2.3474   -1.8286 H   0  0  0  0  0  0  0  0  0  0  0  0
  5  6  2  0  0  0  0
  5  7  1  0  0  0  0
  2  3  1  0  0  0  0
  2  4  1  0  0  0  0
  2  5  1  0  0  0  0
  1  2  1  0  0  0  0
 29 30  2  0  0  0  0
 29 31  1  0  0  0  0
 26 27  1  0  0  0  0
 26 28  1  0  0  0  0
 23 24  1  0  0  0  0
 23 25  1  0  0  0  0
 22 23  1  0  0  0  0
 22 26  1  0  0  0  0
 20 21  1  0  0  0  0
 20 22  2  0  0  0  0
 17 18  1  0  0  0  0
 17 19  1  0  0  0  0
 17 20  1  0  0  0  0
 14 15  1  0  0  0  0
 14 16  1  0  0  0  0
 14 17  1  0  0  0  0
 11 12  1  0  0  0  0
 11 13  1  0  0  0  0
 11 14  1  0  0  0  0
  9 10  1  0  0  0  0
  9 11  1  0  0  0  0
  9 29  1  0  0  0  0
  7  8  1  0  0  0  0
  7  9  1  0  0  0  0
 33 34  1  0  0  0  0
 33 35  1  0  0  0  0
 33 36  1  0  0  0  0
 31 32  1  0  0  0  0
 31 33  1  0  0  0  0
M  CHG  1  20   1
M  END
$$$$
default_name
  -OEChem-01062215323D

 36 35  0     1  0  0  0  0  0999 V2000
   -4.2256   -3.6731    1.8584 H   0  0  0  0  0  0  0  0  0  0  0  0
   -4.2396   -2.6781    1.4144 C   0  0  0  0  0  0  0  0  0  0  0  0
   -4.9506   -2.0521    1.9514 H   0  0  0  0  0  0  0  0  0  0  0  0
   -4.5266   -2.7521    0.3674 H   0  0  0  0  0  0  0  0  0  0  0  0
   -2.8576   -2.0761    1.5184 C   0  0  0  0  0  0  0  0  0  0  0  0
   -1.9456   -2.7051    2.0404 O   0  0  0  0  0  0  0  0  0  0  0  0
   -2.6926   -0.8481    1.0174 N   0  0  0  0  0  0  0  0  0  0  0  0
   -3.4926   -0.3971    0.5954 H   0  0  0  0  0  0  0  0  0  0  0  0
   -1.4216   -0.1071    1.0434 C   0  0  1  0  0  0  0  0  0  0  0  0
   -1.5747    0.8557    0.5533 H   0  0  0  0  0  0  0  0  0  0  0  0
   -1.0317    0.1413    2.5143 C   0  0  0  0  0  0  0  0  0  0  0  0
   -1.0334   -0.8149    3.0415 H   0  0  0  0  0  0  0  0  0  0  0  0
   -0.0183    0.5470    2.5513 H   0  0  0  0  0  0  0  0  0  0  0  0
   -1.9846    1.0975    3.2463 C   0  0  0  0  0  0  0  0  0  0  0  0
   -1.9923    2.0663    2.7448 H   0  0  0  0  0  0  0  0  0  0  0  0
   -2.9918    0.6795    3.2379 H   0  0  0  0  0  0  0  0  0  0  0  0
   -1.5224    1.2864    4.6975 C   0  0  0  0  0  0  0  0  0  0  0  0
   -1.4922    0.3087    5.1839 H   0  0  0  0  0  0  0  0  0  0  0  0
   -0.5143    1.7074    4.6893 H   0  0  0  0  0  0  0  0  0  0  0  0
   -2.4257    2.1825    5.4485 N   0  3  0  0  0  0  0  0  0  0  0  0
   -3.1864    2.5919    4.9336 H   0  0  0  0  0  0  0  0  0  0  0  0
   -2.3284    2.4955    6.7297 C   0  0  0  0  0  0  0  0  0  0  0  0
   -1.3809    2.0213    7.4891 N   0  0  0  0  0  0  0  0  0  0  0  0
   -0.7048    1.3969    7.0860 H   0  0  0  0  0  0  0  0  0  0  0  0
   -1.3212    2.2693    8.4595 H   0  0  0  0  0  0  0  0  0  0  0  0
   -3.1914    3.3020    7.2793 N   0  0  0  0  0  0  0  0  0  0  0  0
   -3.9402    3.6930    6.7340 H   0  0  0  0  0  0  0  0  0  0  0  0
   -3.1139    3.5368    8.2516 H   0  0  0  0  0  0  0  0  0  0  0  0
   -0.3367   -0.8777    0.2882 C   0  0  0  0  0  0  0  0  0  0  0  0
    0.8361   -0.5433    0.4058 O   0  0  0  0  0  0  0  0  0  0  0  0
   -0.7382   -1.8745   -0.5068 N   0  0  0  0  0  0  0  0  0  0  0  0
   -1.7183   -2.1052   -0.5146 H   0  0  0  0  0  0  0  0  0  0  0  0
    0.1696   -2.7094   -1.2953 C   0  0  0  0  0  0  0  0  0  0  0  0
    0.8224   -3.2767   -0.6286 H   0  0  0  0  0  0  0  0  0  0  0  0
   -0.3966   -3.4054   -1.9156 H   0  0  0  0  0  0  0  0  0  0  0  0
    0.7928   -2.0816   -1.9359 H   0  0  0  0  0  0  0  0  0  0  0  0
  5  6  2  0  0  0  0
  5  7  1  0  0  0  0
  2  3  1  0  0  0  0
  2  4  1  0  0  0  0
  2  5  1  0  0  0  0
  1  2  1  0  0  0  0
 29 30  2  0  0  0  0
 29 31  1  0  0  0  0
 26 27  1  0  0  0  0
 26 28  1  0  0  0  0
 23 24  1  0  0  0  0
 23 25  1  0  0  0  0
 22 23  1  0  0  0  0
 22 26  1  0  0  0  0
 20 21  1  0  0  0  0
 20 22  2  0  0  0  0
 17 18  1  0  0  0  0
 17 19  1  0  0  0  0
 17 20  1  0  0  0  0
 14 15  1  0  0  0  0
 14 16  1  0  0  0  0
 14 17  1  0  0  0  0
 11 12  1  0  0  0  0
 11 13  1  0  0  0  0
 11 14  1  0  0  0  0
  9 10  1  0  0  0  0
  9 11  1  0  0  0  0
  9 29  1  0  0  0  0
  7  8  1  0  0  0  0
  7  9  1  0  0  0  0
 33 34  1  0  0  0  0
 33 35  1  0  0  0  0
 33 36  1  0  0  0  0
 31 32  1  0  0  0  0
 31 33  1  0  0  0  0
M  CHG  1  20   1
M  END
$$$$
default_name
  -OEChem-01062215323D

 36 35  0     1  0  0  0  0  0999 V2000
   -4.2256   -3.6731    1.8584 H   0  0  0  0  0  0  0  0  0  0  0  0
   -4.2396   -2.6781    1.4144 C   0  0  0  0  0  0  0  0  0  0  0  0
   -4.9506   -2.0521    1.9514 H   0  0  0  0  0  0  0  0  0  0  0  0
   -4.5266   -2.7521    0.3674 H   0  0  0  0  0  0  0  0  0  0  0  0
   -2.8576   -2.0761    1.5184 C   0  0  0  0  0  0  0  0  0  0  0  0
   -1.9456   -2.7051    2.0404 O   0  0  0  0  0  0  0  0  0  0  0  0
   -2.6926   -0.8481    1.0174 N   0  0  0  0  0  0  0  0  0  0  0  0
   -3.4926   -0.3971    0.5954 H   0  0  0  0  0  0  0  0  0  0  0  0
   -1.4216   -0.1071    1.0434 C   0  0  1  0  0  0  0  0  0  0  0  0
   -1.5747    0.8557    0.5533 H   0  0  0  0  0  0  0  0  0  0  0  0
   -1.0317    0.1413    2.5143 C   0  0  0  0  0  0  0  0  0  0  0  0
   -1.0334   -0.8149    3.0415 H   0  0  0  0  0  0  0  0  0  0  0  0
   -0.0183    0.5470    2.5513 H   0  0  0  0  0  0  0  0  0  0  0  0
   -1.9846    1.0975    3.2463 C   0  0  0  0  0  0  0  0  0  0  0  0
   -1.9923    2.0663    2.7448 H   0  0  0  0  0  0  0  0  0  0  0  0
   -2.9918    0.6795    3.2379 H   0  0  0  0  0  0  0  0  0  0  0  0
   -1.5224    1.2864    4.6975 C   0  0  0  0  0  0  0  0  0  0  0  0
   -1.4922    0.3087    5.1839 H   0  0  0  0  0  0  0  0  0  0  0  0
   -0.5143    1.7074    4.6893 H   0  0  0  0  0  0  0  0  0  0  0  0
   -2.4257    2.1825    5.4485 N   0  3  0  0  0  0  0  0  0  0  0  0
   -3.1864    2.5919    4.9336 H   0  0  0  0  0  0  0  0  0  0  0  0
   -2.3284    2.4955    6.7297 C   0  0  0  0  0  0  0  0  0  0  0  0
   -1.3809    2.0213    7.4891 N   0  0  0  0  0  0  0  0  0  0  0  0
   -0.7048    1.3969    7.0860 H   0  0  0  0  0  0  0  0  0  0  0  0
   -1.3212    2.2693    8.4595 H   0  0  0  0  0  0  0  0  0  0  0  0
   -3.1914    3.3020    7.2793 N   0  0  0  0  0  0  0  0  0  0  0  0
   -3.9402    3.6930    6.7340 H   0  0  0  0  0  0  0  0  0  0  0  0
   -3.1139    3.5368    8.2516 H   0  0  0  0  0  0  0  0  0  0  0  0
   -0.3367   -0.8777    0.2882 C   0  0  0  0  0  0  0  0  0  0  0  0
    0.8381   -0.7365    0.6059 O   0  0  0  0  0  0  0  0  0  0  0  0
   -0.7335   -1.6538   -0.7252 N   0  0  0  0  0  0  0  0  0  0  0  0
   -1.7226   -1.7402   -0.8932 H   0  0  0  0  0  0  0  0  0  0  0  0
    0.1745   -2.4564   -1.5462 C   0  0  0  0  0  0  0  0  0  0  0  0
    0.6559   -3.2174   -0.9282 H   0  0  0  0  0  0  0  0  0  0  0  0
   -0.3742   -2.9470   -2.3512 H   0  0  0  0  0  0  0  0  0  0  0  0
    0.9509   -1.8197   -1.9760 H   0  0  0  0  0  0  0  0  0  0  0  0
  5  6  2  0  0  0  0
  5  7  1  0  0  0  0
  2  3  1  0  0  0  0
  2  4  1  0  0  0  0
  2  5  1  0  0  0  0
  1  2  1  0  0  0  0
 29 30  2  0  0  0  0
 29 31  1  0  0  0  0
 26 27  1  0  0  0  0
 26 28  1  0  0  0  0
 23 24  1  0  0  0  0
 23 25  1  0  0  0  0
 22 23  1  0  0  0  0
 22 26  1  0  0  0  0
 20 21  1  0  0  0  0
 20 22  2  0  0  0  0
 17 18  1  0  0  0  0
 17 19  1  0  0  0  0
 17 20  1  0  0  0  0
 14 15  1  0  0  0  0
 14 16  1  0  0  0  0
 14 17  1  0  0  0  0
 11 12  1  0  0  0  0
 11 13  1  0  0  0  0
 11 14  1  0  0  0  0
  9 10  1  0  0  0  0
  9 11  1  0  0  0  0
  9 29  1  0  0  0  0
  7  8  1  0  0  0  0
  7  9  1  0  0  0  0
 33 34  1  0  0  0  0
 33 35  1  0  0  0  0
 33 36  1  0  0  0  0
 31 32  1  0  0  0  0
 31 33  1  0  0  0  0
M  CHG  1  20   1
M  END
$$$$
default_name
  -OEChem-01062215323D

 36 35  0     1  0  0  0  0  0999 V2000
   -4.2256   -3.6731    1.8584 H   0  0  0  0  0  0  0  0  0  0  0  0
   -4.2396   -2.6781    1.4144 C   0  0  0  0  0  0  0  0  0  0  0  0
   -4.9506   -2.0521    1.9514 H   0  0  0  0  0  0  0  0  0  0  0  0
   -4.5266   -2.7521    0.3674 H   0  0  0  0  0  0  0  0  0  0  0  0
   -2.8576   -2.0761    1.5184 C   0  0  0  0  0  0  0  0  0  0  0  0
   -1.9456   -2.7051    2.0404 O   0  0  0  0  0  0  0  0  0  0  0  0
   -2.6926   -0.8481    1.0174 N   0  0  0  0  0  0  0  0  0  0  0  0
   -3.4926   -0.3971    0.5954 H   0  0  0  0  0  0  0  0  0  0  0  0
   -1.4216   -0.1071    1.0434 C   0  0  1  0  0  0  0  0  0  0  0  0
   -1.5747    0.8557    0.5533 H   0  0  0  0  0  0  0  0  0  0  0  0
   -1.0317    0.1413    2.5143 C   0  0  0  0  0  0  0  0  0  0  0  0
   -1.0334   -0.8149    3.0415 H   0  0  0  0  0  0  0  0  0  0  0  0
   -0.0183    0.5470    2.5513 H   0  0  0  0  0  0  0  0  0  0  0  0
   -1.9846    1.0975    3.2463 C   0  0  0  0  0  0  0  0  0  0  0  0
   -1.9923    2.0663    2.7448 H   0  0  0  0  0  0  0  0  0  0  0  0
   -2.9918    0.6795    3.2379 H   0  0  0  0  0  0  0  0  0  0  0  0
   -1.5224    1.2864    4.6975 C   0  0  0  0  0  0  0  0  0  0  0  0
   -1.4922    0.3087    5.1839 H   0  0  0  0  0  0  0  0  0  0  0  0
   -0.5143    1.7074    4.6893 H   0  0  0  0  0  0  0  0  0  0  0  0
   -2.4257    2.1825    5.4485 N   0  3  0  0  0  0  0  0  0  0  0  0
   -3.1864    2.5919    4.9336 H   0  0  0  0  0  0  0  0  0  0  0  0
   -2.3284    2.4955    6.7297 C   0  0  0  0  0  0  0  0  0  0  0  0
   -1.3809    2.0213    7.4891 N   0  0  0  0  0  0  0  0  0  0  0  0
   -0.7048    1.3969    7.0860 H   0  0  0  0  0  0  0  0  0  0  0  0
   -1.3212    2.2693    8.4595 H   0  0  0  0  0  0  0  0  0  0  0  0
   -3.1914    3.3020    7.2793 N   0  0  0  0  0  0  0  0  0  0  0  0
   -3.9402    3.6930    6.7340 H   0  0  0  0  0  0  0  0  0  0  0  0
   -3.1139    3.5368    8.2516 H   0  0  0  0  0  0  0  0  0  0  0  0
   -0.3367   -0.8777    0.2882 C   0  0  0  0  0  0  0  0  0  0  0  0
    0.7893   -0.9601    0.7639 O   0  0  0  0  0  0  0  0  0  0  0  0
   -0.6723   -1.4012   -0.8951 N   0  0  0  0  0  0  0  0  0  0  0  0
   -1.6307   -1.3175   -1.1924 H   0  0  0  0  0  0  0  0  0  0  0  0
    0.2444   -2.1667   -1.7414 C   0  0  0  0  0  0  0  0  0  0  0  0
    0.5417   -3.0839   -1.2285 H   0  0  0  0  0  0  0  0  0  0  0  0
   -0.2373   -2.4271   -2.6848 H   0  0  0  0  0  0  0  0  0  0  0  0
    1.1423   -1.5796   -1.9460 H   0  0  0  0  0  0  0  0  0  0  0  0
  5  6  2  0  0  0  0
  5  7  1  0  0  0  0
  2  3  1  0  0  0  0
  2  4  1  0  0  0  0
  2  5  1  0  0  0  0
  1  2  1  0  0  0  0
 29 30  2  0  0  0  0
 29 31  1  0  0  0  0
 26 27  1  0  0  0  0
 26 28  1  0  0  0  0
 23 24  1  0  0  0  0
 23 25  1  0  0  0  0
 22 23  1  0  0  0  0
 22 26  1  0  0  0  0
 20 21  1  0  0  0  0
 20 22  2  0  0  0  0
 17 18  1  0  0  0  0
 17 19  1  0  0  0  0
 17 20  1  0  0  0  0
 14 15  1  0  0  0  0
 14 16  1  0  0  0  0
 14 17  1  0  0  0  0
 11 12  1  0  0  0  0
 11 13  1  0  0  0  0
 11 14  1  0  0  0  0
  9 10  1  0  0  0  0
  9 11  1  0  0  0  0
  9 29  1  0  0  0  0
  7  8  1  0  0  0  0
  7  9  1  0  0  0  0
 33 34  1  0  0  0  0
 33 35  1  0  0  0  0
 33 36  1  0  0  0  0
 31 32  1  0  0  0  0
 31 33  1  0  0  0  0
M  CHG  1  20   1
M  END
$$$$
default_name
  -OEChem-01062215323D

 36 35  0     1  0  0  0  0  0999 V2000
   -4.2256   -3.6731    1.8584 H   0  0  0  0  0  0  0  0  0  0  0  0
   -4.2396   -2.6781    1.4144 C   0  0  0  0  0  0  0  0  0  0  0  0
   -4.9506   -2.0521    1.9514 H   0  0  0  0  0  0  0  0  0  0  0  0
   -4.5266   -2.7521    0.3674 H   0  0  0  0  0  0  0  0  0  0  0  0
   -2.8576   -2.0761    1.5184 C   0  0  0  0  0  0  0  0  0  0  0  0
   -1.9456   -2.7051    2.0404 O   0  0  0  0  0  0  0  0  0  0  0  0
   -2.6926   -0.8481    1.0174 N   0  0  0  0  0  0  0  0  0  0  0  0
   -3.4926   -0.3971    0.5954 H   0  0  0  0  0  0  0  0  0  0  0  0
   -1.4216   -0.1071    1.0434 C   0  0  1  0  0  0  0  0  0  0  0  0
   -1.5747    0.8557    0.5533 H   0  0  0  0  0  0  0  0  0  0  0  0
   -1.0317    0.1413    2.5143 C   0  0  0  0  0  0  0  0  0  0  0  0
   -1.0334   -0.8149    3.0415 H   0  0  0  0  0  0  0  0  0  0  0  0
   -0.0183    0.5470    2.5513 H   0  0  0  0  0  0  0  0  0  0  0  0
   -1.9846    1.0975    3.2463 C   0  0  0  0  0  0  0  0  0  0  0  0
   -1.9923    2.0663    2.7448 H   0  0  0  0  0  0  0  0  0  0  0  0
   -2.9918    0.6795    3.2379 H   0  0  0  0  0  0  0  0  0  0  0  0
   -1.5224    1.2864    4.6975 C   0  0  0  0  0  0  0  0  0  0  0  0
   -1.4922    0.3087    5.1839 H   0  0  0  0  0  0  0  0  0  0  0  0
   -0.5143    1.7074    4.6893 H   0  0  0  0  0  0  0  0  0  0  0  0
   -2.4257    2.1825    5.4485 N   0  3  0  0  0  0  0  0  0  0  0  0
   -3.1864    2.5919    4.9336 H   0  0  0  0  0  0  0  0  0  0  0  0
   -2.3284    2.4955    6.7297 C   0  0  0  0  0  0  0  0  0  0  0  0
   -1.3809    2.0213    7.4891 N   0  0  0  0  0  0  0  0  0  0  0  0
   -0.7048    1.3969    7.0860 H   0  0  0  0  0  0  0  0  0  0  0  0
   -1.3212    2.2693    8.4595 H   0  0  0  0  0  0  0  0  0  0  0  0
   -3.1914    3.3020    7.2793 N   0  0  0  0  0  0  0  0  0  0  0  0
   -3.9402    3.6930    6.7340 H   0  0  0  0  0  0  0  0  0  0  0  0
   -3.1139    3.5368    8.2516 H   0  0  0  0  0  0  0  0  0  0  0  0
   -0.3367   -0.8777    0.2882 C   0  0  0  0  0  0  0  0  0  0  0  0
    0.6931   -1.1989    0.8692 O   0  0  0  0  0  0  0  0  0  0  0  0
   -0.5588   -1.1338   -1.0048 N   0  0  0  0  0  0  0  0  0  0  0  0
   -1.4490   -0.8661   -1.3919 H   0  0  0  0  0  0  0  0  0  0  0  0
    0.3743   -1.8600   -1.8678 C   0  0  0  0  0  0  0  0  0  0  0  0
    0.4876   -2.8852   -1.5090 H   0  0  0  0  0  0  0  0  0  0  0  0
    0.0049   -1.8812   -2.8939 H   0  0  0  0  0  0  0  0  0  0  0  0
    1.3540   -1.3776   -1.8481 H   0  0  0  0  0  0  0  0  0  0  0  0
  5  6  2  0  0  0  0
  5  7  1  0  0  0  0
  2  3  1  0  0  0  0
  2  4  1  0  0  0  0
  2  5  1  0  0  0  0
  1  2  1  0  0  0  0
 29 30  2  0  0  0  0
 29 31  1  0  0  0  0
 26 27  1  0  0  0  0
 26 28  1  0  0  0  0
 23 24  1  0  0  0  0
 23 25  1  0  0  0  0
 22 23  1  0  0  0  0
 22 26  1  0  0  0  0
 20 21  1  0  0  0  0
 20 22  2  0  0  0  0
 17 18  1  0  0  0  0
 17 19  1  0  0  0  0
 17 20  1  0  0  0  0
 14 15  1  0  0  0  0
 14 16  1  0  0  0  0
 14 17  1  0  0  0  0
 11 12  1  0  0  0  0
 11 13  1  0  0  0  0
 11 14  1  0  0  0  0
  9 10  1  0  0  0  0
  9 11  1  0  0  0  0
  9 29  1  0  0  0  0
  7  8  1  0  0  0  0
  7  9  1  0  0  0  0
 33 34  1  0  0  0  0
 33 35  1  0  0  0  0
 33 36  1  0  0  0  0
 31 32  1  0  0  0  0
 31 33  1  0  0  0  0
M  CHG  1  20   1
M  END
$$$$
default_name
  -OEChem-01062215323D

 36 35  0     1  0  0  0  0  0999 V2000
   -4.2256   -3.6731    1.8584 H   0  0  0  0  0  0  0  0  0  0  0  0
   -4.2396   -2.6781    1.4144 C   0  0  0  0  0  0  0  0  0  0  0  0
   -4.9506   -2.0521    1.9514 H   0  0  0  0  0  0  0  0  0  0  0  0
   -4.5266   -2.7521    0.3674 H   0  0  0  0  0  0  0  0  0  0  0  0
   -2.8576   -2.0761    1.5184 C   0  0  0  0  0  0  0  0  0  0  0  0
   -1.9456   -2.7051    2.0404 O   0  0  0  0  0  0  0  0  0  0  0  0
   -2.6926   -0.8481    1.0174 N   0  0  0  0  0  0  0  0  0  0  0  0
   -3.4926   -0.3971    0.5954 H   0  0  0  0  0  0  0  0  0  0  0  0
   -1.4216   -0.1071    1.0434 C   0  0  1  0  0  0  0  0  0  0  0  0
   -1.5747    0.8557    0.5533 H   0  0  0  0  0  0  0  0  0  0  0  0
   -1.0317    0.1413    2.5143 C   0  0  0  0  0  0  0  0  0  0  0  0
   -1.0334   -0.8149    3.0415 H   0  0  0  0  0  0  0  0  0  0  0  0
   -0.0183    0.5470    2.5513 H   0  0  0  0  0  0  0  0  0  0  0  0
   -1.9846    1.0975    3.2463 C   0  0  0  0  0  0  0  0  0  0  0  0
   -1.9923    2.0663    2.7448 H   0  0  0  0  0  0  0  0  0  0  0  0
   -2.9918    0.6795    3.2379 H   0  0  0  0  0  0  0  0  0  0  0  0
   -1.5224    1.2864    4.6975 C   0  0  0  0  0  0  0  0  0  0  0  0
   -1.4922    0.3087    5.1839 H   0  0  0  0  0  0  0  0  0  0  0  0
   -0.5143    1.7074    4.6893 H   0  0  0  0  0  0  0  0  0  0  0  0
   -2.4257    2.1825    5.4485 N   0  3  0  0  0  0  0  0  0  0  0  0
   -3.1864    2.5919    4.9336 H   0  0  0  0  0  0  0  0  0  0  0  0
   -2.3284    2.4955    6.7297 C   0  0  0  0  0  0  0  0  0  0  0  0
   -1.3809    2.0213    7.4891 N   0  0  0  0  0  0  0  0  0  0  0  0
   -0.7048    1.3969    7.0860 H   0  0  0  0  0  0  0  0  0  0  0  0
   -1.3212    2.2693    8.4595 H   0  0  0  0  0  0  0  0  0  0  0  0
   -3.1914    3.3020    7.2793 N   0  0  0  0  0  0  0  0  0  0  0  0
   -3.9402    3.6930    6.7340 H   0  0  0  0  0  0  0  0  0  0  0  0
   -3.1139    3.5368    8.2516 H   0  0  0  0  0  0  0  0  0  0  0  0
   -0.3367   -0.8777    0.2882 C   0  0  0  0  0  0  0  0  0  0  0  0
    0.5558   -1.4365    0.9145 O   0  0  0  0  0  0  0  0  0  0  0  0
   -0.4007   -0.8698   -1.0470 N   0  0  0  0  0  0  0  0  0  0  0  0
   -1.1898   -0.4167   -1.4781 H   0  0  0  0  0  0  0  0  0  0  0  0
    0.5554   -1.5571   -1.9166 C   0  0  0  0  0  0  0  0  0  0  0  0
    0.4972   -2.6349   -1.7504 H   0  0  0  0  0  0  0  0  0  0  0  0
    0.3359   -1.3465   -2.9641 H   0  0  0  0  0  0  0  0  0  0  0  0
    1.5714   -1.2276   -1.6888 H   0  0  0  0  0  0  0  0  0  0  0  0
  5  6  2  0  0  0  0
  5  7  1  0  0  0  0
  2  3  1  0  0  0  0
  2  4  1  0  0  0  0
  2  5  1  0  0  0  0
  1  2  1  0  0  0  0
 29 30  2  0  0  0  0
 29 31  1  0  0  0  0
 26 27  1  0  0  0  0
 26 28  1  0  0  0  0
 23 24  1  0  0  0  0
 23 25  1  0  0  0  0
 22 23  1  0  0  0  0
 22 26  1  0  0  0  0
 20 21  1  0  0  0  0
 20 22  2  0  0  0  0
 17 18  1  0  0  0  0
 17 19  1  0  0  0  0
 17 20  1  0  0  0  0
 14 15  1  0  0  0  0
 14 16  1  0  0  0  0
 14 17  1  0  0  0  0
 11 12  1  0  0  0  0
 11 13  1  0  0  0  0
 11 14  1  0  0  0  0
  9 10  1  0  0  0  0
  9 11  1  0  0  0  0
  9 29  1  0  0  0  0
  7  8  1  0  0  0  0
  7  9  1  0  0  0  0
 33 34  1  0  0  0  0
 33 35  1  0  0  0  0
 33 36  1  0  0  0  0
 31 32  1  0  0  0  0
 31 33  1  0  0  0  0
M  CHG  1  20   1
M  END
$$$$
default_name
  -OEChem-01062215323D

 36 35  0     1  0  0  0  0  0999 V2000
   -4.2256   -3.6731    1.8584 H   0  0  0  0  0  0  0  0  0  0  0  0
   -4.2396   -2.6781    1.4144 C   0  0  0  0  0  0  0  0  0  0  0  0
   -4.9506   -2.0521    1.9514 H   0  0  0  0  0  0  0  0  0  0  0  0
   -4.5266   -2.7521    0.3674 H   0  0  0  0  0  0  0  0  0  0  0  0
   -2.8576   -2.0761    1.5184 C   0  0  0  0  0  0  0  0  0  0  0  0
   -1.9456   -2.7051    2.0404 O   0  0  0  0  0  0  0  0  0  0  0  0
   -2.6926   -0.8481    1.0174 N   0  0  0  0  0  0  0  0  0  0  0  0
   -3.4926   -0.3971    0.5954 H   0  0  0  0  0  0  0  0  0  0  0  0
   -1.4216   -0.1071    1.0434 C   0  0  1  0  0  0  0  0  0  0  0  0
   -1.5747    0.8557    0.5533 H   0  0  0  0  0  0  0  0  0  0  0  0
   -1.0317    0.1413    2.5143 C   0  0  0  0  0  0  0  0  0  0  0  0
   -1.0334   -0.8149    3.0415 H   0  0  0  0  0  0  0  0  0  0  0  0
   -0.0183    0.5470    2.5513 H   0  0  0  0  0  0  0  0  0  0  0  0
   -1.9846    1.0975    3.2463 C   0  0  0  0  0  0  0  0  0  0  0  0
   -1.9923    2.0663    2.7448 H   0  0  0  0  0  0  0  0  0  0  0  0
   -2.9918    0.6795    3.2379 H   0  0  0  0  0  0  0  0  0  0  0  0
   -1.5224    1.2864    4.6975 C   0  0  0  0  0  0  0  0  0  0  0  0
   -1.4922    0.3087    5.1839 H   0  0  0  0  0  0  0  0  0  0  0  0
   -0.5143    1.7074    4.6893 H   0  0  0  0  0  0  0  0  0  0  0  0
   -2.4257    2.1825    5.4485 N   0  3  0  0  0  0  0  0  0  0  0  0
   -3.1864    2.5919    4.9336 H   0  0  0  0  0  0  0  0  0  0  0  0
   -2.3284    2.4955    6.7297 C   0  0  0  0  0  0  0  0  0  0  0  0
   -1.3809    2.0213    7.4891 N   0  0  0  0  0  0  0  0  0  0  0  0
   -0.7048    1.3969    7.0860 H   0  0  0  0  0  0  0  0  0  0  0  0
   -1.3212    2.2693    8.4595 H   0  0  0  0  0  0  0  0  0  0  0  0
   -3.1914    3.3020    7.2793 N   0  0  0  0  0  0  0  0  0  0  0  0
   -3.9402    3.6930    6.7340 H   0  0  0  0  0  0  0  0  0  0  0  0
   -3.1139    3.5368    8.2516 H   0  0  0  0  0  0  0  0  0  0  0  0
   -0.3367   -0.8777    0.2882 C   0  0  0  0  0  0  0  0  0  0  0  0
    0.3870   -1.6568    0.8967 O   0  0  0  0  0  0  0  0  0  0  0  0
   -0.2088   -0.6274   -1.0186 N   0  0  0  0  0  0  0  0  0  0  0  0
   -0.8707    0.0001   -1.4451 H   0  0  0  0  0  0  0  0  0  0  0  0
    0.7754   -1.2787   -1.8846 C   0  0  0  0  0  0  0  0  0  0  0  0
    0.5700   -2.3501   -1.9365 H   0  0  0  0  0  0  0  0  0  0  0  0
    0.7330   -0.8594   -2.8906 H   0  0  0  0  0  0  0  0  0  0  0  0
    1.7799   -1.1396   -1.4790 H   0  0  0  0  0  0  0  0  0  0  0  0
  5  6  2  0  0  0  0
  5  7  1  0  0  0  0
  2  3  1  0  0  0  0
  2  4  1  0  0  0  0
  2  5  1  0  0  0  0
  1  2  1  0  0  0  0
 29 30  2  0  0  0  0
 29 31  1  0  0  0  0
 26 27  1  0  0  0  0
 26 28  1  0  0  0  0
 23 24  1  0  0  0  0
 23 25  1  0  0  0  0
 22 23  1  0  0  0  0
 22 26  1  0  0  0  0
 20 21  1  0  0  0  0
 20 22  2  0  0  0  0
 17 18  1  0  0  0  0
 17 19  1  0  0  0  0
 17 20  1  0  0  0  0
 14 15  1  0  0  0  0
 14 16  1  0  0  0  0
 14 17  1  0  0  0  0
 11 12  1  0  0  0  0
 11 13  1  0  0  0  0
 11 14  1  0  0  0  0
  9 10  1  0  0  0  0
  9 11  1  0  0  0  0
  9 29  1  0  0  0  0
  7  8  1  0  0  0  0
  7  9  1  0  0  0  0
 33 34  1  0  0  0  0
 33 35  1  0  0  0  0
 33 36  1  0  0  0  0
 31 32  1  0  0  0  0
 31 33  1  0  0  0  0
M  CHG  1  20   1
M  END
$$$$
default_name
  -OEChem-01062215323D

 36 35  0     1  0  0  0  0  0999 V2000
   -4.2256   -3.6731    1.8584 H   0  0  0  0  0  0  0  0  0  0  0  0
   -4.2396   -2.6781    1.4144 C   0  0  0  0  0  0  0  0  0  0  0  0
   -4.9506   -2.0521    1.9514 H   0  0  0  0  0  0  0  0  0  0  0  0
   -4.5266   -2.7521    0.3674 H   0  0  0  0  0  0  0  0  0  0  0  0
   -2.8576   -2.0761    1.5184 C   0  0  0  0  0  0  0  0  0  0  0  0
   -1.9456   -2.7051    2.0404 O   0  0  0  0  0  0  0  0  0  0  0  0
   -2.6926   -0.8481    1.0174 N   0  0  0  0  0  0  0  0  0  0  0  0
   -3.4926   -0.3971    0.5954 H   0  0  0  0  0  0  0  0  0  0  0  0
   -1.4216   -0.1071    1.0434 C   0  0  1  0  0  0  0  0  0  0  0  0
   -1.5747    0.8557    0.5533 H   0  0  0  0  0  0  0  0  0  0  0  0
   -1.0317    0.1413    2.5143 C   0  0  0  0  0  0  0  0  0  0  0  0
   -1.0334   -0.8149    3.0415 H   0  0  0  0  0  0  0  0  0  0  0  0
   -0.0183    0.5470    2.5513 H   0  0  0  0  0  0  0  0  0  0  0  0
   -1.9846    1.0975    3.2463 C   0  0  0  0  0  0  0  0  0  0  0  0
   -1.9923    2.0663    2.7448 H   0  0  0  0  0  0  0  0  0  0  0  0
   -2.9918    0.6795    3.2379 H   0  0  0  0  0  0  0  0  0  0  0  0
   -1.5224    1.2864    4.6975 C   0  0  0  0  0  0  0  0  0  0  0  0
   -1.4922    0.3087    5.1839 H   0  0  0  0  0  0  0  0  0  0  0  0
   -0.5143    1.7074    4.6893 H   0  0  0  0  0  0  0  0  0  0  0  0
   -2.4257    2.1825    5.4485 N   0  3  0  0  0  0  0  0  0  0  0  0
   -3.1864    2.5919    4.9336 H   0  0  0  0  0  0  0  0  0  0  0  0
   -2.3284    2.4955    6.7297 C   0  0  0  0  0  0  0  0  0  0  0  0
   -1.3809    2.0213    7.4891 N   0  0  0  0  0  0  0  0  0  0  0  0
   -0.7048    1.3969    7.0860 H   0  0  0  0  0  0  0  0  0  0  0  0
   -1.3212    2.2693    8.4595 H   0  0  0  0  0  0  0  0  0  0  0  0
   -3.1914    3.3020    7.2793 N   0  0  0  0  0  0  0  0  0  0  0  0
   -3.9402    3.6930    6.7340 H   0  0  0  0  0  0  0  0  0  0  0  0
   -3.1139    3.5368    8.2516 H   0  0  0  0  0  0  0  0  0  0  0  0
   -0.3367   -0.8777    0.2882 C   0  0  0  0  0  0  0  0  0  0  0  0
    0.1981   -1.8448    0.8172 O   0  0  0  0  0  0  0  0  0  0  0  0
    0.0039   -0.4229   -0.9217 N   0  0  0  0  0  0  0  0  0  0  0  0
   -0.5136    0.3559   -1.2952 H   0  0  0  0  0  0  0  0  0  0  0  0
    1.0193   -1.0438   -1.7739 C   0  0  0  0  0  0  0  0  0  0  0  0
    0.7010   -2.0501   -2.0545 H   0  0  0  0  0  0  0  0  0  0  0  0
    1.1692   -0.4531   -2.6785 H   0  0  0  0  0  0  0  0  0  0  0  0
    1.9652   -1.1198   -1.2331 H   0  0  0  0  0  0  0  0  0  0  0  0
  5  6  2  0  0  0  0
  5  7  1  0  0  0  0
  2  3  1  0  0  0  0
  2  4  1  0  0  0  0
  2  5  1  0  0  0  0
  1  2  1  0  0  0  0
 29 30  2  0  0  0  0
 29 31  1  0  0  0  0
 26 27  1  0  0  0  0
 26 28  1  0  0  0  0
 23 24  1  0  0  0  0
 23 25  1  0  0  0  0
 22 23  1  0  0  0  0
 22 26  1  0  0  0  0
 20 21  1  0  0  0  0
 20 22  2  0  0  0  0
 17 18  1  0  0  0  0
 17 19  1  0  0  0  0
 17 20  1  0  0  0  0
 14 15  1  0  0  0  0
 14 16  1  0  0  0  0
 14 17  1  0  0  0  0
 11 12  1  0  0  0  0
 11 13  1  0  0  0  0
 11 14  1  0  0  0  0
  9 10  1  0  0  0  0
  9 11  1  0  0  0  0
  9 29  1  0  0  0  0
  7  8  1  0  0  0  0
  7  9  1  0  0  0  0
 33 34  1  0  0  0  0
 33 35  1  0  0  0  0
 33 36  1  0  0  0  0
 31 32  1  0  0  0  0
 31 33  1  0  0  0  0
M  CHG  1  20   1
M  END
$$$$
default_name
  -OEChem-01062215323D

 36 35  0     1  0  0  0  0  0999 V2000
   -4.2256   -3.6731    1.8584 H   0  0  0  0  0  0  0  0  0  0  0  0
   -4.2396   -2.6781    1.4144 C   0  0  0  0  0  0  0  0  0  0  0  0
   -4.9506   -2.0521    1.9514 H   0  0  0  0  0  0  0  0  0  0  0  0
   -4.5266   -2.7521    0.3674 H   0  0  0  0  0  0  0  0  0  0  0  0
   -2.8576   -2.0761    1.5184 C   0  0  0  0  0  0  0  0  0  0  0  0
   -1.9456   -2.7051    2.0404 O   0  0  0  0  0  0  0  0  0  0  0  0
   -2.6926   -0.8481    1.0174 N   0  0  0  0  0  0  0  0  0  0  0  0
   -3.4926   -0.3971    0.5954 H   0  0  0  0  0  0  0  0  0  0  0  0
   -1.4216   -0.1071    1.0434 C   0  0  1  0  0  0  0  0  0  0  0  0
   -1.5747    0.8557    0.5533 H   0  0  0  0  0  0  0  0  0  0  0  0
   -1.0317    0.1413    2.5143 C   0  0  0  0  0  0  0  0  0  0  0  0
   -1.0334   -0.8149    3.0415 H   0  0  0  0  0  0  0  0  0  0  0  0
   -0.0183    0.5470    2.5513 H   0  0  0  0  0  0  0  0  0  0  0  0
   -1.9846    1.0975    3.2463 C   0  0  0  0  0  0  0  0  0  0  0  0
   -1.9923    2.0663    2.7448 H   0  0  0  0  0  0  0  0  0  0  0  0
   -2.9918    0.6795    3.2379 H   0  0  0  0  0  0  0  0  0  0  0  0
   -1.5224    1.2864    4.6975 C   0  0  0  0  0  0  0  0  0  0  0  0
   -1.4922    0.3087    5.1839 H   0  0  0  0  0  0  0  0  0  0  0  0
   -0.5143    1.7074    4.6893 H   0  0  0  0  0  0  0  0  0  0  0  0
   -2.4257    2.1825    5.4485 N   0  3  0  0  0  0  0  0  0  0  0  0
   -3.1864    2.5919    4.9336 H   0  0  0  0  0  0  0  0  0  0  0  0
   -2.3284    2.4955    6.7297 C   0  0  0  0  0  0  0  0  0  0  0  0
   -1.3809    2.0213    7.4891 N   0  0  0  0  0  0  0  0  0  0  0  0
   -0.7048    1.3969    7.0860 H   0  0  0  0  0  0  0  0  0  0  0  0
   -1.3212    2.2693    8.4595 H   0  0  0  0  0  0  0  0  0  0  0  0
   -3.1914    3.3020    7.2793 N   0  0  0  0  0  0  0  0  0  0  0  0
   -3.9402    3.6930    6.7340 H   0  0  0  0  0  0  0  0  0  0  0  0
   -3.1139    3.5368    8.2516 H   0  0  0  0  0  0  0  0  0  0  0  0
   -0.3367   -0.8777    0.2882 C   0  0  0  0  0  0  0  0  0  0  0  0
    0.0020   -1.9876    0.6812 O   0  0  0  0  0  0  0  0  0  0  0  0
    0.2228   -0.2704   -0.7629 N   0  0  0  0  0  0  0  0  0  0  0  0
   -0.1428    0.6264   -1.0385 H   0  0  0  0  0  0  0  0  0  0  0  0
    1.2705   -0.8684   -1.5921 C   0  0  0  0  0  0  0  0  0  0  0  0
    0.8811   -1.7554   -2.0963 H   0  0  0  0  0  0  0  0  0  0  0  0
    1.6148   -0.1554   -2.3423 H   0  0  0  0  0  0  0  0  0  0  0  0
    2.1147   -1.1694   -0.9678 H   0  0  0  0  0  0  0  0  0  0  0  0
  5  6  2  0  0  0  0
  5  7  1  0  0  0  0
  2  3  1  0  0  0  0
  2  4  1  0  0  0  0
  2  5  1  0  0  0  0
  1  2  1  0  0  0  0
 29 30  2  0  0  0  0
 29 31  1  0  0  0  0
 26 27  1  0  0  0  0
 26 28  1  0  0  0  0
 23 24  1  0  0  0  0
 23 25  1  0  0  0  0
 22 23  1  0  0  0  0
 22 26  1  0  0  0  0
 20 21  1  0  0  0  0
 20 22  2  0  0  0  0
 17 18  1  0  0  0  0
 17 19  1  0  0  0  0
 17 20  1  0  0  0  0
 14 15  1  0  0  0  0
 14 16  1  0  0  0  0
 14 17  1  0  0  0  0
 11 12  1  0  0  0  0
 11 13  1  0  0  0  0
 11 14  1  0  0  0  0
  9 10  1  0  0  0  0
  9 11  1  0  0  0  0
  9 29  1  0  0  0  0
  7  8  1  0  0  0  0
  7  9  1  0  0  0  0
 33 34  1  0  0  0  0
 33 35  1  0  0  0  0
 33 36  1  0  0  0  0
 31 32  1  0  0  0  0
 31 33  1  0  0  0  0
M  CHG  1  20   1
M  END
$$$$
default_name
  -OEChem-01062215323D

 36 35  0     1  0  0  0  0  0999 V2000
   -4.2256   -3.6731    1.8584 H   0  0  0  0  0  0  0  0  0  0  0  0
   -4.2396   -2.6781    1.4144 C   0  0  0  0  0  0  0  0  0  0  0  0
   -4.9506   -2.0521    1.9514 H   0  0  0  0  0  0  0  0  0  0  0  0
   -4.5266   -2.7521    0.3674 H   0  0  0  0  0  0  0  0  0  0  0  0
   -2.8576   -2.0761    1.5184 C   0  0  0  0  0  0  0  0  0  0  0  0
   -1.9456   -2.7051    2.0404 O   0  0  0  0  0  0  0  0  0  0  0  0
   -2.6926   -0.8481    1.0174 N   0  0  0  0  0  0  0  0  0  0  0  0
   -3.4926   -0.3971    0.5954 H   0  0  0  0  0  0  0  0  0  0  0  0
   -1.4216   -0.1071    1.0434 C   0  0  1  0  0  0  0  0  0  0  0  0
   -1.5747    0.8557    0.5533 H   0  0  0  0  0  0  0  0  0  0  0  0
   -1.0317    0.1413    2.5143 C   0  0  0  0  0  0  0  0  0  0  0  0
   -1.0334   -0.8149    3.0415 H   0  0  0  0  0  0  0  0  0  0  0  0
   -0.0183    0.5470    2.5513 H   0  0  0  0  0  0  0  0  0  0  0  0
   -1.9846    1.0975    3.2463 C   0  0  0  0  0  0  0  0  0  0  0  0
   -1.9923    2.0663    2.7448 H   0  0  0  0  0  0  0  0  0  0  0  0
   -2.9918    0.6795    3.2379 H   0  0  0  0  0  0  0  0  0  0  0  0
   -1.5224    1.2864    4.6975 C   0  0  0  0  0  0  0  0  0  0  0  0
   -1.4922    0.3087    5.1839 H   0  0  0  0  0  0  0  0  0  0  0  0
   -0.5143    1.7074    4.6893 H   0  0  0  0  0  0  0  0  0  0  0  0
   -2.4257    2.1825    5.4485 N   0  3  0  0  0  0  0  0  0  0  0  0
   -3.1864    2.5919    4.9336 H   0  0  0  0  0  0  0  0  0  0  0  0
   -2.3284    2.4955    6.7297 C   0  0  0  0  0  0  0  0  0  0  0  0
   -1.3809    2.0213    7.4891 N   0  0  0  0  0  0  0  0  0  0  0  0
   -0.7048    1.3969    7.0860 H   0  0  0  0  0  0  0  0  0  0  0  0
   -1.3212    2.2693    8.4595 H   0  0  0  0  0  0  0  0  0  0  0  0
   -3.1914    3.3020    7.2793 N   0  0  0  0  0  0  0  0  0  0  0  0
   -3.9402    3.6930    6.7340 H   0  0  0  0  0  0  0  0  0  0  0  0
   -3.1139    3.5368    8.2516 H   0  0  0  0  0  0  0  0  0  0  0  0
   -0.3367   -0.8777    0.2882 C   0  0  0  0  0  0  0  0  0  0  0  0
   -0.1880   -2.0756    0.4981 O   0  0  0  0  0  0  0  0  0  0  0  0
    0.4331   -0.1801   -0.5530 N   0  0  0  0  0  0  0  0  0  0  0  0
    0.2166    0.7933   -0.6926 H   0  0  0  0  0  0  0  0  0  0  0  0
    1.5119   -0.7644   -1.3515 C   0  0  0  0  0  0  0  0  0  0  0  0
    1.0983   -1.4861   -2.0591 H   0  0  0  0  0  0  0  0  0  0  0  0
    2.0395    0.0136   -1.9047 H   0  0  0  0  0  0  0  0  0  0  0  0
    2.2181   -1.2852   -0.7012 H   0  0  0  0  0  0  0  0  0  0  0  0
  5  6  2  0  0  0  0
  5  7  1  0  0  0  0
  2  3  1  0  0  0  0
  2  4  1  0  0  0  0
  2  5  1  0  0  0  0
  1  2  1  0  0  0  0
 29 30  2  0  0  0  0
 29 31  1  0  0  0  0
 26 27  1  0  0  0  0
 26 28  1  0  0  0  0
 23 24  1  0  0  0  0
 23 25  1  0  0  0  0
 22 23  1  0  0  0  0
 22 26  1  0  0  0  0
 20 21  1  0  0  0  0
 20 22  2  0  0  0  0
 17 18  1  0  0  0  0
 17 19  1  0  0  0  0
 17 20  1  0  0  0  0
 14 15  1  0  0  0  0
 14 16  1  0  0  0  0
 14 17  1  0  0  0  0
 11 12  1  0  0  0  0
 11 13  1  0  0  0  0
 11 14  1  0  0  0  0
  9 10  1  0  0  0  0
  9 11  1  0  0  0  0
  9 29  1  0  0  0  0
  7  8  1  0  0  0  0
  7  9  1  0  0  0  0
 33 34  1  0  0  0  0
 33 35  1  0  0  0  0
 33 36  1  0  0  0  0
 31 32  1  0  0  0  0
 31 33  1  0  0  0  0
M  CHG  1  20   1
M  END
$$$$
default_name
  -OEChem-01062215323D

 36 35  0     1  0  0  0  0  0999 V2000
   -4.2256   -3.6731    1.8584 H   0  0  0  0  0  0  0  0  0  0  0  0
   -4.2396   -2.6781    1.4144 C   0  0  0  0  0  0  0  0  0  0  0  0
   -4.9506   -2.0521    1.9514 H   0  0  0  0  0  0  0  0  0  0  0  0
   -4.5266   -2.7521    0.3674 H   0  0  0  0  0  0  0  0  0  0  0  0
   -2.8576   -2.0761    1.5184 C   0  0  0  0  0  0  0  0  0  0  0  0
   -1.9456   -2.7051    2.0404 O   0  0  0  0  0  0  0  0  0  0  0  0
   -2.6926   -0.8481    1.0174 N   0  0  0  0  0  0  0  0  0  0  0  0
   -3.4926   -0.3971    0.5954 H   0  0  0  0  0  0  0  0  0  0  0  0
   -1.4216   -0.1071    1.0434 C   0  0  1  0  0  0  0  0  0  0  0  0
   -1.5747    0.8557    0.5533 H   0  0  0  0  0  0  0  0  0  0  0  0
   -1.0317    0.1413    2.5143 C   0  0  0  0  0  0  0  0  0  0  0  0
   -1.0334   -0.8149    3.0415 H   0  0  0  0  0  0  0  0  0  0  0  0
   -0.0183    0.5470    2.5513 H   0  0  0  0  0  0  0  0  0  0  0  0
   -1.9846    1.0975    3.2463 C   0  0  0  0  0  0  0  0  0  0  0  0
   -1.9923    2.0663    2.7448 H   0  0  0  0  0  0  0  0  0  0  0  0
   -2.9918    0.6795    3.2379 H   0  0  0  0  0  0  0  0  0  0  0  0
   -1.5224    1.2864    4.6975 C   0  0  0  0  0  0  0  0  0  0  0  0
   -1.4922    0.3087    5.1839 H   0  0  0  0  0  0  0  0  0  0  0  0
   -0.5143    1.7074    4.6893 H   0  0  0  0  0  0  0  0  0  0  0  0
   -2.4257    2.1825    5.4485 N   0  3  0  0  0  0  0  0  0  0  0  0
   -3.1864    2.5919    4.9336 H   0  0  0  0  0  0  0  0  0  0  0  0
   -2.3284    2.4955    6.7297 C   0  0  0  0  0  0  0  0  0  0  0  0
   -1.3809    2.0213    7.4891 N   0  0  0  0  0  0  0  0  0  0  0  0
   -0.7048    1.3969    7.0860 H   0  0  0  0  0  0  0  0  0  0  0  0
   -1.3212    2.2693    8.4595 H   0  0  0  0  0  0  0  0  0  0  0  0
   -3.1914    3.3020    7.2793 N   0  0  0  0  0  0  0  0  0  0  0  0
   -3.9402    3.6930    6.7340 H   0  0  0  0  0  0  0  0  0  0  0  0
   -3.1139    3.5368    8.2516 H   0  0  0  0  0  0  0  0  0  0  0  0
   -0.3367   -0.8777    0.2882 C   0  0  0  0  0  0  0  0  0  0  0  0
   -0.3588   -2.1027    0.2804 O   0  0  0  0  0  0  0  0  0  0  0  0
    0.6204   -0.1583   -0.3062 N   0  0  0  0  0  0  0  0  0  0  0  0
    0.5399    0.8450   -0.2810 H   0  0  0  0  0  0  0  0  0  0  0  0
    1.7269   -0.7389   -1.0686 C   0  0  0  0  0  0  0  0  0  0  0  0
    1.3376   -1.2606   -1.9455 H   0  0  0  0  0  0  0  0  0  0  0  0
    2.4142    0.0423   -1.3957 H   0  0  0  0  0  0  0  0  0  0  0  0
    2.2684   -1.4591   -0.4514 H   0  0  0  0  0  0  0  0  0  0  0  0
  5  6  2  0  0  0  0
  5  7  1  0  0  0  0
  2  3  1  0  0  0  0
  2  4  1  0  0  0  0
  2  5  1  0  0  0  0
  1  2  1  0  0  0  0
 29 30  2  0  0  0  0
 29 31  1  0  0  0  0
 26 27  1  0  0  0  0
 26 28  1  0  0  0  0
 23 24  1  0  0  0  0
 23 25  1  0  0  0  0
 22 23  1  0  0  0  0
 22 26  1  0  0  0  0
 20 21  1  0  0  0  0
 20 22  2  0  0  0  0
 17 18  1  0  0  0  0
 17 19  1  0  0  0  0
 17 20  1  0  0  0  0
 14 15  1  0  0  0  0
 14 16  1  0  0  0  0
 14 17  1  0  0  0  0
 11 12  1  0  0  0  0
 11 13  1  0  0  0  0
 11 14  1  0  0  0  0
  9 10  1  0  0  0  0
  9 11  1  0  0  0  0
  9 29  1  0  0  0  0
  7  8  1  0  0  0  0
  7  9  1  0  0  0  0
 33 34  1  0  0  0  0
 33 35  1  0  0  0  0
 33 36  1  0  0  0  0
 31 32  1  0  0  0  0
 31 33  1  0  0  0  0
M  CHG  1  20   1
M  END
$$$$
default_name
  -OEChem-01062215323D

 36 35  0     1  0  0  0  0  0999 V2000
   -4.2256   -3.6731    1.8584 H   0  0  0  0  0  0  0  0  0  0  0  0
   -4.2396   -2.6781    1.4144 C   0  0  0  0  0  0  0  0  0  0  0  0
   -4.9506   -2.0521    1.9514 H   0  0  0  0  0  0  0  0  0  0  0  0
   -4.5266   -2.7521    0.3674 H   0  0  0  0  0  0  0  0  0  0  0  0
   -2.8576   -2.0761    1.5184 C   0  0  0  0  0  0  0  0  0  0  0  0
   -1.9456   -2.7051    2.0404 O   0  0  0  0  0  0  0  0  0  0  0  0
   -2.6926   -0.8481    1.0174 N   0  0  0  0  0  0  0  0  0  0  0  0
   -3.4926   -0.3971    0.5954 H   0  0  0  0  0  0  0  0  0  0  0  0
   -1.4216   -0.1071    1.0434 C   0  0  1  0  0  0  0  0  0  0  0  0
   -1.5747    0.8557    0.5533 H   0  0  0  0  0  0  0  0  0  0  0  0
   -1.0317    0.1413    2.5143 C   0  0  0  0  0  0  0  0  0  0  0  0
   -1.0334   -0.8149    3.0415 H   0  0  0  0  0  0  0  0  0  0  0  0
   -0.0183    0.5470    2.5513 H   0  0  0  0  0  0  0  0  0  0  0  0
   -1.9846    1.0975    3.2463 C   0  0  0  0  0  0  0  0  0  0  0  0
   -1.9923    2.0663    2.7448 H   0  0  0  0  0  0  0  0  0  0  0  0
   -2.9918    0.6795    3.2379 H   0  0  0  0  0  0  0  0  0  0  0  0
   -1.5224    1.2864    4.6975 C   0  0  0  0  0  0  0  0  0  0  0  0
   -1.4922    0.3087    5.1839 H   0  0  0  0  0  0  0  0  0  0  0  0
   -0.5143    1.7074    4.6893 H   0  0  0  0  0  0  0  0  0  0  0  0
   -2.4257    2.1825    5.4485 N   0  3  0  0  0  0  0  0  0  0  0  0
   -3.1864    2.5919    4.9336 H   0  0  0  0  0  0  0  0  0  0  0  0
   -2.3284    2.4955    6.7297 C   0  0  0  0  0  0  0  0  0  0  0  0
   -1.3809    2.0213    7.4891 N   0  0  0  0  0  0  0  0  0  0  0  0
   -0.7048    1.3969    7.0860 H   0  0  0  0  0  0  0  0  0  0  0  0
   -1.3212    2.2693    8.4595 H   0  0  0  0  0  0  0  0  0  0  0  0
   -3.1914    3.3020    7.2793 N   0  0  0  0  0  0  0  0  0  0  0  0
   -3.9402    3.6930    6.7340 H   0  0  0  0  0  0  0  0  0  0  0  0
   -3.1139    3.5368    8.2516 H   0  0  0  0  0  0  0  0  0  0  0  0
   -0.3367   -0.8777    0.2882 C   0  0  0  0  0  0  0  0  0  0  0  0
   -0.4989   -2.0670    0.0428 O   0  0  0  0  0  0  0  0  0  0  0  0
    0.7719   -0.2065   -0.0395 N   0  0  0  0  0  0  0  0  0  0  0  0
    0.8051    0.7782    0.1682 H   0  0  0  0  0  0  0  0  0  0  0  0
    1.9010   -0.7937   -0.7626 C   0  0  0  0  0  0  0  0  0  0  0  0
    1.5828   -1.0941   -1.7632 H   0  0  0  0  0  0  0  0  0  0  0  0
    2.7135   -0.0713   -0.8499 H   0  0  0  0  0  0  0  0  0  0  0  0
    2.2623   -1.6794   -0.2354 H   0  0  0  0  0  0  0  0  0  0  0  0
  5  6  2  0  0  0  0
  5  7  1  0  0  0  0
  2  3  1  0  0  0  0
  2  4  1  0  0  0  0
  2  5  1  0  0  0  0
  1  2  1  0  0  0  0
 29 30  2  0  0  0  0
 29 31  1  0  0  0  0
 26 27  1  0  0  0  0
 26 28  1  0  0  0  0
 23 24  1  0  0  0  0
 23 25  1  0  0  0  0
 22 23  1  0  0  0  0
 22 26  1  0  0  0  0
 20 21  1  0  0  0  0
 20 22  2  0  0  0  0
 17 18  1  0  0  0  0
 17 19  1  0  0  0  0
 17 20  1  0  0  0  0
 14 15  1  0  0  0  0
 14 16  1  0  0  0  0
 14 17  1  0  0  0  0
 11 12  1  0  0  0  0
 11 13  1  0  0  0  0
 11 14  1  0  0  0  0
  9 10  1  0  0  0  0
  9 11  1  0  0  0  0
  9 29  1  0  0  0  0
  7  8  1  0  0  0  0
  7  9  1  0  0  0  0
 33 34  1  0  0  0  0
 33 35  1  0  0  0  0
 33 36  1  0  0  0  0
 31 32  1  0  0  0  0
 31 33  1  0  0  0  0
M  CHG  1  20   1
M  END
$$$$
default_name
  -OEChem-01062215323D

 36 35  0     1  0  0  0  0  0999 V2000
   -4.2256   -3.6731    1.8584 H   0  0  0  0  0  0  0  0  0  0  0  0
   -4.2396   -2.6781    1.4144 C   0  0  0  0  0  0  0  0  0  0  0  0
   -4.9506   -2.0521    1.9514 H   0  0  0  0  0  0  0  0  0  0  0  0
   -4.5266   -2.7521    0.3674 H   0  0  0  0  0  0  0  0  0  0  0  0
   -2.8576   -2.0761    1.5184 C   0  0  0  0  0  0  0  0  0  0  0  0
   -1.9456   -2.7051    2.0404 O   0  0  0  0  0  0  0  0  0  0  0  0
   -2.6926   -0.8481    1.0174 N   0  0  0  0  0  0  0  0  0  0  0  0
   -3.4926   -0.3971    0.5954 H   0  0  0  0  0  0  0  0  0  0  0  0
   -1.4216   -0.1071    1.0434 C   0  0  1  0  0  0  0  0  0  0  0  0
   -1.6276    0.9377    0.8055 H   0  0  0  0  0  0  0  0  0  0  0  0
   -0.8400   -0.1858    2.4692 C   0  0  0  0  0  0  0  0  0  0  0  0
   -0.7825   -1.2354    2.7646 H   0  0  0  0  0  0  0  0  0  0  0  0
    0.1736    0.2210    2.4642 H   0  0  0  0  0  0  0  0  0  0  0  0
   -1.6792    0.5641    3.5140 C   0  0  0  0  0  0  0  0  0  0  0  0
   -1.7424    1.6201    3.2475 H   0  0  0  0  0  0  0  0  0  0  0  0
   -2.6830    0.1391    3.5431 H   0  0  0  0  0  0  0  0  0  0  0  0
   -1.0291    0.4332    4.8981 C   0  0  0  0  0  0  0  0  0  0  0  0
   -0.9455   -0.6277    5.1451 H   0  0  0  0  0  0  0  0  0  0  0  0
   -0.0265    0.8649    4.8536 H   0  0  0  0  0  0  0  0  0  0  0  0
   -1.8171    1.1213    5.9413 N   0  3  0  0  0  0  0  0  0  0  0  0
   -2.6344    1.6205    5.6344 H   0  0  0  0  0  0  0  0  0  0  0  0
   -1.5498    1.1422    7.2364 C   0  0  0  0  0  0  0  0  0  0  0  0
   -0.5160    0.5289    7.7407 N   0  0  0  0  0  0  0  0  0  0  0  0
    0.0951    0.0235    7.1239 H   0  0  0  0  0  0  0  0  0  0  0  0
   -0.3272    0.5551    8.7259 H   0  0  0  0  0  0  0  0  0  0  0  0
   -2.3251    1.7888    8.0598 N   0  0  0  0  0  0  0  0  0  0  0  0
   -3.1348    2.2771    7.7179 H   0  0  0  0  0  0  0  0  0  0  0  0
   -2.1187    1.8021    9.0415 H   0  0  0  0  0  0  0  0  0  0  0  0
   -0.4528   -0.6684    0.0006 C   0  0  0  0  0  0  0  0  0  0  0  0
   -0.7875   -1.6305   -0.6802 O   0  0  0  0  0  0  0  0  0  0  0  0
    0.7486   -0.0895   -0.0895 N   0  0  0  0  0  0  0  0  0  0  0  0
    0.9257    0.7198    0.4828 H   0  0  0  0  0  0  0  0  0  0  0  0
    1.7881   -0.5030   -1.0336 C   0  0  0  0  0  0  0  0  0  0  0  0
    1.4439   -0.3393   -2.0570 H   0  0  0  0  0  0  0  0  0  0  0  0
    2.7009    0.0711   -0.8693 H   0  0  0  0  0  0  0  0  0  0  0  0
    2.0046   -1.5662   -0.9087 H   0  0  0  0  0  0  0  0  0  0  0  0
  5  6  2  0  0  0  0
  5  7  1  0  0  0  0
  2  3  1  0  0  0  0
  2  4  1  0  0  0  0
  2  5  1  0  0  0  0
  1  2  1  0  0  0  0
 29 30  2  0  0  0  0
 29 31  1  0  0  0  0
 26 27  1  0  0  0  0
 26 28  1  0  0  0  0
 23 24  1  0  0  0  0
 23 25  1  0  0  0  0
 22 23  1  0  0  0  0
 22 26  1  0  0  0  0
 20 21  1  0  0  0  0
 20 22  2  0  0  0  0
 17 18  1  0  0  0  0
 17 19  1  0  0  0  0
 17 20  1  0  0  0  0
 14 15  1  0  0  0  0
 14 16  1  0  0  0  0
 14 17  1  0  0  0  0
 11 12  1  0  0  0  0
 11 13  1  0  0  0  0
 11 14  1  0  0  0  0
  9 10  1  0  0  0  0
  9 11  1  0  0  0  0
  9 29  1  0  0  0  0
  7  8  1  0  0  0  0
  7  9  1  0  0  0  0
 33 34  1  0  0  0  0
 33 35  1  0  0  0  0
 33 36  1  0  0  0  0
 31 32  1  0  0  0  0
 31 33  1  0  0  0  0
M  CHG  1  20   1
M  END
$$$$
default_name
  -OEChem-01062215323D

 36 35  0     1  0  0  0  0  0999 V2000
   -4.2256   -3.6731    1.8584 H   0  0  0  0  0  0  0  0  0  0  0  0
   -4.2396   -2.6781    1.4144 C   0  0  0  0  0  0  0  0  0  0  0  0
   -4.9506   -2.0521    1.9514 H   0  0  0  0  0  0  0  0  0  0  0  0
   -4.5266   -2.7521    0.3674 H   0  0  0  0  0  0  0  0  0  0  0  0
   -2.8576   -2.0761    1.5184 C   0  0  0  0  0  0  0  0  0  0  0  0
   -1.9456   -2.7051    2.0404 O   0  0  0  0  0  0  0  0  0  0  0  0
   -2.6926   -0.8481    1.0174 N   0  0  0  0  0  0  0  0  0  0  0  0
   -3.4926   -0.3971    0.5954 H   0  0  0  0  0  0  0  0  0  0  0  0
   -1.4216   -0.1071    1.0434 C   0  0  1  0  0  0  0  0  0  0  0  0
   -1.6276    0.9377    0.8055 H   0  0  0  0  0  0  0  0  0  0  0  0
   -0.8400   -0.1858    2.4692 C   0  0  0  0  0  0  0  0  0  0  0  0
   -0.7825   -1.2354    2.7646 H   0  0  0  0  0  0  0  0  0  0  0  0
    0.1736    0.2210    2.4642 H   0  0  0  0  0  0  0  0  0  0  0  0
   -1.6792    0.5641    3.5140 C   0  0  0  0  0  0  0  0  0  0  0  0
   -1.7424    1.6201    3.2475 H   0  0  0  0  0  0  0  0  0  0  0  0
   -2.6830    0.1391    3.5431 H   0  0  0  0  0  0  0  0  0  0  0  0
   -1.0291    0.4332    4.8981 C   0  0  0  0  0  0  0  0  0  0  0  0
   -0.9455   -0.6277    5.1451 H   0  0  0  0  0  0  0  0  0  0  0  0
   -0.0265    0.8649    4.8536 H   0  0  0  0  0  0  0  0  0  0  0  0
   -1.8171    1.1213    5.9413 N   0  3  0  0  0  0  0  0  0  0  0  0
   -2.6344    1.6205    5.6344 H   0  0  0  0  0  0  0  0  0  0  0  0
   -1.5498    1.1422    7.2364 C   0  0  0  0  0  0  0  0  0  0  0  0
   -0.5160    0.5289    7.7407 N   0  0  0  0  0  0  0  0  0  0  0  0
    0.0951    0.0235    7.1239 H   0  0  0  0  0  0  0  0  0  0  0  0
   -0.3272    0.5551    8.7259 H   0  0  0  0  0  0  0  0  0  0  0  0
   -2.3251    1.7888    8.0598 N   0  0  0  0  0  0  0  0  0  0  0  0
   -3.1348    2.2771    7.7179 H   0  0  0  0  0  0  0  0  0  0  0  0
   -2.1187    1.8021    9.0415 H   0  0  0  0  0  0  0  0  0  0  0  0
   -0.4528   -0.6684    0.0006 C   0  0  0  0  0  0  0  0  0  0  0  0
   -0.8681   -1.4347   -0.8605 O   0  0  0  0  0  0  0  0  0  0  0  0
    0.8315   -0.3140    0.1083 N   0  0  0  0  0  0  0  0  0  0  0  0
    1.0786    0.3499    0.8239 H   0  0  0  0  0  0  0  0  0  0  0  0
    1.8836   -0.7603   -0.8064 C   0  0  0  0  0  0  0  0  0  0  0  0
    1.6862   -0.3790   -1.8105 H   0  0  0  0  0  0  0  0  0  0  0  0
    2.8565   -0.3968   -0.4729 H   0  0  0  0  0  0  0  0  0  0  0  0
    1.9029   -1.8515   -0.8497 H   0  0  0  0  0  0  0  0  0  0  0  0
  5  6  2  0  0  0  0
  5  7  1  0  0  0  0
  2  3  1  0  0  0  0
  2  4  1  0  0  0  0
  2  5  1  0  0  0  0
  1  2  1  0  0  0  0
 29 30  2  0  0  0  0
 29 31  1  0  0  0  0
 26 27  1  0  0  0  0
 26 28  1  0  0  0  0
 23 24  1  0  0  0  0
 23 25  1  0  0  0  0
 22 23  1  0  0  0  0
 22 26  1  0  0  0  0
 20 21  1  0  0  0  0
 20 22  2  0  0  0  0
 17 18  1  0  0  0  0
 17 19  1  0  0  0  0
 17 20  1  0  0  0  0
 14 15  1  0  0  0  0
 14 16  1  0  0  0  0
 14 17  1  0  0  0  0
 11 12  1  0  0  0  0
 11 13  1  0  0  0  0
 11 14  1  0  0  0  0
  9 10  1  0  0  0  0
  9 11  1  0  0  0  0
  9 29  1  0  0  0  0
  7  8  1  0  0  0  0
  7  9  1  0  0  0  0
 33 34  1  0  0  0  0
 33 35  1  0  0  0  0
 33 36  1  0  0  0  0
 31 32  1  0  0  0  0
 31 33  1  0  0  0  0
M  CHG  1  20   1
M  END
$$$$
default_name
  -OEChem-01062215323D

 36 35  0     1  0  0  0  0  0999 V2000
   -4.2256   -3.6731    1.8584 H   0  0  0  0  0  0  0  0  0  0  0  0
   -4.2396   -2.6781    1.4144 C   0  0  0  0  0  0  0  0  0  0  0  0
   -4.9506   -2.0521    1.9514 H   0  0  0  0  0  0  0  0  0  0  0  0
   -4.5266   -2.7521    0.3674 H   0  0  0  0  0  0  0  0  0  0  0  0
   -2.8576   -2.0761    1.5184 C   0  0  0  0  0  0  0  0  0  0  0  0
   -1.9456   -2.7051    2.0404 O   0  0  0  0  0  0  0  0  0  0  0  0
   -2.6926   -0.8481    1.0174 N   0  0  0  0  0  0  0  0  0  0  0  0
   -3.4926   -0.3971    0.5954 H   0  0  0  0  0  0  0  0  0  0  0  0
   -1.4216   -0.1071    1.0434 C   0  0  1  0  0  0  0  0  0  0  0  0
   -1.6276    0.9377    0.8055 H   0  0  0  0  0  0  0  0  0  0  0  0
   -0.8400   -0.1858    2.4692 C   0  0  0  0  0  0  0  0  0  0  0  0
   -0.7825   -1.2354    2.7646 H   0  0  0  0  0  0  0  0  0  0  0  0
    0.1736    0.2210    2.4642 H   0  0  0  0  0  0  0  0  0  0  0  0
   -1.6792    0.5641    3.5140 C   0  0  0  0  0  0  0  0  0  0  0  0
   -1.7424    1.6201    3.2475 H   0  0  0  0  0  0  0  0  0  0  0  0
   -2.6830    0.1391    3.5431 H   0  0  0  0  0  0  0  0  0  0  0  0
   -1.0291    0.4332    4.8981 C   0  0  0  0  0  0  0  0  0  0  0  0
   -0.9455   -0.6277    5.1451 H   0  0  0  0  0  0  0  0  0  0  0  0
   -0.0265    0.8649    4.8536 H   0  0  0  0  0  0  0  0  0  0  0  0
   -1.8171    1.1213    5.9413 N   0  3  0  0  0  0  0  0  0  0  0  0
   -2.6344    1.6205    5.6344 H   0  0  0  0  0  0  0  0  0  0  0  0
   -1.5498    1.1422    7.2364 C   0  0  0  0  0  0  0  0  0  0  0  0
   -0.5160    0.5289    7.7407 N   0  0  0  0  0  0  0  0  0  0  0  0
    0.0951    0.0235    7.1239 H   0  0  0  0  0  0  0  0  0  0  0  0
   -0.3272    0.5551    8.7259 H   0  0  0  0  0  0  0  0  0  0  0  0
   -2.3251    1.7888    8.0598 N   0  0  0  0  0  0  0  0  0  0  0  0
   -3.1348    2.2771    7.7179 H   0  0  0  0  0  0  0  0  0  0  0  0
   -2.1187    1.8021    9.0415 H   0  0  0  0  0  0  0  0  0  0  0  0
   -0.4528   -0.6684    0.0006 C   0  0  0  0  0  0  0  0  0  0  0  0
   -0.8943   -1.2018   -1.0102 O   0  0  0  0  0  0  0  0  0  0  0  0
    0.8532   -0.5780    0.2705 N   0  0  0  0  0  0  0  0  0  0  0  0
    1.1287   -0.0903    1.1073 H   0  0  0  0  0  0  0  0  0  0  0  0
    1.9089   -1.0629   -0.6200 C   0  0  0  0  0  0  0  0  0  0  0  0
    1.8899   -0.5005   -1.5559 H   0  0  0  0  0  0  0  0  0  0  0  0
    2.8866   -0.9413   -0.1519 H   0  0  0  0  0  0  0  0  0  0  0  0
    1.7487   -2.1187   -0.8491 H   0  0  0  0  0  0  0  0  0  0  0  0
  5  6  2  0  0  0  0
  5  7  1  0  0  0  0
  2  3  1  0  0  0  0
  2  4  1  0  0  0  0
  2  5  1  0  0  0  0
  1  2  1  0  0  0  0
 29 30  2  0  0  0  0
 29 31  1  0  0  0  0
 26 27  1  0  0  0  0
 26 28  1  0  0  0  0
 23 24  1  0  0  0  0
 23 25  1  0  0  0  0
 22 23  1  0  0  0  0
 22 26  1  0  0  0  0
 20 21  1  0  0  0  0
 20 22  2  0  0  0  0
 17 18  1  0  0  0  0
 17 19  1  0  0  0  0
 17 20  1  0  0  0  0
 14 15  1  0  0  0  0
 14 16  1  0  0  0  0
 14 17  1  0  0  0  0
 11 12  1  0  0  0  0
 11 13  1  0  0  0  0
 11 14  1  0  0  0  0
  9 10  1  0  0  0  0
  9 11  1  0  0  0  0
  9 29  1  0  0  0  0
  7  8  1  0  0  0  0
  7  9  1  0  0  0  0
 33 34  1  0  0  0  0
 33 35  1  0  0  0  0
 33 36  1  0  0  0  0
 31 32  1  0  0  0  0
 31 33  1  0  0  0  0
M  CHG  1  20   1
M  END
$$$$
default_name
  -OEChem-01062215323D

 36 35  0     1  0  0  0  0  0999 V2000
   -4.2256   -3.6731    1.8584 H   0  0  0  0  0  0  0  0  0  0  0  0
   -4.2396   -2.6781    1.4144 C   0  0  0  0  0  0  0  0  0  0  0  0
   -4.9506   -2.0521    1.9514 H   0  0  0  0  0  0  0  0  0  0  0  0
   -4.5266   -2.7521    0.3674 H   0  0  0  0  0  0  0  0  0  0  0  0
   -2.8576   -2.0761    1.5184 C   0  0  0  0  0  0  0  0  0  0  0  0
   -1.9456   -2.7051    2.0404 O   0  0  0  0  0  0  0  0  0  0  0  0
   -2.6926   -0.8481    1.0174 N   0  0  0  0  0  0  0  0  0  0  0  0
   -3.4926   -0.3971    0.5954 H   0  0  0  0  0  0  0  0  0  0  0  0
   -1.4216   -0.1071    1.0434 C   0  0  1  0  0  0  0  0  0  0  0  0
   -1.6276    0.9377    0.8055 H   0  0  0  0  0  0  0  0  0  0  0  0
   -0.8400   -0.1858    2.4692 C   0  0  0  0  0  0  0  0  0  0  0  0
   -0.7825   -1.2354    2.7646 H   0  0  0  0  0  0  0  0  0  0  0  0
    0.1736    0.2210    2.4642 H   0  0  0  0  0  0  0  0  0  0  0  0
   -1.6792    0.5641    3.5140 C   0  0  0  0  0  0  0  0  0  0  0  0
   -1.7424    1.6201    3.2475 H   0  0  0  0  0  0  0  0  0  0  0  0
   -2.6830    0.1391    3.5431 H   0  0  0  0  0  0  0  0  0  0  0  0
   -1.0291    0.4332    4.8981 C   0  0  0  0  0  0  0  0  0  0  0  0
   -0.9455   -0.6277    5.1451 H   0  0  0  0  0  0  0  0  0  0  0  0
   -0.0265    0.8649    4.8536 H   0  0  0  0  0  0  0  0  0  0  0  0
   -1.8171    1.1213    5.9413 N   0  3  0  0  0  0  0  0  0  0  0  0
   -2.6344    1.6205    5.6344 H   0  0  0  0  0  0  0  0  0  0  0  0
   -1.5498    1.1422    7.2364 C   0  0  0  0  0  0  0  0  0  0  0  0
   -0.5160    0.5289    7.7407 N   0  0  0  0  0  0  0  0  0  0  0  0
    0.0951    0.0235    7.1239 H   0  0  0  0  0  0  0  0  0  0  0  0
   -0.3272    0.5551    8.7259 H   0  0  0  0  0  0  0  0  0  0  0  0
   -2.3251    1.7888    8.0598 N   0  0  0  0  0  0  0  0  0  0  0  0
   -3.1348    2.2771    7.7179 H   0  0  0  0  0  0  0  0  0  0  0  0
   -2.1187    1.8021    9.0415 H   0  0  0  0  0  0  0  0  0  0  0  0
   -0.4528   -0.6684    0.0006 C   0  0  0  0  0  0  0  0  0  0  0  0
   -0.8643   -0.9477   -1.1192 O   0  0  0  0  0  0  0  0  0  0  0  0
    0.8122   -0.8633    0.3860 N   0  0  0  0  0  0  0  0  0  0  0  0
    1.0724   -0.5708    1.3137 H   0  0  0  0  0  0  0  0  0  0  0  0
    1.8623   -1.3902   -0.4872 C   0  0  0  0  0  0  0  0  0  0  0  0
    2.0411   -0.6954   -1.3106 H   0  0  0  0  0  0  0  0  0  0  0  0
    2.7892   -1.5251    0.0718 H   0  0  0  0  0  0  0  0  0  0  0  0
    1.5525   -2.3497   -0.9069 H   0  0  0  0  0  0  0  0  0  0  0  0
  5  6  2  0  0  0  0
  5  7  1  0  0  0  0
  2  3  1  0  0  0  0
  2  4  1  0  0  0  0
  2  5  1  0  0  0  0
  1  2  1  0  0  0  0
 29 30  2  0  0  0  0
 29 31  1  0  0  0  0
 26 27  1  0  0  0  0
 26 28  1  0  0  0  0
 23 24  1  0  0  0  0
 23 25  1  0  0  0  0
 22 23  1  0  0  0  0
 22 26  1  0  0  0  0
 20 21  1  0  0  0  0
 20 22  2  0  0  0  0
 17 18  1  0  0  0  0
 17 19  1  0  0  0  0
 17 20  1  0  0  0  0
 14 15  1  0  0  0  0
 14 16  1  0  0  0  0
 14 17  1  0  0  0  0
 11 12  1  0  0  0  0
 11 13  1  0  0  0  0
 11 14  1  0  0  0  0
  9 10  1  0  0  0  0
  9 11  1  0  0  0  0
  9 29  1  0  0  0  0
  7  8  1  0  0  0  0
  7  9  1  0  0  0  0
 33 34  1  0  0  0  0
 33 35  1  0  0  0  0
 33 36  1  0  0  0  0
 31 32  1  0  0  0  0
 31 33  1  0  0  0  0
M  CHG  1  20   1
M  END
$$$$
default_name
  -OEChem-01062215323D

 36 35  0     1  0  0  0  0  0999 V2000
   -4.2256   -3.6731    1.8584 H   0  0  0  0  0  0  0  0  0  0  0  0
   -4.2396   -2.6781    1.4144 C   0  0  0  0  0  0  0  0  0  0  0  0
   -4.9506   -2.0521    1.9514 H   0  0  0  0  0  0  0  0  0  0  0  0
   -4.5266   -2.7521    0.3674 H   0  0  0  0  0  0  0  0  0  0  0  0
   -2.8576   -2.0761    1.5184 C   0  0  0  0  0  0  0  0  0  0  0  0
   -1.9456   -2.7051    2.0404 O   0  0  0  0  0  0  0  0  0  0  0  0
   -2.6926   -0.8481    1.0174 N   0  0  0  0  0  0  0  0  0  0  0  0
   -3.4926   -0.3971    0.5954 H   0  0  0  0  0  0  0  0  0  0  0  0
   -1.4216   -0.1071    1.0434 C   0  0  1  0  0  0  0  0  0  0  0  0
   -1.6276    0.9377    0.8055 H   0  0  0  0  0  0  0  0  0  0  0  0
   -0.8400   -0.1858    2.4692 C   0  0  0  0  0  0  0  0  0  0  0  0
   -0.7825   -1.2354    2.7646 H   0  0  0  0  0  0  0  0  0  0  0  0
    0.1736    0.2210    2.4642 H   0  0  0  0  0  0  0  0  0  0  0  0
   -1.6792    0.5641    3.5140 C   0  0  0  0  0  0  0  0  0  0  0  0
   -1.7424    1.6201    3.2475 H   0  0  0  0  0  0  0  0  0  0  0  0
   -2.6830    0.1391    3.5431 H   0  0  0  0  0  0  0  0  0  0  0  0
   -1.0291    0.4332    4.8981 C   0  0  0  0  0  0  0  0  0  0  0  0
   -0.9455   -0.6277    5.1451 H   0  0  0  0  0  0  0  0  0  0  0  0
   -0.0265    0.8649    4.8536 H   0  0  0  0  0  0  0  0  0  0  0  0
   -1.8171    1.1213    5.9413 N   0  3  0  0  0  0  0  0  0  0  0  0
   -2.6344    1.6205    5.6344 H   0  0  0  0  0  0  0  0  0  0  0  0
   -1.5498    1.1422    7.2364 C   0  0  0  0  0  0  0  0  0  0  0  0
   -0.5160    0.5289    7.7407 N   0  0  0  0  0  0  0  0  0  0  0  0
    0.0951    0.0235    7.1239 H   0  0  0  0  0  0  0  0  0  0  0  0
   -0.3272    0.5551    8.7259 H   0  0  0  0  0  0  0  0  0  0  0  0
   -2.3251    1.7888    8.0598 N   0  0  0  0  0  0  0  0  0  0  0  0
   -3.1348    2.2771    7.7179 H   0  0  0  0  0  0  0  0  0  0  0  0
   -2.1187    1.8021    9.0415 H   0  0  0  0  0  0  0  0  0  0  0  0
   -0.4528   -0.6684    0.0006 C   0  0  0  0  0  0  0  0  0  0  0  0
   -0.7802   -0.6896   -1.1799 O   0  0  0  0  0  0  0  0  0  0  0  0
    0.7113   -1.1506    0.4469 N   0  0  0  0  0  0  0  0  0  0  0  0
    0.9137   -1.0588    1.4289 H   0  0  0  0  0  0  0  0  0  0  0  0
    1.7469   -1.7199   -0.4169 C   0  0  0  0  0  0  0  0  0  0  0  0
    2.1294   -0.9506   -1.0912 H   0  0  0  0  0  0  0  0  0  0  0  0
    2.5709   -2.1084    0.1830 H   0  0  0  0  0  0  0  0  0  0  0  0
    1.3278   -2.5288   -1.0193 H   0  0  0  0  0  0  0  0  0  0  0  0
  5  6  2  0  0  0  0
  5  7  1  0  0  0  0
  2  3  1  0  0  0  0
  2  4  1  0  0  0  0
  2  5  1  0  0  0  0
  1  2  1  0  0  0  0
 29 30  2  0  0  0  0
 29 31  1  0  0  0  0
 26 27  1  0  0  0  0
 26 28  1  0  0  0  0
 23 24  1  0  0  0  0
 23 25  1  0  0  0  0
 22 23  1  0  0  0  0
 22 26  1  0  0  0  0
 20 21  1  0  0  0  0
 20 22  2  0  0  0  0
 17 18  1  0  0  0  0
 17 19  1  0  0  0  0
 17 20  1  0  0  0  0
 14 15  1  0  0  0  0
 14 16  1  0  0  0  0
 14 17  1  0  0  0  0
 11 12  1  0  0  0  0
 11 13  1  0  0  0  0
 11 14  1  0  0  0  0
  9 10  1  0  0  0  0
  9 11  1  0  0  0  0
  9 29  1  0  0  0  0
  7  8  1  0  0  0  0
  7  9  1  0  0  0  0
 33 34  1  0  0  0  0
 33 35  1  0  0  0  0
 33 36  1  0  0  0  0
 31 32  1  0  0  0  0
 31 33  1  0  0  0  0
M  CHG  1  20   1
M  END
$$$$
default_name
  -OEChem-01062215323D

 36 35  0     1  0  0  0  0  0999 V2000
   -4.2256   -3.6731    1.8584 H   0  0  0  0  0  0  0  0  0  0  0  0
   -4.2396   -2.6781    1.4144 C   0  0  0  0  0  0  0  0  0  0  0  0
   -4.9506   -2.0521    1.9514 H   0  0  0  0  0  0  0  0  0  0  0  0
   -4.5266   -2.7521    0.3674 H   0  0  0  0  0  0  0  0  0  0  0  0
   -2.8576   -2.0761    1.5184 C   0  0  0  0  0  0  0  0  0  0  0  0
   -1.9456   -2.7051    2.0404 O   0  0  0  0  0  0  0  0  0  0  0  0
   -2.6926   -0.8481    1.0174 N   0  0  0  0  0  0  0  0  0  0  0  0
   -3.4926   -0.3971    0.5954 H   0  0  0  0  0  0  0  0  0  0  0  0
   -1.4216   -0.1071    1.0434 C   0  0  1  0  0  0  0  0  0  0  0  0
   -1.6276    0.9377    0.8055 H   0  0  0  0  0  0  0  0  0  0  0  0
   -0.8400   -0.1858    2.4692 C   0  0  0  0  0  0  0  0  0  0  0  0
   -0.7825   -1.2354    2.7646 H   0  0  0  0  0  0  0  0  0  0  0  0
    0.1736    0.2210    2.4642 H   0  0  0  0  0  0  0  0  0  0  0  0
   -1.6792    0.5641    3.5140 C   0  0  0  0  0  0  0  0  0  0  0  0
   -1.7424    1.6201    3.2475 H   0  0  0  0  0  0  0  0  0  0  0  0
   -2.6830    0.1391    3.5431 H   0  0  0  0  0  0  0  0  0  0  0  0
   -1.0291    0.4332    4.8981 C   0  0  0  0  0  0  0  0  0  0  0  0
   -0.9455   -0.6277    5.1451 H   0  0  0  0  0  0  0  0  0  0  0  0
   -0.0265    0.8649    4.8536 H   0  0  0  0  0  0  0  0  0  0  0  0
   -1.8171    1.1213    5.9413 N   0  3  0  0  0  0  0  0  0  0  0  0
   -2.6344    1.6205    5.6344 H   0  0  0  0  0  0  0  0  0  0  0  0
   -1.5498    1.1422    7.2364 C   0  0  0  0  0  0  0  0  0  0  0  0
   -0.5160    0.5289    7.7407 N   0  0  0  0  0  0  0  0  0  0  0  0
    0.0951    0.0235    7.1239 H   0  0  0  0  0  0  0  0  0  0  0  0
   -0.3272    0.5551    8.7259 H   0  0  0  0  0  0  0  0  0  0  0  0
   -2.3251    1.7888    8.0598 N   0  0  0  0  0  0  0  0  0  0  0  0
   -3.1348    2.2771    7.7179 H   0  0  0  0  0  0  0  0  0  0  0  0
   -2.1187    1.8021    9.0415 H   0  0  0  0  0  0  0  0  0  0  0  0
   -0.4528   -0.6684    0.0006 C   0  0  0  0  0  0  0  0  0  0  0  0
   -0.6476   -0.4453   -1.1883 O   0  0  0  0  0  0  0  0  0  0  0  0
    0.5573   -1.4203    0.4490 N   0  0  0  0  0  0  0  0  0  0  0  0
    0.6634   -1.5211    1.4452 H   0  0  0  0  0  0  0  0  0  0  0  0
    1.5706   -2.0295   -0.4141 C   0  0  0  0  0  0  0  0  0  0  0  0
    2.1488   -1.2486   -0.9127 H   0  0  0  0  0  0  0  0  0  0  0  0
    2.2465   -2.6516    0.1740 H   0  0  0  0  0  0  0  0  0  0  0  0
    1.0898   -2.6437   -1.1785 H   0  0  0  0  0  0  0  0  0  0  0  0
  5  6  2  0  0  0  0
  5  7  1  0  0  0  0
  2  3  1  0  0  0  0
  2  4  1  0  0  0  0
  2  5  1  0  0  0  0
  1  2  1  0  0  0  0
 29 30  2  0  0  0  0
 29 31  1  0  0  0  0
 26 27  1  0  0  0  0
 26 28  1  0  0  0  0
 23 24  1  0  0  0  0
 23 25  1  0  0  0  0
 22 23  1  0  0  0  0
 22 26  1  0  0  0  0
 20 21  1  0  0  0  0
 20 22  2  0  0  0  0
 17 18  1  0  0  0  0
 17 19  1  0  0  0  0
 17 20  1  0  0  0  0
 14 15  1  0  0  0  0
 14 16  1  0  0  0  0
 14 17  1  0  0  0  0
 11 12  1  0  0  0  0
 11 13  1  0  0  0  0
 11 14  1  0  0  0  0
  9 10  1  0  0  0  0
  9 11  1  0  0  0  0
  9 29  1  0  0  0  0
  7  8  1  0  0  0  0
  7  9  1  0  0  0  0
 33 34  1  0  0  0  0
 33 35  1  0  0  0  0
 33 36  1  0  0  0  0
 31 32  1  0  0  0  0
 31 33  1  0  0  0  0
M  CHG  1  20   1
M  END
$$$$
default_name
  -OEChem-01062215323D

 36 35  0     1  0  0  0  0  0999 V2000
   -4.2256   -3.6731    1.8584 H   0  0  0  0  0  0  0  0  0  0  0  0
   -4.2396   -2.6781    1.4144 C   0  0  0  0  0  0  0  0  0  0  0  0
   -4.9506   -2.0521    1.9514 H   0  0  0  0  0  0  0  0  0  0  0  0
   -4.5266   -2.7521    0.3674 H   0  0  0  0  0  0  0  0  0  0  0  0
   -2.8576   -2.0761    1.5184 C   0  0  0  0  0  0  0  0  0  0  0  0
   -1.9456   -2.7051    2.0404 O   0  0  0  0  0  0  0  0  0  0  0  0
   -2.6926   -0.8481    1.0174 N   0  0  0  0  0  0  0  0  0  0  0  0
   -3.4926   -0.3971    0.5954 H   0  0  0  0  0  0  0  0  0  0  0  0
   -1.4216   -0.1071    1.0434 C   0  0  1  0  0  0  0  0  0  0  0  0
   -1.6276    0.9377    0.8055 H   0  0  0  0  0  0  0  0  0  0  0  0
   -0.8400   -0.1858    2.4692 C   0  0  0  0  0  0  0  0  0  0  0  0
   -0.7825   -1.2354    2.7646 H   0  0  0  0  0  0  0  0  0  0  0  0
    0.1736    0.2210    2.4642 H   0  0  0  0  0  0  0  0  0  0  0  0
   -1.6792    0.5641    3.5140 C   0  0  0  0  0  0  0  0  0  0  0  0
   -1.7424    1.6201    3.2475 H   0  0  0  0  0  0  0  0  0  0  0  0
   -2.6830    0.1391    3.5431 H   0  0  0  0  0  0  0  0  0  0  0  0
   -1.0291    0.4332    4.8981 C   0  0  0  0  0  0  0  0  0  0  0  0
   -0.9455   -0.6277    5.1451 H   0  0  0  0  0  0  0  0  0  0  0  0
   -0.0265    0.8649    4.8536 H   0  0  0  0  0  0  0  0  0  0  0  0
   -1.8171    1.1213    5.9413 N   0  3  0  0  0  0  0  0  0  0  0  0
   -2.6344    1.6205    5.6344 H   0  0  0  0  0  0  0  0  0  0  0  0
   -1.5498    1.1422    7.2364 C   0  0  0  0  0  0  0  0  0  0  0  0
   -0.5160    0.5289    7.7407 N   0  0  0  0  0  0  0  0  0  0  0  0
    0.0951    0.0235    7.1239 H   0  0  0  0  0  0  0  0  0  0  0  0
   -0.3272    0.5551    8.7259 H   0  0  0  0  0  0  0  0  0  0  0  0
   -2.3251    1.7888    8.0598 N   0  0  0  0  0  0  0  0  0  0  0  0
   -3.1348    2.2771    7.7179 H   0  0  0  0  0  0  0  0  0  0  0  0
   -2.1187    1.8021    9.0415 H   0  0  0  0  0  0  0  0  0  0  0  0
   -0.4528   -0.6684    0.0006 C   0  0  0  0  0  0  0  0  0  0  0  0
   -0.4757   -0.2313   -1.1437 O   0  0  0  0  0  0  0  0  0  0  0  0
    0.3609   -1.6539    0.3923 N   0  0  0  0  0  0  0  0  0  0  0  0
    0.3386   -1.9261    1.3615 H   0  0  0  0  0  0  0  0  0  0  0  0
    1.3455   -2.2979   -0.4787 C   0  0  0  0  0  0  0  0  0  0  0  0
    2.0981   -1.5692   -0.7873 H   0  0  0  0  0  0  0  0  0  0  0  0
    1.8382   -3.1176    0.0456 H   0  0  0  0  0  0  0  0  0  0  0  0
    0.8548   -2.6867   -1.3737 H   0  0  0  0  0  0  0  0  0  0  0  0
  5  6  2  0  0  0  0
  5  7  1  0  0  0  0
  2  3  1  0  0  0  0
  2  4  1  0  0  0  0
  2  5  1  0  0  0  0
  1  2  1  0  0  0  0
 29 30  2  0  0  0  0
 29 31  1  0  0  0  0
 26 27  1  0  0  0  0
 26 28  1  0  0  0  0
 23 24  1  0  0  0  0
 23 25  1  0  0  0  0
 22 23  1  0  0  0  0
 22 26  1  0  0  0  0
 20 21  1  0  0  0  0
 20 22  2  0  0  0  0
 17 18  1  0  0  0  0
 17 19  1  0  0  0  0
 17 20  1  0  0  0  0
 14 15  1  0  0  0  0
 14 16  1  0  0  0  0
 14 17  1  0  0  0  0
 11 12  1  0  0  0  0
 11 13  1  0  0  0  0
 11 14  1  0  0  0  0
  9 10  1  0  0  0  0
  9 11  1  0  0  0  0
  9 29  1  0  0  0  0
  7  8  1  0  0  0  0
  7  9  1  0  0  0  0
 33 34  1  0  0  0  0
 33 35  1  0  0  0  0
 33 36  1  0  0  0  0
 31 32  1  0  0  0  0
 31 33  1  0  0  0  0
M  CHG  1  20   1
M  END
$$$$
default_name
  -OEChem-01062215323D

 36 35  0     1  0  0  0  0  0999 V2000
   -4.2256   -3.6731    1.8584 H   0  0  0  0  0  0  0  0  0  0  0  0
   -4.2396   -2.6781    1.4144 C   0  0  0  0  0  0  0  0  0  0  0  0
   -4.9506   -2.0521    1.9514 H   0  0  0  0  0  0  0  0  0  0  0  0
   -4.5266   -2.7521    0.3674 H   0  0  0  0  0  0  0  0  0  0  0  0
   -2.8576   -2.0761    1.5184 C   0  0  0  0  0  0  0  0  0  0  0  0
   -1.9456   -2.7051    2.0404 O   0  0  0  0  0  0  0  0  0  0  0  0
   -2.6926   -0.8481    1.0174 N   0  0  0  0  0  0  0  0  0  0  0  0
   -3.4926   -0.3971    0.5954 H   0  0  0  0  0  0  0  0  0  0  0  0
   -1.4216   -0.1071    1.0434 C   0  0  1  0  0  0  0  0  0  0  0  0
   -1.6276    0.9377    0.8055 H   0  0  0  0  0  0  0  0  0  0  0  0
   -0.8400   -0.1858    2.4692 C   0  0  0  0  0  0  0  0  0  0  0  0
   -0.7825   -1.2354    2.7646 H   0  0  0  0  0  0  0  0  0  0  0  0
    0.1736    0.2210    2.4642 H   0  0  0  0  0  0  0  0  0  0  0  0
   -1.6792    0.5641    3.5140 C   0  0  0  0  0  0  0  0  0  0  0  0
   -1.7424    1.6201    3.2475 H   0  0  0  0  0  0  0  0  0  0  0  0
   -2.6830    0.1391    3.5431 H   0  0  0  0  0  0  0  0  0  0  0  0
   -1.0291    0.4332    4.8981 C   0  0  0  0  0  0  0  0  0  0  0  0
   -0.9455   -0.6277    5.1451 H   0  0  0  0  0  0  0  0  0  0  0  0
   -0.0265    0.8649    4.8536 H   0  0  0  0  0  0  0  0  0  0  0  0
   -1.8171    1.1213    5.9413 N   0  3  0  0  0  0  0  0  0  0  0  0
   -2.6344    1.6205    5.6344 H   0  0  0  0  0  0  0  0  0  0  0  0
   -1.5498    1.1422    7.2364 C   0  0  0  0  0  0  0  0  0  0  0  0
   -0.5160    0.5289    7.7407 N   0  0  0  0  0  0  0  0  0  0  0  0
    0.0951    0.0235    7.1239 H   0  0  0  0  0  0  0  0  0  0  0  0
   -0.3272    0.5551    8.7259 H   0  0  0  0  0  0  0  0  0  0  0  0
   -2.3251    1.7888    8.0598 N   0  0  0  0  0  0  0  0  0  0  0  0
   -3.1348    2.2771    7.7179 H   0  0  0  0  0  0  0  0  0  0  0  0
   -2.1187    1.8021    9.0415 H   0  0  0  0  0  0  0  0  0  0  0  0
   -0.4528   -0.6684    0.0006 C   0  0  0  0  0  0  0  0  0  0  0  0
   -0.2761   -0.0622   -1.0493 O   0  0  0  0  0  0  0  0  0  0  0  0
    0.1352   -1.8357    0.2806 N   0  0  0  0  0  0  0  0  0  0  0  0
   -0.0387   -2.2463    1.1833 H   0  0  0  0  0  0  0  0  0  0  0  0
    1.0868   -2.5068   -0.6066 C   0  0  0  0  0  0  0  0  0  0  0  0
    1.9806   -1.8904   -0.7235 H   0  0  0  0  0  0  0  0  0  0  0  0
    1.3738   -3.4747   -0.1936 H   0  0  0  0  0  0  0  0  0  0  0  0
    0.6388   -2.6547   -1.5916 H   0  0  0  0  0  0  0  0  0  0  0  0
  5  6  2  0  0  0  0
  5  7  1  0  0  0  0
  2  3  1  0  0  0  0
  2  4  1  0  0  0  0
  2  5  1  0  0  0  0
  1  2  1  0  0  0  0
 29 30  2  0  0  0  0
 29 31  1  0  0  0  0
 26 27  1  0  0  0  0
 26 28  1  0  0  0  0
 23 24  1  0  0  0  0
 23 25  1  0  0  0  0
 22 23  1  0  0  0  0
 22 26  1  0  0  0  0
 20 21  1  0  0  0  0
 20 22  2  0  0  0  0
 17 18  1  0  0  0  0
 17 19  1  0  0  0  0
 17 20  1  0  0  0  0
 14 15  1  0  0  0  0
 14 16  1  0  0  0  0
 14 17  1  0  0  0  0
 11 12  1  0  0  0  0
 11 13  1  0  0  0  0
 11 14  1  0  0  0  0
  9 10  1  0  0  0  0
  9 11  1  0  0  0  0
  9 29  1  0  0  0  0
  7  8  1  0  0  0  0
  7  9  1  0  0  0  0
 33 34  1  0  0  0  0
 33 35  1  0  0  0  0
 33 36  1  0  0  0  0
 31 32  1  0  0  0  0
 31 33  1  0  0  0  0
M  CHG  1  20   1
M  END
$$$$
default_name
  -OEChem-01062215323D

 36 35  0     1  0  0  0  0  0999 V2000
   -4.2256   -3.6731    1.8584 H   0  0  0  0  0  0  0  0  0  0  0  0
   -4.2396   -2.6781    1.4144 C   0  0  0  0  0  0  0  0  0  0  0  0
   -4.9506   -2.0521    1.9514 H   0  0  0  0  0  0  0  0  0  0  0  0
   -4.5266   -2.7521    0.3674 H   0  0  0  0  0  0  0  0  0  0  0  0
   -2.8576   -2.0761    1.5184 C   0  0  0  0  0  0  0  0  0  0  0  0
   -1.9456   -2.7051    2.0404 O   0  0  0  0  0  0  0  0  0  0  0  0
   -2.6926   -0.8481    1.0174 N   0  0  0  0  0  0  0  0  0  0  0  0
   -3.4926   -0.3971    0.5954 H   0  0  0  0  0  0  0  0  0  0  0  0
   -1.4216   -0.1071    1.0434 C   0  0  1  0  0  0  0  0  0  0  0  0
   -1.6276    0.9377    0.8055 H   0  0  0  0  0  0  0  0  0  0  0  0
   -0.8400   -0.1858    2.4692 C   0  0  0  0  0  0  0  0  0  0  0  0
   -0.7825   -1.2354    2.7646 H   0  0  0  0  0  0  0  0  0  0  0  0
    0.1736    0.2210    2.4642 H   0  0  0  0  0  0  0  0  0  0  0  0
   -1.6792    0.5641    3.5140 C   0  0  0  0  0  0  0  0  0  0  0  0
   -1.7424    1.6201    3.2475 H   0  0  0  0  0  0  0  0  0  0  0  0
   -2.6830    0.1391    3.5431 H   0  0  0  0  0  0  0  0  0  0  0  0
   -1.0291    0.4332    4.8981 C   0  0  0  0  0  0  0  0  0  0  0  0
   -0.9455   -0.6277    5.1451 H   0  0  0  0  0  0  0  0  0  0  0  0
   -0.0265    0.8649    4.8536 H   0  0  0  0  0  0  0  0  0  0  0  0
   -1.8171    1.1213    5.9413 N   0  3  0  0  0  0  0  0  0  0  0  0
   -2.6344    1.6205    5.6344 H   0  0  0  0  0  0  0  0  0  0  0  0
   -1.5498    1.1422    7.2364 C   0  0  0  0  0  0  0  0  0  0  0  0
   -0.5160    0.5289    7.7407 N   0  0  0  0  0  0  0  0  0  0  0  0
    0.0951    0.0235    7.1239 H   0  0  0  0  0  0  0  0  0  0  0  0
   -0.3272    0.5551    8.7259 H   0  0  0  0  0  0  0  0  0  0  0  0
   -2.3251    1.7888    8.0598 N   0  0  0  0  0  0  0  0  0  0  0  0
   -3.1348    2.2771    7.7179 H   0  0  0  0  0  0  0  0  0  0  0  0
   -2.1187    1.8021    9.0415 H   0  0  0  0  0  0  0  0  0  0  0  0
   -0.4528   -0.6684    0.0006 C   0  0  0  0  0  0  0  0  0  0  0  0
   -0.0624    0.0505   -0.9115 O   0  0  0  0  0  0  0  0  0  0  0  0
   -0.1041   -1.9532    0.1214 N   0  0  0  0  0  0  0  0  0  0  0  0
   -0.4427   -2.4599    0.9230 H   0  0  0  0  0  0  0  0  0  0  0  0
    0.8122   -2.6421   -0.7889 C   0  0  0  0  0  0  0  0  0  0  0  0
    1.8045   -2.1904   -0.7257 H   0  0  0  0  0  0  0  0  0  0  0  0
    0.8850   -3.6985   -0.5273 H   0  0  0  0  0  0  0  0  0  0  0  0
    0.4564   -2.5500   -1.8174 H   0  0  0  0  0  0  0  0  0  0  0  0
  5  6  2  0  0  0  0
  5  7  1  0  0  0  0
  2  3  1  0  0  0  0
  2  4  1  0  0  0  0
  2  5  1  0  0  0  0
  1  2  1  0  0  0  0
 29 30  2  0  0  0  0
 29 31  1  0  0  0  0
 26 27  1  0  0  0  0
 26 28  1  0  0  0  0
 23 24  1  0  0  0  0
 23 25  1  0  0  0  0
 22 23  1  0  0  0  0
 22 26  1  0  0  0  0
 20 21  1  0  0  0  0
 20 22  2  0  0  0  0
 17 18  1  0  0  0  0
 17 19  1  0  0  0  0
 17 20  1  0  0  0  0
 14 15  1  0  0  0  0
 14 16  1  0  0  0  0
 14 17  1  0  0  0  0
 11 12  1  0  0  0  0
 11 13  1  0  0  0  0
 11 14  1  0  0  0  0
  9 10  1  0  0  0  0
  9 11  1  0  0  0  0
  9 29  1  0  0  0  0
  7  8  1  0  0  0  0
  7  9  1  0  0  0  0
 33 34  1  0  0  0  0
 33 35  1  0  0  0  0
 33 36  1  0  0  0  0
 31 32  1  0  0  0  0
 31 33  1  0  0  0  0
M  CHG  1  20   1
M  END
$$$$
default_name
  -OEChem-01062215323D

 36 35  0     1  0  0  0  0  0999 V2000
   -4.2256   -3.6731    1.8584 H   0  0  0  0  0  0  0  0  0  0  0  0
   -4.2396   -2.6781    1.4144 C   0  0  0  0  0  0  0  0  0  0  0  0
   -4.9506   -2.0521    1.9514 H   0  0  0  0  0  0  0  0  0  0  0  0
   -4.5266   -2.7521    0.3674 H   0  0  0  0  0  0  0  0  0  0  0  0
   -2.8576   -2.0761    1.5184 C   0  0  0  0  0  0  0  0  0  0  0  0
   -1.9456   -2.7051    2.0404 O   0  0  0  0  0  0  0  0  0  0  0  0
   -2.6926   -0.8481    1.0174 N   0  0  0  0  0  0  0  0  0  0  0  0
   -3.4926   -0.3971    0.5954 H   0  0  0  0  0  0  0  0  0  0  0  0
   -1.4216   -0.1071    1.0434 C   0  0  1  0  0  0  0  0  0  0  0  0
   -1.6276    0.9377    0.8055 H   0  0  0  0  0  0  0  0  0  0  0  0
   -0.8400   -0.1858    2.4692 C   0  0  0  0  0  0  0  0  0  0  0  0
   -0.7825   -1.2354    2.7646 H   0  0  0  0  0  0  0  0  0  0  0  0
    0.1736    0.2210    2.4642 H   0  0  0  0  0  0  0  0  0  0  0  0
   -1.6792    0.5641    3.5140 C   0  0  0  0  0  0  0  0  0  0  0  0
   -1.7424    1.6201    3.2475 H   0  0  0  0  0  0  0  0  0  0  0  0
   -2.6830    0.1391    3.5431 H   0  0  0  0  0  0  0  0  0  0  0  0
   -1.0291    0.4332    4.8981 C   0  0  0  0  0  0  0  0  0  0  0  0
   -0.9455   -0.6277    5.1451 H   0  0  0  0  0  0  0  0  0  0  0  0
   -0.0265    0.8649    4.8536 H   0  0  0  0  0  0  0  0  0  0  0  0
   -1.8171    1.1213    5.9413 N   0  3  0  0  0  0  0  0  0  0  0  0
   -2.6344    1.6205    5.6344 H   0  0  0  0  0  0  0  0  0  0  0  0
   -1.5498    1.1422    7.2364 C   0  0  0  0  0  0  0  0  0  0  0  0
   -0.5160    0.5289    7.7407 N   0  0  0  0  0  0  0  0  0  0  0  0
    0.0951    0.0235    7.1239 H   0  0  0  0  0  0  0  0  0  0  0  0
   -0.3272    0.5551    8.7259 H   0  0  0  0  0  0  0  0  0  0  0  0
   -2.3251    1.7888    8.0598 N   0  0  0  0  0  0  0  0  0  0  0  0
   -3.1348    2.2771    7.7179 H   0  0  0  0  0  0  0  0  0  0  0  0
   -2.1187    1.8021    9.0415 H   0  0  0  0  0  0  0  0  0  0  0  0
   -0.4528   -0.6684    0.0006 C   0  0  0  0  0  0  0  0  0  0  0  0
    0.1507    0.0990   -0.7396 O   0  0  0  0  0  0  0  0  0  0  0  0
   -0.3410   -1.9983   -0.0743 N   0  0  0  0  0  0  0  0  0  0  0  0
   -0.8459   -2.5522    0.5981 H   0  0  0  0  0  0  0  0  0  0  0  0
    0.5404   -2.6944   -1.0132 C   0  0  0  0  0  0  0  0  0  0  0  0
    1.5816   -2.4488   -0.7937 H   0  0  0  0  0  0  0  0  0  0  0  0
    0.4050   -3.7737   -0.9326 H   0  0  0  0  0  0  0  0  0  0  0  0
    0.3202   -2.3796   -2.0356 H   0  0  0  0  0  0  0  0  0  0  0  0
  5  6  2  0  0  0  0
  5  7  1  0  0  0  0
  2  3  1  0  0  0  0
  2  4  1  0  0  0  0
  2  5  1  0  0  0  0
  1  2  1  0  0  0  0
 29 30  2  0  0  0  0
 29 31  1  0  0  0  0
 26 27  1  0  0  0  0
 26 28  1  0  0  0  0
 23 24  1  0  0  0  0
 23 25  1  0  0  0  0
 22 23  1  0  0  0  0
 22 26  1  0  0  0  0
 20 21  1  0  0  0  0
 20 22  2  0  0  0  0
 17 18  1  0  0  0  0
 17 19  1  0  0  0  0
 17 20  1  0  0  0  0
 14 15  1  0  0  0  0
 14 16  1  0  0  0  0
 14 17  1  0  0  0  0
 11 12  1  0  0  0  0
 11 13  1  0  0  0  0
 11 14  1  0  0  0  0
  9 10  1  0  0  0  0
  9 11  1  0  0  0  0
  9 29  1  0  0  0  0
  7  8  1  0  0  0  0
  7  9  1  0  0  0  0
 33 34  1  0  0  0  0
 33 35  1  0  0  0  0
 33 36  1  0  0  0  0
 31 32  1  0  0  0  0
 31 33  1  0  0  0  0
M  CHG  1  20   1
M  END
$$$$
default_name
  -OEChem-01062215323D

 36 35  0     1  0  0  0  0  0999 V2000
   -4.2256   -3.6731    1.8584 H   0  0  0  0  0  0  0  0  0  0  0  0
   -4.2396   -2.6781    1.4144 C   0  0  0  0  0  0  0  0  0  0  0  0
   -4.9506   -2.0521    1.9514 H   0  0  0  0  0  0  0  0  0  0  0  0
   -4.5266   -2.7521    0.3674 H   0  0  0  0  0  0  0  0  0  0  0  0
   -2.8576   -2.0761    1.5184 C   0  0  0  0  0  0  0  0  0  0  0  0
   -1.9456   -2.7051    2.0404 O   0  0  0  0  0  0  0  0  0  0  0  0
   -2.6926   -0.8481    1.0174 N   0  0  0  0  0  0  0  0  0  0  0  0
   -3.4926   -0.3971    0.5954 H   0  0  0  0  0  0  0  0  0  0  0  0
   -1.4216   -0.1071    1.0434 C   0  0  1  0  0  0  0  0  0  0  0  0
   -1.6276    0.9377    0.8055 H   0  0  0  0  0  0  0  0  0  0  0  0
   -0.8400   -0.1858    2.4692 C   0  0  0  0  0  0  0  0  0  0  0  0
   -0.7825   -1.2354    2.7646 H   0  0  0  0  0  0  0  0  0  0  0  0
    0.1736    0.2210    2.4642 H   0  0  0  0  0  0  0  0  0  0  0  0
   -1.6792    0.5641    3.5140 C   0  0  0  0  0  0  0  0  0  0  0  0
   -1.7424    1.6201    3.2475 H   0  0  0  0  0  0  0  0  0  0  0  0
   -2.6830    0.1391    3.5431 H   0  0  0  0  0  0  0  0  0  0  0  0
   -1.0291    0.4332    4.8981 C   0  0  0  0  0  0  0  0  0  0  0  0
   -0.9455   -0.6277    5.1451 H   0  0  0  0  0  0  0  0  0  0  0  0
   -0.0265    0.8649    4.8536 H   0  0  0  0  0  0  0  0  0  0  0  0
   -1.8171    1.1213    5.9413 N   0  3  0  0  0  0  0  0  0  0  0  0
   -2.6344    1.6205    5.6344 H   0  0  0  0  0  0  0  0  0  0  0  0
   -1.5498    1.1422    7.2364 C   0  0  0  0  0  0  0  0  0  0  0  0
   -0.5160    0.5289    7.7407 N   0  0  0  0  0  0  0  0  0  0  0  0
    0.0951    0.0235    7.1239 H   0  0  0  0  0  0  0  0  0  0  0  0
   -0.3272    0.5551    8.7259 H   0  0  0  0  0  0  0  0  0  0  0  0
   -2.3251    1.7888    8.0598 N   0  0  0  0  0  0  0  0  0  0  0  0
   -3.1348    2.2771    7.7179 H   0  0  0  0  0  0  0  0  0  0  0  0
   -2.1187    1.8021    9.0415 H   0  0  0  0  0  0  0  0  0  0  0  0
   -0.4528   -0.6684    0.0006 C   0  0  0  0  0  0  0  0  0  0  0  0
    0.3489    0.0801   -0.5454 O   0  0  0  0  0  0  0  0  0  0  0  0
   -0.5591   -1.9681   -0.2932 N   0  0  0  0  0  0  0  0  0  0  0  0
   -1.2208   -2.5170    0.2310 H   0  0  0  0  0  0  0  0  0  0  0  0
    0.2899   -2.6602   -1.2643 C   0  0  0  0  0  0  0  0  0  0  0  0
    1.3272   -2.6479   -0.9229 H   0  0  0  0  0  0  0  0  0  0  0  0
   -0.0334   -3.6953   -1.3821 H   0  0  0  0  0  0  0  0  0  0  0  0
    0.2393   -2.1553   -2.2314 H   0  0  0  0  0  0  0  0  0  0  0  0
  5  6  2  0  0  0  0
  5  7  1  0  0  0  0
  2  3  1  0  0  0  0
  2  4  1  0  0  0  0
  2  5  1  0  0  0  0
  1  2  1  0  0  0  0
 29 30  2  0  0  0  0
 29 31  1  0  0  0  0
 26 27  1  0  0  0  0
 26 28  1  0  0  0  0
 23 24  1  0  0  0  0
 23 25  1  0  0  0  0
 22 23  1  0  0  0  0
 22 26  1  0  0  0  0
 20 21  1  0  0  0  0
 20 22  2  0  0  0  0
 17 18  1  0  0  0  0
 17 19  1  0  0  0  0
 17 20  1  0  0  0  0
 14 15  1  0  0  0  0
 14 16  1  0  0  0  0
 14 17  1  0  0  0  0
 11 12  1  0  0  0  0
 11 13  1  0  0  0  0
 11 14  1  0  0  0  0
  9 10  1  0  0  0  0
  9 11  1  0  0  0  0
  9 29  1  0  0  0  0
  7  8  1  0  0  0  0
  7  9  1  0  0  0  0
 33 34  1  0  0  0  0
 33 35  1  0  0  0  0
 33 36  1  0  0  0  0
 31 32  1  0  0  0  0
 31 33  1  0  0  0  0
M  CHG  1  20   1
M  END
$$$$
default_name
  -OEChem-01062215323D

 36 35  0     1  0  0  0  0  0999 V2000
   -4.2256   -3.6731    1.8584 H   0  0  0  0  0  0  0  0  0  0  0  0
   -4.2396   -2.6781    1.4144 C   0  0  0  0  0  0  0  0  0  0  0  0
   -4.9506   -2.0521    1.9514 H   0  0  0  0  0  0  0  0  0  0  0  0
   -4.5266   -2.7521    0.3674 H   0  0  0  0  0  0  0  0  0  0  0  0
   -2.8576   -2.0761    1.5184 C   0  0  0  0  0  0  0  0  0  0  0  0
   -1.9456   -2.7051    2.0404 O   0  0  0  0  0  0  0  0  0  0  0  0
   -2.6926   -0.8481    1.0174 N   0  0  0  0  0  0  0  0  0  0  0  0
   -3.4926   -0.3971    0.5954 H   0  0  0  0  0  0  0  0  0  0  0  0
   -1.4216   -0.1071    1.0434 C   0  0  1  0  0  0  0  0  0  0  0  0
   -1.6276    0.9377    0.8055 H   0  0  0  0  0  0  0  0  0  0  0  0
   -0.8400   -0.1858    2.4692 C   0  0  0  0  0  0  0  0  0  0  0  0
   -0.7825   -1.2354    2.7646 H   0  0  0  0  0  0  0  0  0  0  0  0
    0.1736    0.2210    2.4642 H   0  0  0  0  0  0  0  0  0  0  0  0
   -1.6792    0.5641    3.5140 C   0  0  0  0  0  0  0  0  0  0  0  0
   -1.7424    1.6201    3.2475 H   0  0  0  0  0  0  0  0  0  0  0  0
   -2.6830    0.1391    3.5431 H   0  0  0  0  0  0  0  0  0  0  0  0
   -1.0291    0.4332    4.8981 C   0  0  0  0  0  0  0  0  0  0  0  0
   -0.9455   -0.6277    5.1451 H   0  0  0  0  0  0  0  0  0  0  0  0
   -0.0265    0.8649    4.8536 H   0  0  0  0  0  0  0  0  0  0  0  0
   -1.8171    1.1213    5.9413 N   0  3  0  0  0  0  0  0  0  0  0  0
   -2.6344    1.6205    5.6344 H   0  0  0  0  0  0  0  0  0  0  0  0
   -1.5498    1.1422    7.2364 C   0  0  0  0  0  0  0  0  0  0  0  0
   -0.5160    0.5289    7.7407 N   0  0  0  0  0  0  0  0  0  0  0  0
    0.0951    0.0235    7.1239 H   0  0  0  0  0  0  0  0  0  0  0  0
   -0.3272    0.5551    8.7259 H   0  0  0  0  0  0  0  0  0  0  0  0
   -2.3251    1.7888    8.0598 N   0  0  0  0  0  0  0  0  0  0  0  0
   -3.1348    2.2771    7.7179 H   0  0  0  0  0  0  0  0  0  0  0  0
   -2.1187    1.8021    9.0415 H   0  0  0  0  0  0  0  0  0  0  0  0
   -0.4528   -0.6684    0.0006 C   0  0  0  0  0  0  0  0  0  0  0  0
    0.5185   -0.0049   -0.3420 O   0  0  0  0  0  0  0  0  0  0  0  0
   -0.7437   -1.8645   -0.5204 N   0  0  0  0  0  0  0  0  0  0  0  0
   -1.5419   -2.3567   -0.1535 H   0  0  0  0  0  0  0  0  0  0  0  0
    0.0778   -2.5419   -1.5250 C   0  0  0  0  0  0  0  0  0  0  0  0
    1.0586   -2.7741   -1.1044 H   0  0  0  0  0  0  0  0  0  0  0  0
   -0.4003   -3.4686   -1.8450 H   0  0  0  0  0  0  0  0  0  0  0  0
    0.2194   -1.8923   -2.3915 H   0  0  0  0  0  0  0  0  0  0  0  0
  5  6  2  0  0  0  0
  5  7  1  0  0  0  0
  2  3  1  0  0  0  0
  2  4  1  0  0  0  0
  2  5  1  0  0  0  0
  1  2  1  0  0  0  0
 29 30  2  0  0  0  0
 29 31  1  0  0  0  0
 26 27  1  0  0  0  0
 26 28  1  0  0  0  0
 23 24  1  0  0  0  0
 23 25  1  0  0  0  0
 22 23  1  0  0  0  0
 22 26  1  0  0  0  0
 20 21  1  0  0  0  0
 20 22  2  0  0  0  0
 17 18  1  0  0  0  0
 17 19  1  0  0  0  0
 17 20  1  0  0  0  0
 14 15  1  0  0  0  0
 14 16  1  0  0  0  0
 14 17  1  0  0  0  0
 11 12  1  0  0  0  0
 11 13  1  0  0  0  0
 11 14  1  0  0  0  0
  9 10  1  0  0  0  0
  9 11  1  0  0  0  0
  9 29  1  0  0  0  0
  7  8  1  0  0  0  0
  7  9  1  0  0  0  0
 33 34  1  0  0  0  0
 33 35  1  0  0  0  0
 33 36  1  0  0  0  0
 31 32  1  0  0  0  0
 31 33  1  0  0  0  0
M  CHG  1  20   1
M  END
$$$$
default_name
  -OEChem-01062215323D

 36 35  0     1  0  0  0  0  0999 V2000
   -4.2256   -3.6731    1.8584 H   0  0  0  0  0  0  0  0  0  0  0  0
   -4.2396   -2.6781    1.4144 C   0  0  0  0  0  0  0  0  0  0  0  0
   -4.9506   -2.0521    1.9514 H   0  0  0  0  0  0  0  0  0  0  0  0
   -4.5266   -2.7521    0.3674 H   0  0  0  0  0  0  0  0  0  0  0  0
   -2.8576   -2.0761    1.5184 C   0  0  0  0  0  0  0  0  0  0  0  0
   -1.9456   -2.7051    2.0404 O   0  0  0  0  0  0  0  0  0  0  0  0
   -2.6926   -0.8481    1.0174 N   0  0  0  0  0  0  0  0  0  0  0  0
   -3.4926   -0.3971    0.5954 H   0  0  0  0  0  0  0  0  0  0  0  0
   -1.4216   -0.1071    1.0434 C   0  0  1  0  0  0  0  0  0  0  0  0
   -1.6276    0.9377    0.8055 H   0  0  0  0  0  0  0  0  0  0  0  0
   -0.8400   -0.1858    2.4692 C   0  0  0  0  0  0  0  0  0  0  0  0
   -0.7825   -1.2354    2.7646 H   0  0  0  0  0  0  0  0  0  0  0  0
    0.1736    0.2210    2.4642 H   0  0  0  0  0  0  0  0  0  0  0  0
   -1.6792    0.5641    3.5140 C   0  0  0  0  0  0  0  0  0  0  0  0
   -1.7424    1.6201    3.2475 H   0  0  0  0  0  0  0  0  0  0  0  0
   -2.6830    0.1391    3.5431 H   0  0  0  0  0  0  0  0  0  0  0  0
   -1.0291    0.4332    4.8981 C   0  0  0  0  0  0  0  0  0  0  0  0
   -0.9455   -0.6277    5.1451 H   0  0  0  0  0  0  0  0  0  0  0  0
   -0.0265    0.8649    4.8536 H   0  0  0  0  0  0  0  0  0  0  0  0
   -1.8171    1.1213    5.9413 N   0  3  0  0  0  0  0  0  0  0  0  0
   -2.6344    1.6205    5.6344 H   0  0  0  0  0  0  0  0  0  0  0  0
   -1.5498    1.1422    7.2364 C   0  0  0  0  0  0  0  0  0  0  0  0
   -0.5160    0.5289    7.7407 N   0  0  0  0  0  0  0  0  0  0  0  0
    0.0951    0.0235    7.1239 H   0  0  0  0  0  0  0  0  0  0  0  0
   -0.3272    0.5551    8.7259 H   0  0  0  0  0  0  0  0  0  0  0  0
   -2.3251    1.7888    8.0598 N   0  0  0  0  0  0  0  0  0  0  0  0
   -3.1348    2.2771    7.7179 H   0  0  0  0  0  0  0  0  0  0  0  0
   -2.1187    1.8021    9.0415 H   0  0  0  0  0  0  0  0  0  0  0  0
   -0.4528   -0.6684    0.0006 C   0  0  0  0  0  0  0  0  0  0  0  0
    0.6480   -0.1503   -0.1435 O   0  0  0  0  0  0  0  0  0  0  0  0
   -0.8822   -1.6947   -0.7405 N   0  0  0  0  0  0  0  0  0  0  0  0
   -1.7872   -2.0823   -0.5292 H   0  0  0  0  0  0  0  0  0  0  0  0
   -0.0814   -2.3475   -1.7775 C   0  0  0  0  0  0  0  0  0  0  0  0
    0.7941   -2.8190   -1.3260 H   0  0  0  0  0  0  0  0  0  0  0  0
   -0.6708   -3.1090   -2.2898 H   0  0  0  0  0  0  0  0  0  0  0  0
    0.2618   -1.6085   -2.5049 H   0  0  0  0  0  0  0  0  0  0  0  0
  5  6  2  0  0  0  0
  5  7  1  0  0  0  0
  2  3  1  0  0  0  0
  2  4  1  0  0  0  0
  2  5  1  0  0  0  0
  1  2  1  0  0  0  0
 29 30  2  0  0  0  0
 29 31  1  0  0  0  0
 26 27  1  0  0  0  0
 26 28  1  0  0  0  0
 23 24  1  0  0  0  0
 23 25  1  0  0  0  0
 22 23  1  0  0  0  0
 22 26  1  0  0  0  0
 20 21  1  0  0  0  0
 20 22  2  0  0  0  0
 17 18  1  0  0  0  0
 17 19  1  0  0  0  0
 17 20  1  0  0  0  0
 14 15  1  0  0  0  0
 14 16  1  0  0  0  0
 14 17  1  0  0  0  0
 11 12  1  0  0  0  0
 11 13  1  0  0  0  0
 11 14  1  0  0  0  0
  9 10  1  0  0  0  0
  9 11  1  0  0  0  0
  9 29  1  0  0  0  0
  7  8  1  0  0  0  0
  7  9  1  0  0  0  0
 33 34  1  0  0  0  0
 33 35  1  0  0  0  0
 33 36  1  0  0  0  0
 31 32  1  0  0  0  0
 31 33  1  0  0  0  0
M  CHG  1  20   1
M  END
$$$$
default_name
  -OEChem-01062215323D

 36 35  0     1  0  0  0  0  0999 V2000
   -4.2256   -3.6731    1.8584 H   0  0  0  0  0  0  0  0  0  0  0  0
   -4.2396   -2.6781    1.4144 C   0  0  0  0  0  0  0  0  0  0  0  0
   -4.9506   -2.0521    1.9514 H   0  0  0  0  0  0  0  0  0  0  0  0
   -4.5266   -2.7521    0.3674 H   0  0  0  0  0  0  0  0  0  0  0  0
   -2.8576   -2.0761    1.5184 C   0  0  0  0  0  0  0  0  0  0  0  0
   -1.9456   -2.7051    2.0404 O   0  0  0  0  0  0  0  0  0  0  0  0
   -2.6926   -0.8481    1.0174 N   0  0  0  0  0  0  0  0  0  0  0  0
   -3.4926   -0.3971    0.5954 H   0  0  0  0  0  0  0  0  0  0  0  0
   -1.4216   -0.1071    1.0434 C   0  0  1  0  0  0  0  0  0  0  0  0
   -1.6276    0.9377    0.8055 H   0  0  0  0  0  0  0  0  0  0  0  0
   -0.8400   -0.1858    2.4692 C   0  0  0  0  0  0  0  0  0  0  0  0
   -0.7825   -1.2354    2.7646 H   0  0  0  0  0  0  0  0  0  0  0  0
    0.1736    0.2210    2.4642 H   0  0  0  0  0  0  0  0  0  0  0  0
   -1.6792    0.5641    3.5140 C   0  0  0  0  0  0  0  0  0  0  0  0
   -1.7424    1.6201    3.2475 H   0  0  0  0  0  0  0  0  0  0  0  0
   -2.6830    0.1391    3.5431 H   0  0  0  0  0  0  0  0  0  0  0  0
   -1.0291    0.4332    4.8981 C   0  0  0  0  0  0  0  0  0  0  0  0
   -0.9455   -0.6277    5.1451 H   0  0  0  0  0  0  0  0  0  0  0  0
   -0.0265    0.8649    4.8536 H   0  0  0  0  0  0  0  0  0  0  0  0
   -1.8171    1.1213    5.9413 N   0  3  0  0  0  0  0  0  0  0  0  0
   -2.6344    1.6205    5.6344 H   0  0  0  0  0  0  0  0  0  0  0  0
   -1.5498    1.1422    7.2364 C   0  0  0  0  0  0  0  0  0  0  0  0
   -0.5160    0.5289    7.7407 N   0  0  0  0  0  0  0  0  0  0  0  0
    0.0951    0.0235    7.1239 H   0  0  0  0  0  0  0  0  0  0  0  0
   -0.3272    0.5551    8.7259 H   0  0  0  0  0  0  0  0  0  0  0  0
   -2.3251    1.7888    8.0598 N   0  0  0  0  0  0  0  0  0  0  0  0
   -3.1348    2.2771    7.7179 H   0  0  0  0  0  0  0  0  0  0  0  0
   -2.1187    1.8021    9.0415 H   0  0  0  0  0  0  0  0  0  0  0  0
   -0.4528   -0.6684    0.0006 C   0  0  0  0  0  0  0  0  0  0  0  0
    0.7287   -0.3461    0.0368 O   0  0  0  0  0  0  0  0  0  0  0  0
   -0.9651   -1.4702   -0.9383 N   0  0  0  0  0  0  0  0  0  0  0  0
   -1.9401   -1.7123   -0.8703 H   0  0  0  0  0  0  0  0  0  0  0  0
   -0.1769   -2.0902   -2.0047 C   0  0  0  0  0  0  0  0  0  0  0  0
    0.5517   -2.7793   -1.5725 H   0  0  0  0  0  0  0  0  0  0  0  0
   -0.8265   -2.6410   -2.6862 H   0  0  0  0  0  0  0  0  0  0  0  0
    0.3635   -1.3233   -2.5639 H   0  0  0  0  0  0  0  0  0  0  0  0
  5  6  2  0  0  0  0
  5  7  1  0  0  0  0
  2  3  1  0  0  0  0
  2  4  1  0  0  0  0
  2  5  1  0  0  0  0
  1  2  1  0  0  0  0
 29 30  2  0  0  0  0
 29 31  1  0  0  0  0
 26 27  1  0  0  0  0
 26 28  1  0  0  0  0
 23 24  1  0  0  0  0
 23 25  1  0  0  0  0
 22 23  1  0  0  0  0
 22 26  1  0  0  0  0
 20 21  1  0  0  0  0
 20 22  2  0  0  0  0
 17 18  1  0  0  0  0
 17 19  1  0  0  0  0
 17 20  1  0  0  0  0
 14 15  1  0  0  0  0
 14 16  1  0  0  0  0
 14 17  1  0  0  0  0
 11 12  1  0  0  0  0
 11 13  1  0  0  0  0
 11 14  1  0  0  0  0
  9 10  1  0  0  0  0
  9 11  1  0  0  0  0
  9 29  1  0  0  0  0
  7  8  1  0  0  0  0
  7  9  1  0  0  0  0
 33 34  1  0  0  0  0
 33 35  1  0  0  0  0
 33 36  1  0  0  0  0
 31 32  1  0  0  0  0
 31 33  1  0  0  0  0
M  CHG  1  20   1
M  END
$$$$
default_name
  -OEChem-01062215323D

 36 35  0     1  0  0  0  0  0999 V2000
   -4.2256   -3.6731    1.8584 H   0  0  0  0  0  0  0  0  0  0  0  0
   -4.2396   -2.6781    1.4144 C   0  0  0  0  0  0  0  0  0  0  0  0
   -4.9506   -2.0521    1.9514 H   0  0  0  0  0  0  0  0  0  0  0  0
   -4.5266   -2.7521    0.3674 H   0  0  0  0  0  0  0  0  0  0  0  0
   -2.8576   -2.0761    1.5184 C   0  0  0  0  0  0  0  0  0  0  0  0
   -1.9456   -2.7051    2.0404 O   0  0  0  0  0  0  0  0  0  0  0  0
   -2.6926   -0.8481    1.0174 N   0  0  0  0  0  0  0  0  0  0  0  0
   -3.4926   -0.3971    0.5954 H   0  0  0  0  0  0  0  0  0  0  0  0
   -1.4216   -0.1071    1.0434 C   0  0  1  0  0  0  0  0  0  0  0  0
   -1.6276    0.9377    0.8055 H   0  0  0  0  0  0  0  0  0  0  0  0
   -0.8400   -0.1858    2.4692 C   0  0  0  0  0  0  0  0  0  0  0  0
   -0.7825   -1.2354    2.7646 H   0  0  0  0  0  0  0  0  0  0  0  0
    0.1736    0.2210    2.4642 H   0  0  0  0  0  0  0  0  0  0  0  0
   -1.6792    0.5641    3.5140 C   0  0  0  0  0  0  0  0  0  0  0  0
   -1.7424    1.6201    3.2475 H   0  0  0  0  0  0  0  0  0  0  0  0
   -2.6830    0.1391    3.5431 H   0  0  0  0  0  0  0  0  0  0  0  0
   -1.0291    0.4332    4.8981 C   0  0  0  0  0  0  0  0  0  0  0  0
   -0.9455   -0.6277    5.1451 H   0  0  0  0  0  0  0  0  0  0  0  0
   -0.0265    0.8649    4.8536 H   0  0  0  0  0  0  0  0  0  0  0  0
   -1.8171    1.1213    5.9413 N   0  3  0  0  0  0  0  0  0  0  0  0
   -2.6344    1.6205    5.6344 H   0  0  0  0  0  0  0  0  0  0  0  0
   -1.5498    1.1422    7.2364 C   0  0  0  0  0  0  0  0  0  0  0  0
   -0.5160    0.5289    7.7407 N   0  0  0  0  0  0  0  0  0  0  0  0
    0.0951    0.0235    7.1239 H   0  0  0  0  0  0  0  0  0  0  0  0
   -0.3272    0.5551    8.7259 H   0  0  0  0  0  0  0  0  0  0  0  0
   -2.3251    1.7888    8.0598 N   0  0  0  0  0  0  0  0  0  0  0  0
   -3.1348    2.2771    7.7179 H   0  0  0  0  0  0  0  0  0  0  0  0
   -2.1187    1.8021    9.0415 H   0  0  0  0  0  0  0  0  0  0  0  0
   -0.4528   -0.6684    0.0006 C   0  0  0  0  0  0  0  0  0  0  0  0
    0.7549   -0.5790    0.1865 O   0  0  0  0  0  0  0  0  0  0  0  0
   -0.9868   -1.2063   -1.1005 N   0  0  0  0  0  0  0  0  0  0  0  0
   -1.9901   -1.2721   -1.1537 H   0  0  0  0  0  0  0  0  0  0  0  0
   -0.2022   -1.7876   -2.1911 C   0  0  0  0  0  0  0  0  0  0  0  0
    0.3480   -2.6578   -1.8270 H   0  0  0  0  0  0  0  0  0  0  0  0
   -0.8566   -2.0966   -3.0072 H   0  0  0  0  0  0  0  0  0  0  0  0
    0.5177   -1.0561   -2.5645 H   0  0  0  0  0  0  0  0  0  0  0  0
  5  6  2  0  0  0  0
  5  7  1  0  0  0  0
  2  3  1  0  0  0  0
  2  4  1  0  0  0  0
  2  5  1  0  0  0  0
  1  2  1  0  0  0  0
 29 30  2  0  0  0  0
 29 31  1  0  0  0  0
 26 27  1  0  0  0  0
 26 28  1  0  0  0  0
 23 24  1  0  0  0  0
 23 25  1  0  0  0  0
 22 23  1  0  0  0  0
 22 26  1  0  0  0  0
 20 21  1  0  0  0  0
 20 22  2  0  0  0  0
 17 18  1  0  0  0  0
 17 19  1  0  0  0  0
 17 20  1  0  0  0  0
 14 15  1  0  0  0  0
 14 16  1  0  0  0  0
 14 17  1  0  0  0  0
 11 12  1  0  0  0  0
 11 13  1  0  0  0  0
 11 14  1  0  0  0  0
  9 10  1  0  0  0  0
  9 11  1  0  0  0  0
  9 29  1  0  0  0  0
  7  8  1  0  0  0  0
  7  9  1  0  0  0  0
 33 34  1  0  0  0  0
 33 35  1  0  0  0  0
 33 36  1  0  0  0  0
 31 32  1  0  0  0  0
 31 33  1  0  0  0  0
M  CHG  1  20   1
M  END
$$$$
default_name
  -OEChem-01062215323D

 36 35  0     1  0  0  0  0  0999 V2000
   -4.2256   -3.6731    1.8584 H   0  0  0  0  0  0  0  0  0  0  0  0
   -4.2396   -2.6781    1.4144 C   0  0  0  0  0  0  0  0  0  0  0  0
   -4.9506   -2.0521    1.9514 H   0  0  0  0  0  0  0  0  0  0  0  0
   -4.5266   -2.7521    0.3674 H   0  0  0  0  0  0  0  0  0  0  0  0
   -2.8576   -2.0761    1.5184 C   0  0  0  0  0  0  0  0  0  0  0  0
   -1.9456   -2.7051    2.0404 O   0  0  0  0  0  0  0  0  0  0  0  0
   -2.6926   -0.8481    1.0174 N   0  0  0  0  0  0  0  0  0  0  0  0
   -3.4926   -0.3971    0.5954 H   0  0  0  0  0  0  0  0  0  0  0  0
   -1.4216   -0.1071    1.0434 C   0  0  1  0  0  0  0  0  0  0  0  0
   -1.6276    0.9377    0.8055 H   0  0  0  0  0  0  0  0  0  0  0  0
   -0.8400   -0.1858    2.4692 C   0  0  0  0  0  0  0  0  0  0  0  0
   -0.7825   -1.2354    2.7646 H   0  0  0  0  0  0  0  0  0  0  0  0
    0.1736    0.2210    2.4642 H   0  0  0  0  0  0  0  0  0  0  0  0
   -1.6792    0.5641    3.5140 C   0  0  0  0  0  0  0  0  0  0  0  0
   -1.7424    1.6201    3.2475 H   0  0  0  0  0  0  0  0  0  0  0  0
   -2.6830    0.1391    3.5431 H   0  0  0  0  0  0  0  0  0  0  0  0
   -1.0291    0.4332    4.8981 C   0  0  0  0  0  0  0  0  0  0  0  0
   -0.9455   -0.6277    5.1451 H   0  0  0  0  0  0  0  0  0  0  0  0
   -0.0265    0.8649    4.8536 H   0  0  0  0  0  0  0  0  0  0  0  0
   -1.8171    1.1213    5.9413 N   0  3  0  0  0  0  0  0  0  0  0  0
   -2.6344    1.6205    5.6344 H   0  0  0  0  0  0  0  0  0  0  0  0
   -1.5498    1.1422    7.2364 C   0  0  0  0  0  0  0  0  0  0  0  0
   -0.5160    0.5289    7.7407 N   0  0  0  0  0  0  0  0  0  0  0  0
    0.0951    0.0235    7.1239 H   0  0  0  0  0  0  0  0  0  0  0  0
   -0.3272    0.5551    8.7259 H   0  0  0  0  0  0  0  0  0  0  0  0
   -2.3251    1.7888    8.0598 N   0  0  0  0  0  0  0  0  0  0  0  0
   -3.1348    2.2771    7.7179 H   0  0  0  0  0  0  0  0  0  0  0  0
   -2.1187    1.8021    9.0415 H   0  0  0  0  0  0  0  0  0  0  0  0
   -0.4528   -0.6684    0.0006 C   0  0  0  0  0  0  0  0  0  0  0  0
    0.7249   -0.8332    0.2955 O   0  0  0  0  0  0  0  0  0  0  0  0
   -0.9458   -0.9209   -1.2160 N   0  0  0  0  0  0  0  0  0  0  0  0
   -1.9339   -0.7916   -1.3601 H   0  0  0  0  0  0  0  0  0  0  0  0
   -0.1556   -1.4603   -2.3239 C   0  0  0  0  0  0  0  0  0  0  0  0
    0.1969   -2.4629   -2.0724 H   0  0  0  0  0  0  0  0  0  0  0  0
   -0.7592   -1.5128   -3.2309 H   0  0  0  0  0  0  0  0  0  0  0  0
    0.7138   -0.8250   -2.5067 H   0  0  0  0  0  0  0  0  0  0  0  0
  5  6  2  0  0  0  0
  5  7  1  0  0  0  0
  2  3  1  0  0  0  0
  2  4  1  0  0  0  0
  2  5  1  0  0  0  0
  1  2  1  0  0  0  0
 29 30  2  0  0  0  0
 29 31  1  0  0  0  0
 26 27  1  0  0  0  0
 26 28  1  0  0  0  0
 23 24  1  0  0  0  0
 23 25  1  0  0  0  0
 22 23  1  0  0  0  0
 22 26  1  0  0  0  0
 20 21  1  0  0  0  0
 20 22  2  0  0  0  0
 17 18  1  0  0  0  0
 17 19  1  0  0  0  0
 17 20  1  0  0  0  0
 14 15  1  0  0  0  0
 14 16  1  0  0  0  0
 14 17  1  0  0  0  0
 11 12  1  0  0  0  0
 11 13  1  0  0  0  0
 11 14  1  0  0  0  0
  9 10  1  0  0  0  0
  9 11  1  0  0  0  0
  9 29  1  0  0  0  0
  7  8  1  0  0  0  0
  7  9  1  0  0  0  0
 33 34  1  0  0  0  0
 33 35  1  0  0  0  0
 33 36  1  0  0  0  0
 31 32  1  0  0  0  0
 31 33  1  0  0  0  0
M  CHG  1  20   1
M  END
$$$$
default_name
  -OEChem-01062215323D

 36 35  0     1  0  0  0  0  0999 V2000
   -4.2256   -3.6731    1.8584 H   0  0  0  0  0  0  0  0  0  0  0  0
   -4.2396   -2.6781    1.4144 C   0  0  0  0  0  0  0  0  0  0  0  0
   -4.9506   -2.0521    1.9514 H   0  0  0  0  0  0  0  0  0  0  0  0
   -4.5266   -2.7521    0.3674 H   0  0  0  0  0  0  0  0  0  0  0  0
   -2.8576   -2.0761    1.5184 C   0  0  0  0  0  0  0  0  0  0  0  0
   -1.9456   -2.7051    2.0404 O   0  0  0  0  0  0  0  0  0  0  0  0
   -2.6926   -0.8481    1.0174 N   0  0  0  0  0  0  0  0  0  0  0  0
   -3.4926   -0.3971    0.5954 H   0  0  0  0  0  0  0  0  0  0  0  0
   -1.4216   -0.1071    1.0434 C   0  0  1  0  0  0  0  0  0  0  0  0
   -1.6276    0.9377    0.8055 H   0  0  0  0  0  0  0  0  0  0  0  0
   -0.8400   -0.1858    2.4692 C   0  0  0  0  0  0  0  0  0  0  0  0
   -0.7825   -1.2354    2.7646 H   0  0  0  0  0  0  0  0  0  0  0  0
    0.1736    0.2210    2.4642 H   0  0  0  0  0  0  0  0  0  0  0  0
   -1.6792    0.5641    3.5140 C   0  0  0  0  0  0  0  0  0  0  0  0
   -1.7424    1.6201    3.2475 H   0  0  0  0  0  0  0  0  0  0  0  0
   -2.6830    0.1391    3.5431 H   0  0  0  0  0  0  0  0  0  0  0  0
   -1.0291    0.4332    4.8981 C   0  0  0  0  0  0  0  0  0  0  0  0
   -0.9455   -0.6277    5.1451 H   0  0  0  0  0  0  0  0  0  0  0  0
   -0.0265    0.8649    4.8536 H   0  0  0  0  0  0  0  0  0  0  0  0
   -1.8171    1.1213    5.9413 N   0  3  0  0  0  0  0  0  0  0  0  0
   -2.6344    1.6205    5.6344 H   0  0  0  0  0  0  0  0  0  0  0  0
   -1.5498    1.1422    7.2364 C   0  0  0  0  0  0  0  0  0  0  0  0
   -0.5160    0.5289    7.7407 N   0  0  0  0  0  0  0  0  0  0  0  0
    0.0951    0.0235    7.1239 H   0  0  0  0  0  0  0  0  0  0  0  0
   -0.3272    0.5551    8.7259 H   0  0  0  0  0  0  0  0  0  0  0  0
   -2.3251    1.7888    8.0598 N   0  0  0  0  0  0  0  0  0  0  0  0
   -3.1348    2.2771    7.7179 H   0  0  0  0  0  0  0  0  0  0  0  0
   -2.1187    1.8021    9.0415 H   0  0  0  0  0  0  0  0  0  0  0  0
   -0.4528   -0.6684    0.0006 C   0  0  0  0  0  0  0  0  0  0  0  0
    0.6408   -1.0912    0.3562 O   0  0  0  0  0  0  0  0  0  0  0  0
   -0.8448   -0.6336   -1.2769 N   0  0  0  0  0  0  0  0  0  0  0  0
   -1.7752   -0.3036   -1.4753 H   0  0  0  0  0  0  0  0  0  0  0  0
   -0.0402   -1.1306   -2.3942 C   0  0  0  0  0  0  0  0  0  0  0  0
    0.1086   -2.2077   -2.2918 H   0  0  0  0  0  0  0  0  0  0  0  0
   -0.5408   -0.9294   -3.3421 H   0  0  0  0  0  0  0  0  0  0  0  0
    0.9386   -0.6460   -2.3943 H   0  0  0  0  0  0  0  0  0  0  0  0
  5  6  2  0  0  0  0
  5  7  1  0  0  0  0
  2  3  1  0  0  0  0
  2  4  1  0  0  0  0
  2  5  1  0  0  0  0
  1  2  1  0  0  0  0
 29 30  2  0  0  0  0
 29 31  1  0  0  0  0
 26 27  1  0  0  0  0
 26 28  1  0  0  0  0
 23 24  1  0  0  0  0
 23 25  1  0  0  0  0
 22 23  1  0  0  0  0
 22 26  1  0  0  0  0
 20 21  1  0  0  0  0
 20 22  2  0  0  0  0
 17 18  1  0  0  0  0
 17 19  1  0  0  0  0
 17 20  1  0  0  0  0
 14 15  1  0  0  0  0
 14 16  1  0  0  0  0
 14 17  1  0  0  0  0
 11 12  1  0  0  0  0
 11 13  1  0  0  0  0
 11 14  1  0  0  0  0
  9 10  1  0  0  0  0
  9 11  1  0  0  0  0
  9 29  1  0  0  0  0
  7  8  1  0  0  0  0
  7  9  1  0  0  0  0
 33 34  1  0  0  0  0
 33 35  1  0  0  0  0
 33 36  1  0  0  0  0
 31 32  1  0  0  0  0
 31 33  1  0  0  0  0
M  CHG  1  20   1
M  END
$$$$
default_name
  -OEChem-01062215323D

 36 35  0     1  0  0  0  0  0999 V2000
   -4.2256   -3.6731    1.8584 H   0  0  0  0  0  0  0  0  0  0  0  0
   -4.2396   -2.6781    1.4144 C   0  0  0  0  0  0  0  0  0  0  0  0
   -4.9506   -2.0521    1.9514 H   0  0  0  0  0  0  0  0  0  0  0  0
   -4.5266   -2.7521    0.3674 H   0  0  0  0  0  0  0  0  0  0  0  0
   -2.8576   -2.0761    1.5184 C   0  0  0  0  0  0  0  0  0  0  0  0
   -1.9456   -2.7051    2.0404 O   0  0  0  0  0  0  0  0  0  0  0  0
   -2.6926   -0.8481    1.0174 N   0  0  0  0  0  0  0  0  0  0  0  0
   -3.4926   -0.3971    0.5954 H   0  0  0  0  0  0  0  0  0  0  0  0
   -1.4216   -0.1071    1.0434 C   0  0  1  0  0  0  0  0  0  0  0  0
   -1.6276    0.9377    0.8055 H   0  0  0  0  0  0  0  0  0  0  0  0
   -0.8400   -0.1858    2.4692 C   0  0  0  0  0  0  0  0  0  0  0  0
   -0.7825   -1.2354    2.7646 H   0  0  0  0  0  0  0  0  0  0  0  0
    0.1736    0.2210    2.4642 H   0  0  0  0  0  0  0  0  0  0  0  0
   -1.6792    0.5641    3.5140 C   0  0  0  0  0  0  0  0  0  0  0  0
   -1.7424    1.6201    3.2475 H   0  0  0  0  0  0  0  0  0  0  0  0
   -2.6830    0.1391    3.5431 H   0  0  0  0  0  0  0  0  0  0  0  0
   -1.0291    0.4332    4.8981 C   0  0  0  0  0  0  0  0  0  0  0  0
   -0.9455   -0.6277    5.1451 H   0  0  0  0  0  0  0  0  0  0  0  0
   -0.0265    0.8649    4.8536 H   0  0  0  0  0  0  0  0  0  0  0  0
   -1.8171    1.1213    5.9413 N   0  3  0  0  0  0  0  0  0  0  0  0
   -2.6344    1.6205    5.6344 H   0  0  0  0  0  0  0  0  0  0  0  0
   -1.5498    1.1422    7.2364 C   0  0  0  0  0  0  0  0  0  0  0  0
   -0.5160    0.5289    7.7407 N   0  0  0  0  0  0  0  0  0  0  0  0
    0.0951    0.0235    7.1239 H   0  0  0  0  0  0  0  0  0  0  0  0
   -0.3272    0.5551    8.7259 H   0  0  0  0  0  0  0  0  0  0  0  0
   -2.3251    1.7888    8.0598 N   0  0  0  0  0  0  0  0  0  0  0  0
   -3.1348    2.2771    7.7179 H   0  0  0  0  0  0  0  0  0  0  0  0
   -2.1187    1.8021    9.0415 H   0  0  0  0  0  0  0  0  0  0  0  0
   -0.4528   -0.6684    0.0006 C   0  0  0  0  0  0  0  0  0  0  0  0
    0.5082   -1.3355    0.3646 O   0  0  0  0  0  0  0  0  0  0  0  0
   -0.6909   -0.3640   -1.2790 N   0  0  0  0  0  0  0  0  0  0  0  0
   -1.5249    0.1586   -1.4916 H   0  0  0  0  0  0  0  0  0  0  0  0
    0.1361   -0.8210   -2.3970 C   0  0  0  0  0  0  0  0  0  0  0  0
    0.0891   -1.9097   -2.4702 H   0  0  0  0  0  0  0  0  0  0  0  0
   -0.2165   -0.3862   -3.3332 H   0  0  0  0  0  0  0  0  0  0  0  0
    1.1765   -0.5310   -2.2351 H   0  0  0  0  0  0  0  0  0  0  0  0
  5  6  2  0  0  0  0
  5  7  1  0  0  0  0
  2  3  1  0  0  0  0
  2  4  1  0  0  0  0
  2  5  1  0  0  0  0
  1  2  1  0  0  0  0
 29 30  2  0  0  0  0
 29 31  1  0  0  0  0
 26 27  1  0  0  0  0
 26 28  1  0  0  0  0
 23 24  1  0  0  0  0
 23 25  1  0  0  0  0
 22 23  1  0  0  0  0
 22 26  1  0  0  0  0
 20 21  1  0  0  0  0
 20 22  2  0  0  0  0
 17 18  1  0  0  0  0
 17 19  1  0  0  0  0
 17 20  1  0  0  0  0
 14 15  1  0  0  0  0
 14 16  1  0  0  0  0
 14 17  1  0  0  0  0
 11 12  1  0  0  0  0
 11 13  1  0  0  0  0
 11 14  1  0  0  0  0
  9 10  1  0  0  0  0
  9 11  1  0  0  0  0
  9 29  1  0  0  0  0
  7  8  1  0  0  0  0
  7  9  1  0  0  0  0
 33 34  1  0  0  0  0
 33 35  1  0  0  0  0
 33 36  1  0  0  0  0
 31 32  1  0  0  0  0
 31 33  1  0  0  0  0
M  CHG  1  20   1
M  END
$$$$
default_name
  -OEChem-01062215323D

 36 35  0     1  0  0  0  0  0999 V2000
   -4.2256   -3.6731    1.8584 H   0  0  0  0  0  0  0  0  0  0  0  0
   -4.2396   -2.6781    1.4144 C   0  0  0  0  0  0  0  0  0  0  0  0
   -4.9506   -2.0521    1.9514 H   0  0  0  0  0  0  0  0  0  0  0  0
   -4.5266   -2.7521    0.3674 H   0  0  0  0  0  0  0  0  0  0  0  0
   -2.8576   -2.0761    1.5184 C   0  0  0  0  0  0  0  0  0  0  0  0
   -1.9456   -2.7051    2.0404 O   0  0  0  0  0  0  0  0  0  0  0  0
   -2.6926   -0.8481    1.0174 N   0  0  0  0  0  0  0  0  0  0  0  0
   -3.4926   -0.3971    0.5954 H   0  0  0  0  0  0  0  0  0  0  0  0
   -1.4216   -0.1071    1.0434 C   0  0  1  0  0  0  0  0  0  0  0  0
   -1.6276    0.9377    0.8055 H   0  0  0  0  0  0  0  0  0  0  0  0
   -0.8400   -0.1858    2.4692 C   0  0  0  0  0  0  0  0  0  0  0  0
   -0.7825   -1.2354    2.7646 H   0  0  0  0  0  0  0  0  0  0  0  0
    0.1736    0.2210    2.4642 H   0  0  0  0  0  0  0  0  0  0  0  0
   -1.6792    0.5641    3.5140 C   0  0  0  0  0  0  0  0  0  0  0  0
   -1.7424    1.6201    3.2475 H   0  0  0  0  0  0  0  0  0  0  0  0
   -2.6830    0.1391    3.5431 H   0  0  0  0  0  0  0  0  0  0  0  0
   -1.0291    0.4332    4.8981 C   0  0  0  0  0  0  0  0  0  0  0  0
   -0.9455   -0.6277    5.1451 H   0  0  0  0  0  0  0  0  0  0  0  0
   -0.0265    0.8649    4.8536 H   0  0  0  0  0  0  0  0  0  0  0  0
   -1.8171    1.1213    5.9413 N   0  3  0  0  0  0  0  0  0  0  0  0
   -2.6344    1.6205    5.6344 H   0  0  0  0  0  0  0  0  0  0  0  0
   -1.5498    1.1422    7.2364 C   0  0  0  0  0  0  0  0  0  0  0  0
   -0.5160    0.5289    7.7407 N   0  0  0  0  0  0  0  0  0  0  0  0
    0.0951    0.0235    7.1239 H   0  0  0  0  0  0  0  0  0  0  0  0
   -0.3272    0.5551    8.7259 H   0  0  0  0  0  0  0  0  0  0  0  0
   -2.3251    1.7888    8.0598 N   0  0  0  0  0  0  0  0  0  0  0  0
   -3.1348    2.2771    7.7179 H   0  0  0  0  0  0  0  0  0  0  0  0
   -2.1187    1.8021    9.0415 H   0  0  0  0  0  0  0  0  0  0  0  0
   -0.4528   -0.6684    0.0006 C   0  0  0  0  0  0  0  0  0  0  0  0
    0.3363   -1.5495    0.3201 O   0  0  0  0  0  0  0  0  0  0  0  0
   -0.4944   -0.1303   -1.2223 N   0  0  0  0  0  0  0  0  0  0  0  0
   -1.2001    0.5637   -1.4079 H   0  0  0  0  0  0  0  0  0  0  0  0
    0.3613   -0.5526   -2.3323 C   0  0  0  0  0  0  0  0  0  0  0  0
    0.1398   -1.5891   -2.5956 H   0  0  0  0  0  0  0  0  0  0  0  0
    0.1918    0.0798   -3.2047 H   0  0  0  0  0  0  0  0  0  0  0  0
    1.4116   -0.4881   -2.0399 H   0  0  0  0  0  0  0  0  0  0  0  0
  5  6  2  0  0  0  0
  5  7  1  0  0  0  0
  2  3  1  0  0  0  0
  2  4  1  0  0  0  0
  2  5  1  0  0  0  0
  1  2  1  0  0  0  0
 29 30  2  0  0  0  0
 29 31  1  0  0  0  0
 26 27  1  0  0  0  0
 26 28  1  0  0  0  0
 23 24  1  0  0  0  0
 23 25  1  0  0  0  0
 22 23  1  0  0  0  0
 22 26  1  0  0  0  0
 20 21  1  0  0  0  0
 20 22  2  0  0  0  0
 17 18  1  0  0  0  0
 17 19  1  0  0  0  0
 17 20  1  0  0  0  0
 14 15  1  0  0  0  0
 14 16  1  0  0  0  0
 14 17  1  0  0  0  0
 11 12  1  0  0  0  0
 11 13  1  0  0  0  0
 11 14  1  0  0  0  0
  9 10  1  0  0  0  0
  9 11  1  0  0  0  0
  9 29  1  0  0  0  0
  7  8  1  0  0  0  0
  7  9  1  0  0  0  0
 33 34  1  0  0  0  0
 33 35  1  0  0  0  0
 33 36  1  0  0  0  0
 31 32  1  0  0  0  0
 31 33  1  0  0  0  0
M  CHG  1  20   1
M  END
$$$$
default_name
  -OEChem-01062215323D

 36 35  0     1  0  0  0  0  0999 V2000
   -4.2256   -3.6731    1.8584 H   0  0  0  0  0  0  0  0  0  0  0  0
   -4.2396   -2.6781    1.4144 C   0  0  0  0  0  0  0  0  0  0  0  0
   -4.9506   -2.0521    1.9514 H   0  0  0  0  0  0  0  0  0  0  0  0
   -4.5266   -2.7521    0.3674 H   0  0  0  0  0  0  0  0  0  0  0  0
   -2.8576   -2.0761    1.5184 C   0  0  0  0  0  0  0  0  0  0  0  0
   -1.9456   -2.7051    2.0404 O   0  0  0  0  0  0  0  0  0  0  0  0
   -2.6926   -0.8481    1.0174 N   0  0  0  0  0  0  0  0  0  0  0  0
   -3.4926   -0.3971    0.5954 H   0  0  0  0  0  0  0  0  0  0  0  0
   -1.4216   -0.1071    1.0434 C   0  0  1  0  0  0  0  0  0  0  0  0
   -1.6276    0.9377    0.8055 H   0  0  0  0  0  0  0  0  0  0  0  0
   -0.8400   -0.1858    2.4692 C   0  0  0  0  0  0  0  0  0  0  0  0
   -0.7825   -1.2354    2.7646 H   0  0  0  0  0  0  0  0  0  0  0  0
    0.1736    0.2210    2.4642 H   0  0  0  0  0  0  0  0  0  0  0  0
   -1.6792    0.5641    3.5140 C   0  0  0  0  0  0  0  0  0  0  0  0
   -1.7424    1.6201    3.2475 H   0  0  0  0  0  0  0  0  0  0  0  0
   -2.6830    0.1391    3.5431 H   0  0  0  0  0  0  0  0  0  0  0  0
   -1.0291    0.4332    4.8981 C   0  0  0  0  0  0  0  0  0  0  0  0
   -0.9455   -0.6277    5.1451 H   0  0  0  0  0  0  0  0  0  0  0  0
   -0.0265    0.8649    4.8536 H   0  0  0  0  0  0  0  0  0  0  0  0
   -1.8171    1.1213    5.9413 N   0  3  0  0  0  0  0  0  0  0  0  0
   -2.6344    1.6205    5.6344 H   0  0  0  0  0  0  0  0  0  0  0  0
   -1.5498    1.1422    7.2364 C   0  0  0  0  0  0  0  0  0  0  0  0
   -0.5160    0.5289    7.7407 N   0  0  0  0  0  0  0  0  0  0  0  0
    0.0951    0.0235    7.1239 H   0  0  0  0  0  0  0  0  0  0  0  0
   -0.3272    0.5551    8.7259 H   0  0  0  0  0  0  0  0  0  0  0  0
   -2.3251    1.7888    8.0598 N   0  0  0  0  0  0  0  0  0  0  0  0
   -3.1348    2.2771    7.7179 H   0  0  0  0  0  0  0  0  0  0  0  0
   -2.1187    1.8021    9.0415 H   0  0  0  0  0  0  0  0  0  0  0  0
   -0.4528   -0.6684    0.0006 C   0  0  0  0  0  0  0  0  0  0  0  0
    0.1367   -1.7186    0.2257 O   0  0  0  0  0  0  0  0  0  0  0  0
   -0.2688    0.0515   -1.1105 N   0  0  0  0  0  0  0  0  0  0  0  0
   -0.8228    0.8839   -1.2297 H   0  0  0  0  0  0  0  0  0  0  0  0
    0.6200   -0.3437   -2.2045 C   0  0  0  0  0  0  0  0  0  0  0  0
    0.2573   -1.2679   -2.6594 H   0  0  0  0  0  0  0  0  0  0  0  0
    0.6562    0.4369   -2.9655 H   0  0  0  0  0  0  0  0  0  0  0  0
    1.6276   -0.5201   -1.8219 H   0  0  0  0  0  0  0  0  0  0  0  0
  5  6  2  0  0  0  0
  5  7  1  0  0  0  0
  2  3  1  0  0  0  0
  2  4  1  0  0  0  0
  2  5  1  0  0  0  0
  1  2  1  0  0  0  0
 29 30  2  0  0  0  0
 29 31  1  0  0  0  0
 26 27  1  0  0  0  0
 26 28  1  0  0  0  0
 23 24  1  0  0  0  0
 23 25  1  0  0  0  0
 22 23  1  0  0  0  0
 22 26  1  0  0  0  0
 20 21  1  0  0  0  0
 20 22  2  0  0  0  0
 17 18  1  0  0  0  0
 17 19  1  0  0  0  0
 17 20  1  0  0  0  0
 14 15  1  0  0  0  0
 14 16  1  0  0  0  0
 14 17  1  0  0  0  0
 11 12  1  0  0  0  0
 11 13  1  0  0  0  0
 11 14  1  0  0  0  0
  9 10  1  0  0  0  0
  9 11  1  0  0  0  0
  9 29  1  0  0  0  0
  7  8  1  0  0  0  0
  7  9  1  0  0  0  0
 33 34  1  0  0  0  0
 33 35  1  0  0  0  0
 33 36  1  0  0  0  0
 31 32  1  0  0  0  0
 31 33  1  0  0  0  0
M  CHG  1  20   1
M  END
$$$$
default_name
  -OEChem-01062215323D

 36 35  0     1  0  0  0  0  0999 V2000
   -4.2256   -3.6731    1.8584 H   0  0  0  0  0  0  0  0  0  0  0  0
   -4.2396   -2.6781    1.4144 C   0  0  0  0  0  0  0  0  0  0  0  0
   -4.9506   -2.0521    1.9514 H   0  0  0  0  0  0  0  0  0  0  0  0
   -4.5266   -2.7521    0.3674 H   0  0  0  0  0  0  0  0  0  0  0  0
   -2.8576   -2.0761    1.5184 C   0  0  0  0  0  0  0  0  0  0  0  0
   -1.9456   -2.7051    2.0404 O   0  0  0  0  0  0  0  0  0  0  0  0
   -2.6926   -0.8481    1.0174 N   0  0  0  0  0  0  0  0  0  0  0  0
   -3.4926   -0.3971    0.5954 H   0  0  0  0  0  0  0  0  0  0  0  0
   -1.4216   -0.1071    1.0434 C   0  0  1  0  0  0  0  0  0  0  0  0
   -1.6276    0.9377    0.8055 H   0  0  0  0  0  0  0  0  0  0  0  0
   -0.8400   -0.1858    2.4692 C   0  0  0  0  0  0  0  0  0  0  0  0
   -0.7825   -1.2354    2.7646 H   0  0  0  0  0  0  0  0  0  0  0  0
    0.1736    0.2210    2.4642 H   0  0  0  0  0  0  0  0  0  0  0  0
   -1.6792    0.5641    3.5140 C   0  0  0  0  0  0  0  0  0  0  0  0
   -1.7424    1.6201    3.2475 H   0  0  0  0  0  0  0  0  0  0  0  0
   -2.6830    0.1391    3.5431 H   0  0  0  0  0  0  0  0  0  0  0  0
   -1.0291    0.4332    4.8981 C   0  0  0  0  0  0  0  0  0  0  0  0
   -0.9455   -0.6277    5.1451 H   0  0  0  0  0  0  0  0  0  0  0  0
   -0.0265    0.8649    4.8536 H   0  0  0  0  0  0  0  0  0  0  0  0
   -1.8171    1.1213    5.9413 N   0  3  0  0  0  0  0  0  0  0  0  0
   -2.6344    1.6205    5.6344 H   0  0  0  0  0  0  0  0  0  0  0  0
   -1.5498    1.1422    7.2364 C   0  0  0  0  0  0  0  0  0  0  0  0
   -0.5160    0.5289    7.7407 N   0  0  0  0  0  0  0  0  0  0  0  0
    0.0951    0.0235    7.1239 H   0  0  0  0  0  0  0  0  0  0  0  0
   -0.3272    0.5551    8.7259 H   0  0  0  0  0  0  0  0  0  0  0  0
   -2.3251    1.7888    8.0598 N   0  0  0  0  0  0  0  0  0  0  0  0
   -3.1348    2.2771    7.7179 H   0  0  0  0  0  0  0  0  0  0  0  0
   -2.1187    1.8021    9.0415 H   0  0  0  0  0  0  0  0  0  0  0  0
   -0.4528   -0.6684    0.0006 C   0  0  0  0  0  0  0  0  0  0  0  0
   -0.0770   -1.8313    0.0878 O   0  0  0  0  0  0  0  0  0  0  0  0
   -0.0294    0.1690   -0.9514 N   0  0  0  0  0  0  0  0  0  0  0  0
   -0.4188    1.0974   -0.9694 H   0  0  0  0  0  0  0  0  0  0  0  0
    0.8946   -0.2084   -2.0222 C   0  0  0  0  0  0  0  0  0  0  0  0
    0.4335   -0.9679   -2.6573 H   0  0  0  0  0  0  0  0  0  0  0  0
    1.1450    0.6606   -2.6319 H   0  0  0  0  0  0  0  0  0  0  0  0
    1.8100   -0.6248   -1.5962 H   0  0  0  0  0  0  0  0  0  0  0  0
  5  6  2  0  0  0  0
  5  7  1  0  0  0  0
  2  3  1  0  0  0  0
  2  4  1  0  0  0  0
  2  5  1  0  0  0  0
  1  2  1  0  0  0  0
 29 30  2  0  0  0  0
 29 31  1  0  0  0  0
 26 27  1  0  0  0  0
 26 28  1  0  0  0  0
 23 24  1  0  0  0  0
 23 25  1  0  0  0  0
 22 23  1  0  0  0  0
 22 26  1  0  0  0  0
 20 21  1  0  0  0  0
 20 22  2  0  0  0  0
 17 18  1  0  0  0  0
 17 19  1  0  0  0  0
 17 20  1  0  0  0  0
 14 15  1  0  0  0  0
 14 16  1  0  0  0  0
 14 17  1  0  0  0  0
 11 12  1  0  0  0  0
 11 13  1  0  0  0  0
 11 14  1  0  0  0  0
  9 10  1  0  0  0  0
  9 11  1  0  0  0  0
  9 29  1  0  0  0  0
  7  8  1  0  0  0  0
  7  9  1  0  0  0  0
 33 34  1  0  0  0  0
 33 35  1  0  0  0  0
 33 36  1  0  0  0  0
 31 32  1  0  0  0  0
 31 33  1  0  0  0  0
M  CHG  1  20   1
M  END
$$$$
default_name
  -OEChem-01062215323D

 36 35  0     1  0  0  0  0  0999 V2000
   -4.2256   -3.6731    1.8584 H   0  0  0  0  0  0  0  0  0  0  0  0
   -4.2396   -2.6781    1.4144 C   0  0  0  0  0  0  0  0  0  0  0  0
   -4.9506   -2.0521    1.9514 H   0  0  0  0  0  0  0  0  0  0  0  0
   -4.5266   -2.7521    0.3674 H   0  0  0  0  0  0  0  0  0  0  0  0
   -2.8576   -2.0761    1.5184 C   0  0  0  0  0  0  0  0  0  0  0  0
   -1.9456   -2.7051    2.0404 O   0  0  0  0  0  0  0  0  0  0  0  0
   -2.6926   -0.8481    1.0174 N   0  0  0  0  0  0  0  0  0  0  0  0
   -3.4926   -0.3971    0.5954 H   0  0  0  0  0  0  0  0  0  0  0  0
   -1.4216   -0.1071    1.0434 C   0  0  1  0  0  0  0  0  0  0  0  0
   -1.6276    0.9377    0.8055 H   0  0  0  0  0  0  0  0  0  0  0  0
   -0.8400   -0.1858    2.4692 C   0  0  0  0  0  0  0  0  0  0  0  0
   -0.7825   -1.2354    2.7646 H   0  0  0  0  0  0  0  0  0  0  0  0
    0.1736    0.2210    2.4642 H   0  0  0  0  0  0  0  0  0  0  0  0
   -1.6792    0.5641    3.5140 C   0  0  0  0  0  0  0  0  0  0  0  0
   -1.7424    1.6201    3.2475 H   0  0  0  0  0  0  0  0  0  0  0  0
   -2.6830    0.1391    3.5431 H   0  0  0  0  0  0  0  0  0  0  0  0
   -1.0291    0.4332    4.8981 C   0  0  0  0  0  0  0  0  0  0  0  0
   -0.9455   -0.6277    5.1451 H   0  0  0  0  0  0  0  0  0  0  0  0
   -0.0265    0.8649    4.8536 H   0  0  0  0  0  0  0  0  0  0  0  0
   -1.8171    1.1213    5.9413 N   0  3  0  0  0  0  0  0  0  0  0  0
   -2.6344    1.6205    5.6344 H   0  0  0  0  0  0  0  0  0  0  0  0
   -1.5498    1.1422    7.2364 C   0  0  0  0  0  0  0  0  0  0  0  0
   -0.5160    0.5289    7.7407 N   0  0  0  0  0  0  0  0  0  0  0  0
    0.0951    0.0235    7.1239 H   0  0  0  0  0  0  0  0  0  0  0  0
   -0.3272    0.5551    8.7259 H   0  0  0  0  0  0  0  0  0  0  0  0
   -2.3251    1.7888    8.0598 N   0  0  0  0  0  0  0  0  0  0  0  0
   -3.1348    2.2771    7.7179 H   0  0  0  0  0  0  0  0  0  0  0  0
   -2.1187    1.8021    9.0415 H   0  0  0  0  0  0  0  0  0  0  0  0
   -0.4528   -0.6684    0.0006 C   0  0  0  0  0  0  0  0  0  0  0  0
   -0.2902   -1.8798   -0.0841 O   0  0  0  0  0  0  0  0  0  0  0  0
    0.2074    0.2141   -0.7557 N   0  0  0  0  0  0  0  0  0  0  0  0
   -0.0156    1.1897   -0.6445 H   0  0  0  0  0  0  0  0  0  0  0  0
    1.1664   -0.1561   -1.7979 C   0  0  0  0  0  0  0  0  0  0  0  0
    0.6564   -0.7095   -2.5893 H   0  0  0  0  0  0  0  0  0  0  0  0
    1.6250    0.7359   -2.2265 H   0  0  0  0  0  0  0  0  0  0  0  0
    1.9462   -0.7951   -1.3780 H   0  0  0  0  0  0  0  0  0  0  0  0
  5  6  2  0  0  0  0
  5  7  1  0  0  0  0
  2  3  1  0  0  0  0
  2  4  1  0  0  0  0
  2  5  1  0  0  0  0
  1  2  1  0  0  0  0
 29 30  2  0  0  0  0
 29 31  1  0  0  0  0
 26 27  1  0  0  0  0
 26 28  1  0  0  0  0
 23 24  1  0  0  0  0
 23 25  1  0  0  0  0
 22 23  1  0  0  0  0
 22 26  1  0  0  0  0
 20 21  1  0  0  0  0
 20 22  2  0  0  0  0
 17 18  1  0  0  0  0
 17 19  1  0  0  0  0
 17 20  1  0  0  0  0
 14 15  1  0  0  0  0
 14 16  1  0  0  0  0
 14 17  1  0  0  0  0
 11 12  1  0  0  0  0
 11 13  1  0  0  0  0
 11 14  1  0  0  0  0
  9 10  1  0  0  0  0
  9 11  1  0  0  0  0
  9 29  1  0  0  0  0
  7  8  1  0  0  0  0
  7  9  1  0  0  0  0
 33 34  1  0  0  0  0
 33 35  1  0  0  0  0
 33 36  1  0  0  0  0
 31 32  1  0  0  0  0
 31 33  1  0  0  0  0
M  CHG  1  20   1
M  END
$$$$
default_name
  -OEChem-01062215323D

 36 35  0     1  0  0  0  0  0999 V2000
   -4.2256   -3.6731    1.8584 H   0  0  0  0  0  0  0  0  0  0  0  0
   -4.2396   -2.6781    1.4144 C   0  0  0  0  0  0  0  0  0  0  0  0
   -4.9506   -2.0521    1.9514 H   0  0  0  0  0  0  0  0  0  0  0  0
   -4.5266   -2.7521    0.3674 H   0  0  0  0  0  0  0  0  0  0  0  0
   -2.8576   -2.0761    1.5184 C   0  0  0  0  0  0  0  0  0  0  0  0
   -1.9456   -2.7051    2.0404 O   0  0  0  0  0  0  0  0  0  0  0  0
   -2.6926   -0.8481    1.0174 N   0  0  0  0  0  0  0  0  0  0  0  0
   -3.4926   -0.3971    0.5954 H   0  0  0  0  0  0  0  0  0  0  0  0
   -1.4216   -0.1071    1.0434 C   0  0  1  0  0  0  0  0  0  0  0  0
   -1.6276    0.9377    0.8055 H   0  0  0  0  0  0  0  0  0  0  0  0
   -0.8400   -0.1858    2.4692 C   0  0  0  0  0  0  0  0  0  0  0  0
   -0.7825   -1.2354    2.7646 H   0  0  0  0  0  0  0  0  0  0  0  0
    0.1736    0.2210    2.4642 H   0  0  0  0  0  0  0  0  0  0  0  0
   -1.6792    0.5641    3.5140 C   0  0  0  0  0  0  0  0  0  0  0  0
   -1.7424    1.6201    3.2475 H   0  0  0  0  0  0  0  0  0  0  0  0
   -2.6830    0.1391    3.5431 H   0  0  0  0  0  0  0  0  0  0  0  0
   -1.0291    0.4332    4.8981 C   0  0  0  0  0  0  0  0  0  0  0  0
   -0.9455   -0.6277    5.1451 H   0  0  0  0  0  0  0  0  0  0  0  0
   -0.0265    0.8649    4.8536 H   0  0  0  0  0  0  0  0  0  0  0  0
   -1.8171    1.1213    5.9413 N   0  3  0  0  0  0  0  0  0  0  0  0
   -2.6344    1.6205    5.6344 H   0  0  0  0  0  0  0  0  0  0  0  0
   -1.5498    1.1422    7.2364 C   0  0  0  0  0  0  0  0  0  0  0  0
   -0.5160    0.5289    7.7407 N   0  0  0  0  0  0  0  0  0  0  0  0
    0.0951    0.0235    7.1239 H   0  0  0  0  0  0  0  0  0  0  0  0
   -0.3272    0.5551    8.7259 H   0  0  0  0  0  0  0  0  0  0  0  0
   -2.3251    1.7888    8.0598 N   0  0  0  0  0  0  0  0  0  0  0  0
   -3.1348    2.2771    7.7179 H   0  0  0  0  0  0  0  0  0  0  0  0
   -2.1187    1.8021    9.0415 H   0  0  0  0  0  0  0  0  0  0  0  0
   -0.4528   -0.6684    0.0006 C   0  0  0  0  0  0  0  0  0  0  0  0
   -0.4883   -1.8609   -0.2783 O   0  0  0  0  0  0  0  0  0  0  0  0
    0.4256    0.1839   -0.5368 N   0  0  0  0  0  0  0  0  0  0  0  0
    0.3593    1.1546   -0.2773 H   0  0  0  0  0  0  0  0  0  0  0  0
    1.4168   -0.1903   -1.5468 C   0  0  0  0  0  0  0  0  0  0  0  0
    0.9108   -0.5104   -2.4601 H   0  0  0  0  0  0  0  0  0  0  0  0
    2.0634    0.6575   -1.7771 H   0  0  0  0  0  0  0  0  0  0  0  0
    2.0271   -1.0194   -1.1821 H   0  0  0  0  0  0  0  0  0  0  0  0
  5  6  2  0  0  0  0
  5  7  1  0  0  0  0
  2  3  1  0  0  0  0
  2  4  1  0  0  0  0
  2  5  1  0  0  0  0
  1  2  1  0  0  0  0
 29 30  2  0  0  0  0
 29 31  1  0  0  0  0
 26 27  1  0  0  0  0
 26 28  1  0  0  0  0
 23 24  1  0  0  0  0
 23 25  1  0  0  0  0
 22 23  1  0  0  0  0
 22 26  1  0  0  0  0
 20 21  1  0  0  0  0
 20 22  2  0  0  0  0
 17 18  1  0  0  0  0
 17 19  1  0  0  0  0
 17 20  1  0  0  0  0
 14 15  1  0  0  0  0
 14 16  1  0  0  0  0
 14 17  1  0  0  0  0
 11 12  1  0  0  0  0
 11 13  1  0  0  0  0
 11 14  1  0  0  0  0
  9 10  1  0  0  0  0
  9 11  1  0  0  0  0
  9 29  1  0  0  0  0
  7  8  1  0  0  0  0
  7  9  1  0  0  0  0
 33 34  1  0  0  0  0
 33 35  1  0  0  0  0
 33 36  1  0  0  0  0
 31 32  1  0  0  0  0
 31 33  1  0  0  0  0
M  CHG  1  20   1
M  END
$$$$
default_name
  -OEChem-01062215323D

 36 35  0     1  0  0  0  0  0999 V2000
   -4.2256   -3.6731    1.8584 H   0  0  0  0  0  0  0  0  0  0  0  0
   -4.2396   -2.6781    1.4144 C   0  0  0  0  0  0  0  0  0  0  0  0
   -4.9506   -2.0521    1.9514 H   0  0  0  0  0  0  0  0  0  0  0  0
   -4.5266   -2.7521    0.3674 H   0  0  0  0  0  0  0  0  0  0  0  0
   -2.8576   -2.0761    1.5184 C   0  0  0  0  0  0  0  0  0  0  0  0
   -1.9456   -2.7051    2.0404 O   0  0  0  0  0  0  0  0  0  0  0  0
   -2.6926   -0.8481    1.0174 N   0  0  0  0  0  0  0  0  0  0  0  0
   -3.4926   -0.3971    0.5954 H   0  0  0  0  0  0  0  0  0  0  0  0
   -1.4216   -0.1071    1.0434 C   0  0  1  0  0  0  0  0  0  0  0  0
   -1.6276    0.9377    0.8055 H   0  0  0  0  0  0  0  0  0  0  0  0
   -0.8400   -0.1858    2.4692 C   0  0  0  0  0  0  0  0  0  0  0  0
   -0.7825   -1.2354    2.7646 H   0  0  0  0  0  0  0  0  0  0  0  0
    0.1736    0.2210    2.4642 H   0  0  0  0  0  0  0  0  0  0  0  0
   -1.6792    0.5641    3.5140 C   0  0  0  0  0  0  0  0  0  0  0  0
   -1.7424    1.6201    3.2475 H   0  0  0  0  0  0  0  0  0  0  0  0
   -2.6830    0.1391    3.5431 H   0  0  0  0  0  0  0  0  0  0  0  0
   -1.0291    0.4332    4.8981 C   0  0  0  0  0  0  0  0  0  0  0  0
   -0.9455   -0.6277    5.1451 H   0  0  0  0  0  0  0  0  0  0  0  0
   -0.0265    0.8649    4.8536 H   0  0  0  0  0  0  0  0  0  0  0  0
   -1.8171    1.1213    5.9413 N   0  3  0  0  0  0  0  0  0  0  0  0
   -2.6344    1.6205    5.6344 H   0  0  0  0  0  0  0  0  0  0  0  0
   -1.5498    1.1422    7.2364 C   0  0  0  0  0  0  0  0  0  0  0  0
   -0.5160    0.5289    7.7407 N   0  0  0  0  0  0  0  0  0  0  0  0
    0.0951    0.0235    7.1239 H   0  0  0  0  0  0  0  0  0  0  0  0
   -0.3272    0.5551    8.7259 H   0  0  0  0  0  0  0  0  0  0  0  0
   -2.3251    1.7888    8.0598 N   0  0  0  0  0  0  0  0  0  0  0  0
   -3.1348    2.2771    7.7179 H   0  0  0  0  0  0  0  0  0  0  0  0
   -2.1187    1.8021    9.0415 H   0  0  0  0  0  0  0  0  0  0  0  0
   -0.4528   -0.6684    0.0006 C   0  0  0  0  0  0  0  0  0  0  0  0
   -0.6579   -1.7759   -0.4817 O   0  0  0  0  0  0  0  0  0  0  0  0
    0.6102    0.0803   -0.3096 N   0  0  0  0  0  0  0  0  0  0  0  0
    0.6804    0.9943    0.1072 H   0  0  0  0  0  0  0  0  0  0  0  0
    1.6289   -0.3086   -1.2861 C   0  0  0  0  0  0  0  0  0  0  0  0
    1.1794   -0.3842   -2.2785 H   0  0  0  0  0  0  0  0  0  0  0  0
    2.4304    0.4307   -1.3142 H   0  0  0  0  0  0  0  0  0  0  0  0
    2.0470   -1.2825   -1.0221 H   0  0  0  0  0  0  0  0  0  0  0  0
  5  6  2  0  0  0  0
  5  7  1  0  0  0  0
  2  3  1  0  0  0  0
  2  4  1  0  0  0  0
  2  5  1  0  0  0  0
  1  2  1  0  0  0  0
 29 30  2  0  0  0  0
 29 31  1  0  0  0  0
 26 27  1  0  0  0  0
 26 28  1  0  0  0  0
 23 24  1  0  0  0  0
 23 25  1  0  0  0  0
 22 23  1  0  0  0  0
 22 26  1  0  0  0  0
 20 21  1  0  0  0  0
 20 22  2  0  0  0  0
 17 18  1  0  0  0  0
 17 19  1  0  0  0  0
 17 20  1  0  0  0  0
 14 15  1  0  0  0  0
 14 16  1  0  0  0  0
 14 17  1  0  0  0  0
 11 12  1  0  0  0  0
 11 13  1  0  0  0  0
 11 14  1  0  0  0  0
  9 10  1  0  0  0  0
  9 11  1  0  0  0  0
  9 29  1  0  0  0  0
  7  8  1  0  0  0  0
  7  9  1  0  0  0  0
 33 34  1  0  0  0  0
 33 35  1  0  0  0  0
 33 36  1  0  0  0  0
 31 32  1  0  0  0  0
 31 33  1  0  0  0  0
M  CHG  1  20   1
M  END
$$$$
default_name
  -OEChem-01062215323D

 36 35  0     1  0  0  0  0  0999 V2000
   -4.2256   -3.6731    1.8584 H   0  0  0  0  0  0  0  0  0  0  0  0
   -4.2396   -2.6781    1.4144 C   0  0  0  0  0  0  0  0  0  0  0  0
   -4.9506   -2.0521    1.9514 H   0  0  0  0  0  0  0  0  0  0  0  0
   -4.5266   -2.7521    0.3674 H   0  0  0  0  0  0  0  0  0  0  0  0
   -2.8576   -2.0761    1.5184 C   0  0  0  0  0  0  0  0  0  0  0  0
   -1.9456   -2.7051    2.0404 O   0  0  0  0  0  0  0  0  0  0  0  0
   -2.6926   -0.8481    1.0174 N   0  0  0  0  0  0  0  0  0  0  0  0
   -3.4926   -0.3971    0.5954 H   0  0  0  0  0  0  0  0  0  0  0  0
   -1.4216   -0.1071    1.0434 C   0  0  1  0  0  0  0  0  0  0  0  0
   -1.6463    0.9603    1.0742 H   0  0  0  0  0  0  0  0  0  0  0  0
   -0.6593   -0.4909    2.3275 C   0  0  0  0  0  0  0  0  0  0  0  0
   -0.5744   -1.5786    2.3704 H   0  0  0  0  0  0  0  0  0  0  0  0
    0.3491   -0.0736    2.2822 H   0  0  0  0  0  0  0  0  0  0  0  0
   -1.3468   -0.0095    3.6136 C   0  0  0  0  0  0  0  0  0  0  0  0
   -1.4335    1.0779    3.6007 H   0  0  0  0  0  0  0  0  0  0  0  0
   -2.3424   -0.4497    3.6769 H   0  0  0  0  0  0  0  0  0  0  0  0
   -0.5226   -0.4335    4.8368 C   0  0  0  0  0  0  0  0  0  0  0  0
   -0.4182   -1.5209    4.8271 H   0  0  0  0  0  0  0  0  0  0  0  0
    0.4700    0.0166    4.7603 H   0  0  0  0  0  0  0  0  0  0  0  0
   -1.1602   -0.0111    6.1008 N   0  3  0  0  0  0  0  0  0  0  0  0
   -2.0054    0.5281    6.0222 H   0  0  0  0  0  0  0  0  0  0  0  0
   -0.7255   -0.2746    7.3217 C   0  0  0  0  0  0  0  0  0  0  0  0
    0.3591   -0.9649    7.5374 N   0  0  0  0  0  0  0  0  0  0  0  0
    0.8790   -1.3079    6.7491 H   0  0  0  0  0  0  0  0  0  0  0  0
    0.6754   -1.1557    8.4704 H   0  0  0  0  0  0  0  0  0  0  0  0
   -1.3797    0.1566    8.3625 N   0  0  0  0  0  0  0  0  0  0  0  0
   -2.2222    0.6931    8.2466 H   0  0  0  0  0  0  0  0  0  0  0  0
   -1.0465   -0.0457    9.2870 H   0  0  0  0  0  0  0  0  0  0  0  0
   -0.6034   -0.4026   -0.2153 C   0  0  0  0  0  0  0  0  0  0  0  0
   -1.0341   -1.1947   -1.0449 O   0  0  0  0  0  0  0  0  0  0  0  0
    0.5818    0.2051   -0.3287 N   0  0  0  0  0  0  0  0  0  0  0  0
    0.8405    0.8695    0.3823 H   0  0  0  0  0  0  0  0  0  0  0  0
    1.4845    0.0330   -1.4681 C   0  0  0  0  0  0  0  0  0  0  0  0
    1.0110    0.4143   -2.3753 H   0  0  0  0  0  0  0  0  0  0  0  0
    2.4167    0.5736   -1.2994 H   0  0  0  0  0  0  0  0  0  0  0  0
    1.7046   -1.0269   -1.6136 H   0  0  0  0  0  0  0  0  0  0  0  0
  5  6  2  0  0  0  0
  5  7  1  0  0  0  0
  2  3  1  0  0  0  0
  2  4  1  0  0  0  0
  2  5  1  0  0  0  0
  1  2  1  0  0  0  0
 29 30  2  0  0  0  0
 29 31  1  0  0  0  0
 26 27  1  0  0  0  0
 26 28  1  0  0  0  0
 23 24  1  0  0  0  0
 23 25  1  0  0  0  0
 22 23  1  0  0  0  0
 22 26  1  0  0  0  0
 20 21  1  0  0  0  0
 20 22  2  0  0  0  0
 17 18  1  0  0  0  0
 17 19  1  0  0  0  0
 17 20  1  0  0  0  0
 14 15  1  0  0  0  0
 14 16  1  0  0  0  0
 14 17  1  0  0  0  0
 11 12  1  0  0  0  0
 11 13  1  0  0  0  0
 11 14  1  0  0  0  0
  9 10  1  0  0  0  0
  9 11  1  0  0  0  0
  9 29  1  0  0  0  0
  7  8  1  0  0  0  0
  7  9  1  0  0  0  0
 33 34  1  0  0  0  0
 33 35  1  0  0  0  0
 33 36  1  0  0  0  0
 31 32  1  0  0  0  0
 31 33  1  0  0  0  0
M  CHG  1  20   1
M  END
$$$$
default_name
  -OEChem-01062215323D

 36 35  0     1  0  0  0  0  0999 V2000
   -4.2256   -3.6731    1.8584 H   0  0  0  0  0  0  0  0  0  0  0  0
   -4.2396   -2.6781    1.4144 C   0  0  0  0  0  0  0  0  0  0  0  0
   -4.9506   -2.0521    1.9514 H   0  0  0  0  0  0  0  0  0  0  0  0
   -4.5266   -2.7521    0.3674 H   0  0  0  0  0  0  0  0  0  0  0  0
   -2.8576   -2.0761    1.5184 C   0  0  0  0  0  0  0  0  0  0  0  0
   -1.9456   -2.7051    2.0404 O   0  0  0  0  0  0  0  0  0  0  0  0
   -2.6926   -0.8481    1.0174 N   0  0  0  0  0  0  0  0  0  0  0  0
   -3.4926   -0.3971    0.5954 H   0  0  0  0  0  0  0  0  0  0  0  0
   -1.4216   -0.1071    1.0434 C   0  0  1  0  0  0  0  0  0  0  0  0
   -1.6463    0.9603    1.0742 H   0  0  0  0  0  0  0  0  0  0  0  0
   -0.6593   -0.4909    2.3275 C   0  0  0  0  0  0  0  0  0  0  0  0
   -0.5744   -1.5786    2.3704 H   0  0  0  0  0  0  0  0  0  0  0  0
    0.3491   -0.0736    2.2822 H   0  0  0  0  0  0  0  0  0  0  0  0
   -1.3468   -0.0095    3.6136 C   0  0  0  0  0  0  0  0  0  0  0  0
   -1.4335    1.0779    3.6007 H   0  0  0  0  0  0  0  0  0  0  0  0
   -2.3424   -0.4497    3.6769 H   0  0  0  0  0  0  0  0  0  0  0  0
   -0.5226   -0.4335    4.8368 C   0  0  0  0  0  0  0  0  0  0  0  0
   -0.4182   -1.5209    4.8271 H   0  0  0  0  0  0  0  0  0  0  0  0
    0.4700    0.0166    4.7603 H   0  0  0  0  0  0  0  0  0  0  0  0
   -1.1602   -0.0111    6.1008 N   0  3  0  0  0  0  0  0  0  0  0  0
   -2.0054    0.5281    6.0222 H   0  0  0  0  0  0  0  0  0  0  0  0
   -0.7255   -0.2746    7.3217 C   0  0  0  0  0  0  0  0  0  0  0  0
    0.3591   -0.9649    7.5374 N   0  0  0  0  0  0  0  0  0  0  0  0
    0.8790   -1.3079    6.7491 H   0  0  0  0  0  0  0  0  0  0  0  0
    0.6754   -1.1557    8.4704 H   0  0  0  0  0  0  0  0  0  0  0  0
   -1.3797    0.1566    8.3625 N   0  0  0  0  0  0  0  0  0  0  0  0
   -2.2222    0.6931    8.2466 H   0  0  0  0  0  0  0  0  0  0  0  0
   -1.0465   -0.0457    9.2870 H   0  0  0  0  0  0  0  0  0  0  0  0
   -0.6034   -0.4026   -0.2153 C   0  0  0  0  0  0  0  0  0  0  0  0
   -1.1356   -0.9651   -1.1647 O   0  0  0  0  0  0  0  0  0  0  0  0
    0.6875   -0.0563   -0.1986 N   0  0  0  0  0  0  0  0  0  0  0  0
    1.0329    0.4357    0.6091 H   0  0  0  0  0  0  0  0  0  0  0  0
    1.6063   -0.2666   -1.3187 C   0  0  0  0  0  0  0  0  0  0  0  0
    1.2831    0.3254   -2.1776 H   0  0  0  0  0  0  0  0  0  0  0  0
    2.6181    0.0320   -1.0415 H   0  0  0  0  0  0  0  0  0  0  0  0
    1.6085   -1.3200   -1.6072 H   0  0  0  0  0  0  0  0  0  0  0  0
  5  6  2  0  0  0  0
  5  7  1  0  0  0  0
  2  3  1  0  0  0  0
  2  4  1  0  0  0  0
  2  5  1  0  0  0  0
  1  2  1  0  0  0  0
 29 30  2  0  0  0  0
 29 31  1  0  0  0  0
 26 27  1  0  0  0  0
 26 28  1  0  0  0  0
 23 24  1  0  0  0  0
 23 25  1  0  0  0  0
 22 23  1  0  0  0  0
 22 26  1  0  0  0  0
 20 21  1  0  0  0  0
 20 22  2  0  0  0  0
 17 18  1  0  0  0  0
 17 19  1  0  0  0  0
 17 20  1  0  0  0  0
 14 15  1  0  0  0  0
 14 16  1  0  0  0  0
 14 17  1  0  0  0  0
 11 12  1  0  0  0  0
 11 13  1  0  0  0  0
 11 14  1  0  0  0  0
  9 10  1  0  0  0  0
  9 11  1  0  0  0  0
  9 29  1  0  0  0  0
  7  8  1  0  0  0  0
  7  9  1  0  0  0  0
 33 34  1  0  0  0  0
 33 35  1  0  0  0  0
 33 36  1  0  0  0  0
 31 32  1  0  0  0  0
 31 33  1  0  0  0  0
M  CHG  1  20   1
M  END
$$$$
default_name
  -OEChem-01062215323D

 36 35  0     1  0  0  0  0  0999 V2000
   -4.2256   -3.6731    1.8584 H   0  0  0  0  0  0  0  0  0  0  0  0
   -4.2396   -2.6781    1.4144 C   0  0  0  0  0  0  0  0  0  0  0  0
   -4.9506   -2.0521    1.9514 H   0  0  0  0  0  0  0  0  0  0  0  0
   -4.5266   -2.7521    0.3674 H   0  0  0  0  0  0  0  0  0  0  0  0
   -2.8576   -2.0761    1.5184 C   0  0  0  0  0  0  0  0  0  0  0  0
   -1.9456   -2.7051    2.0404 O   0  0  0  0  0  0  0  0  0  0  0  0
   -2.6926   -0.8481    1.0174 N   0  0  0  0  0  0  0  0  0  0  0  0
   -3.4926   -0.3971    0.5954 H   0  0  0  0  0  0  0  0  0  0  0  0
   -1.4216   -0.1071    1.0434 C   0  0  1  0  0  0  0  0  0  0  0  0
   -1.6463    0.9603    1.0742 H   0  0  0  0  0  0  0  0  0  0  0  0
   -0.6593   -0.4909    2.3275 C   0  0  0  0  0  0  0  0  0  0  0  0
   -0.5744   -1.5786    2.3704 H   0  0  0  0  0  0  0  0  0  0  0  0
    0.3491   -0.0736    2.2822 H   0  0  0  0  0  0  0  0  0  0  0  0
   -1.3468   -0.0095    3.6136 C   0  0  0  0  0  0  0  0  0  0  0  0
   -1.4335    1.0779    3.6007 H   0  0  0  0  0  0  0  0  0  0  0  0
   -2.3424   -0.4497    3.6769 H   0  0  0  0  0  0  0  0  0  0  0  0
   -0.5226   -0.4335    4.8368 C   0  0  0  0  0  0  0  0  0  0  0  0
   -0.4182   -1.5209    4.8271 H   0  0  0  0  0  0  0  0  0  0  0  0
    0.4700    0.0166    4.7603 H   0  0  0  0  0  0  0  0  0  0  0  0
   -1.1602   -0.0111    6.1008 N   0  3  0  0  0  0  0  0  0  0  0  0
   -2.0054    0.5281    6.0222 H   0  0  0  0  0  0  0  0  0  0  0  0
   -0.7255   -0.2746    7.3217 C   0  0  0  0  0  0  0  0  0  0  0  0
    0.3591   -0.9649    7.5374 N   0  0  0  0  0  0  0  0  0  0  0  0
    0.8790   -1.3079    6.7491 H   0  0  0  0  0  0  0  0  0  0  0  0
    0.6754   -1.1557    8.4704 H   0  0  0  0  0  0  0  0  0  0  0  0
   -1.3797    0.1566    8.3625 N   0  0  0  0  0  0  0  0  0  0  0  0
   -2.2222    0.6931    8.2466 H   0  0  0  0  0  0  0  0  0  0  0  0
   -1.0465   -0.0457    9.2870 H   0  0  0  0  0  0  0  0  0  0  0  0
   -0.6034   -0.4026   -0.2153 C   0  0  0  0  0  0  0  0  0  0  0  0
   -1.1788   -0.7052   -1.2538 O   0  0  0  0  0  0  0  0  0  0  0  0
    0.7276   -0.3493   -0.1039 N   0  0  0  0  0  0  0  0  0  0  0  0
    1.1151   -0.0556    0.7778 H   0  0  0  0  0  0  0  0  0  0  0  0
    1.6527   -0.6026   -1.2097 C   0  0  0  0  0  0  0  0  0  0  0  0
    1.5171    0.1541   -1.9853 H   0  0  0  0  0  0  0  0  0  0  0  0
    2.6844   -0.5696   -0.8572 H   0  0  0  0  0  0  0  0  0  0  0  0
    1.4530   -1.5836   -1.6465 H   0  0  0  0  0  0  0  0  0  0  0  0
  5  6  2  0  0  0  0
  5  7  1  0  0  0  0
  2  3  1  0  0  0  0
  2  4  1  0  0  0  0
  2  5  1  0  0  0  0
  1  2  1  0  0  0  0
 29 30  2  0  0  0  0
 29 31  1  0  0  0  0
 26 27  1  0  0  0  0
 26 28  1  0  0  0  0
 23 24  1  0  0  0  0
 23 25  1  0  0  0  0
 22 23  1  0  0  0  0
 22 26  1  0  0  0  0
 20 21  1  0  0  0  0
 20 22  2  0  0  0  0
 17 18  1  0  0  0  0
 17 19  1  0  0  0  0
 17 20  1  0  0  0  0
 14 15  1  0  0  0  0
 14 16  1  0  0  0  0
 14 17  1  0  0  0  0
 11 12  1  0  0  0  0
 11 13  1  0  0  0  0
 11 14  1  0  0  0  0
  9 10  1  0  0  0  0
  9 11  1  0  0  0  0
  9 29  1  0  0  0  0
  7  8  1  0  0  0  0
  7  9  1  0  0  0  0
 33 34  1  0  0  0  0
 33 35  1  0  0  0  0
 33 36  1  0  0  0  0
 31 32  1  0  0  0  0
 31 33  1  0  0  0  0
M  CHG  1  20   1
M  END
$$$$
default_name
  -OEChem-01062215323D

 36 35  0     1  0  0  0  0  0999 V2000
   -4.2256   -3.6731    1.8584 H   0  0  0  0  0  0  0  0  0  0  0  0
   -4.2396   -2.6781    1.4144 C   0  0  0  0  0  0  0  0  0  0  0  0
   -4.9506   -2.0521    1.9514 H   0  0  0  0  0  0  0  0  0  0  0  0
   -4.5266   -2.7521    0.3674 H   0  0  0  0  0  0  0  0  0  0  0  0
   -2.8576   -2.0761    1.5184 C   0  0  0  0  0  0  0  0  0  0  0  0
   -1.9456   -2.7051    2.0404 O   0  0  0  0  0  0  0  0  0  0  0  0
   -2.6926   -0.8481    1.0174 N   0  0  0  0  0  0  0  0  0  0  0  0
   -3.4926   -0.3971    0.5954 H   0  0  0  0  0  0  0  0  0  0  0  0
   -1.4216   -0.1071    1.0434 C   0  0  1  0  0  0  0  0  0  0  0  0
   -1.6463    0.9603    1.0742 H   0  0  0  0  0  0  0  0  0  0  0  0
   -0.6593   -0.4909    2.3275 C   0  0  0  0  0  0  0  0  0  0  0  0
   -0.5744   -1.5786    2.3704 H   0  0  0  0  0  0  0  0  0  0  0  0
    0.3491   -0.0736    2.2822 H   0  0  0  0  0  0  0  0  0  0  0  0
   -1.3468   -0.0095    3.6136 C   0  0  0  0  0  0  0  0  0  0  0  0
   -1.4335    1.0779    3.6007 H   0  0  0  0  0  0  0  0  0  0  0  0
   -2.3424   -0.4497    3.6769 H   0  0  0  0  0  0  0  0  0  0  0  0
   -0.5226   -0.4335    4.8368 C   0  0  0  0  0  0  0  0  0  0  0  0
   -0.4182   -1.5209    4.8271 H   0  0  0  0  0  0  0  0  0  0  0  0
    0.4700    0.0166    4.7603 H   0  0  0  0  0  0  0  0  0  0  0  0
   -1.1602   -0.0111    6.1008 N   0  3  0  0  0  0  0  0  0  0  0  0
   -2.0054    0.5281    6.0222 H   0  0  0  0  0  0  0  0  0  0  0  0
   -0.7255   -0.2746    7.3217 C   0  0  0  0  0  0  0  0  0  0  0  0
    0.3591   -0.9649    7.5374 N   0  0  0  0  0  0  0  0  0  0  0  0
    0.8790   -1.3079    6.7491 H   0  0  0  0  0  0  0  0  0  0  0  0
    0.6754   -1.1557    8.4704 H   0  0  0  0  0  0  0  0  0  0  0  0
   -1.3797    0.1566    8.3625 N   0  0  0  0  0  0  0  0  0  0  0  0
   -2.2222    0.6931    8.2466 H   0  0  0  0  0  0  0  0  0  0  0  0
   -1.0465   -0.0457    9.2870 H   0  0  0  0  0  0  0  0  0  0  0  0
   -0.6034   -0.4026   -0.2153 C   0  0  0  0  0  0  0  0  0  0  0  0
   -1.1607   -0.4327   -1.3060 O   0  0  0  0  0  0  0  0  0  0  0  0
    0.6991   -0.6540   -0.0509 N   0  0  0  0  0  0  0  0  0  0  0  0
    1.0815   -0.5710    0.8769 H   0  0  0  0  0  0  0  0  0  0  0  0
    1.6205   -0.9522   -1.1486 C   0  0  0  0  0  0  0  0  0  0  0  0
    1.6970   -0.0877   -1.8116 H   0  0  0  0  0  0  0  0  0  0  0  0
    2.6111   -1.1904   -0.7591 H   0  0  0  0  0  0  0  0  0  0  0  0
    1.2486   -1.7996   -1.7286 H   0  0  0  0  0  0  0  0  0  0  0  0
  5  6  2  0  0  0  0
  5  7  1  0  0  0  0
  2  3  1  0  0  0  0
  2  4  1  0  0  0  0
  2  5  1  0  0  0  0
  1  2  1  0  0  0  0
 29 30  2  0  0  0  0
 29 31  1  0  0  0  0
 26 27  1  0  0  0  0
 26 28  1  0  0  0  0
 23 24  1  0  0  0  0
 23 25  1  0  0  0  0
 22 23  1  0  0  0  0
 22 26  1  0  0  0  0
 20 21  1  0  0  0  0
 20 22  2  0  0  0  0
 17 18  1  0  0  0  0
 17 19  1  0  0  0  0
 17 20  1  0  0  0  0
 14 15  1  0  0  0  0
 14 16  1  0  0  0  0
 14 17  1  0  0  0  0
 11 12  1  0  0  0  0
 11 13  1  0  0  0  0
 11 14  1  0  0  0  0
  9 10  1  0  0  0  0
  9 11  1  0  0  0  0
  9 29  1  0  0  0  0
  7  8  1  0  0  0  0
  7  9  1  0  0  0  0
 33 34  1  0  0  0  0
 33 35  1  0  0  0  0
 33 36  1  0  0  0  0
 31 32  1  0  0  0  0
 31 33  1  0  0  0  0
M  CHG  1  20   1
M  END
$$$$
default_name
  -OEChem-01062215323D

 36 35  0     1  0  0  0  0  0999 V2000
   -4.2256   -3.6731    1.8584 H   0  0  0  0  0  0  0  0  0  0  0  0
   -4.2396   -2.6781    1.4144 C   0  0  0  0  0  0  0  0  0  0  0  0
   -4.9506   -2.0521    1.9514 H   0  0  0  0  0  0  0  0  0  0  0  0
   -4.5266   -2.7521    0.3674 H   0  0  0  0  0  0  0  0  0  0  0  0
   -2.8576   -2.0761    1.5184 C   0  0  0  0  0  0  0  0  0  0  0  0
   -1.9456   -2.7051    2.0404 O   0  0  0  0  0  0  0  0  0  0  0  0
   -2.6926   -0.8481    1.0174 N   0  0  0  0  0  0  0  0  0  0  0  0
   -3.4926   -0.3971    0.5954 H   0  0  0  0  0  0  0  0  0  0  0  0
   -1.4216   -0.1071    1.0434 C   0  0  1  0  0  0  0  0  0  0  0  0
   -1.6463    0.9603    1.0742 H   0  0  0  0  0  0  0  0  0  0  0  0
   -0.6593   -0.4909    2.3275 C   0  0  0  0  0  0  0  0  0  0  0  0
   -0.5744   -1.5786    2.3704 H   0  0  0  0  0  0  0  0  0  0  0  0
    0.3491   -0.0736    2.2822 H   0  0  0  0  0  0  0  0  0  0  0  0
   -1.3468   -0.0095    3.6136 C   0  0  0  0  0  0  0  0  0  0  0  0
   -1.4335    1.0779    3.6007 H   0  0  0  0  0  0  0  0  0  0  0  0
   -2.3424   -0.4497    3.6769 H   0  0  0  0  0  0  0  0  0  0  0  0
   -0.5226   -0.4335    4.8368 C   0  0  0  0  0  0  0  0  0  0  0  0
   -0.4182   -1.5209    4.8271 H   0  0  0  0  0  0  0  0  0  0  0  0
    0.4700    0.0166    4.7603 H   0  0  0  0  0  0  0  0  0  0  0  0
   -1.1602   -0.0111    6.1008 N   0  3  0  0  0  0  0  0  0  0  0  0
   -2.0054    0.5281    6.0222 H   0  0  0  0  0  0  0  0  0  0  0  0
   -0.7255   -0.2746    7.3217 C   0  0  0  0  0  0  0  0  0  0  0  0
    0.3591   -0.9649    7.5374 N   0  0  0  0  0  0  0  0  0  0  0  0
    0.8790   -1.3079    6.7491 H   0  0  0  0  0  0  0  0  0  0  0  0
    0.6754   -1.1557    8.4704 H   0  0  0  0  0  0  0  0  0  0  0  0
   -1.3797    0.1566    8.3625 N   0  0  0  0  0  0  0  0  0  0  0  0
   -2.2222    0.6931    8.2466 H   0  0  0  0  0  0  0  0  0  0  0  0
   -1.0465   -0.0457    9.2870 H   0  0  0  0  0  0  0  0  0  0  0  0
   -0.6034   -0.4026   -0.2153 C   0  0  0  0  0  0  0  0  0  0  0  0
   -1.0826   -0.1660   -1.3178 O   0  0  0  0  0  0  0  0  0  0  0  0
    0.6041   -0.9495   -0.0433 N   0  0  0  0  0  0  0  0  0  0  0  0
    0.9342   -1.0754    0.8996 H   0  0  0  0  0  0  0  0  0  0  0  0
    1.5119   -1.2914   -1.1395 C   0  0  0  0  0  0  0  0  0  0  0  0
    1.8107   -0.3837   -1.6683 H   0  0  0  0  0  0  0  0  0  0  0  0
    2.4032   -1.7880   -0.7540 H   0  0  0  0  0  0  0  0  0  0  0  0
    1.0093   -1.9534   -1.8481 H   0  0  0  0  0  0  0  0  0  0  0  0
  5  6  2  0  0  0  0
  5  7  1  0  0  0  0
  2  3  1  0  0  0  0
  2  4  1  0  0  0  0
  2  5  1  0  0  0  0
  1  2  1  0  0  0  0
 29 30  2  0  0  0  0
 29 31  1  0  0  0  0
 26 27  1  0  0  0  0
 26 28  1  0  0  0  0
 23 24  1  0  0  0  0
 23 25  1  0  0  0  0
 22 23  1  0  0  0  0
 22 26  1  0  0  0  0
 20 21  1  0  0  0  0
 20 22  2  0  0  0  0
 17 18  1  0  0  0  0
 17 19  1  0  0  0  0
 17 20  1  0  0  0  0
 14 15  1  0  0  0  0
 14 16  1  0  0  0  0
 14 17  1  0  0  0  0
 11 12  1  0  0  0  0
 11 13  1  0  0  0  0
 11 14  1  0  0  0  0
  9 10  1  0  0  0  0
  9 11  1  0  0  0  0
  9 29  1  0  0  0  0
  7  8  1  0  0  0  0
  7  9  1  0  0  0  0
 33 34  1  0  0  0  0
 33 35  1  0  0  0  0
 33 36  1  0  0  0  0
 31 32  1  0  0  0  0
 31 33  1  0  0  0  0
M  CHG  1  20   1
M  END
$$$$
default_name
  -OEChem-01062215323D

 36 35  0     1  0  0  0  0  0999 V2000
   -4.2256   -3.6731    1.8584 H   0  0  0  0  0  0  0  0  0  0  0  0
   -4.2396   -2.6781    1.4144 C   0  0  0  0  0  0  0  0  0  0  0  0
   -4.9506   -2.0521    1.9514 H   0  0  0  0  0  0  0  0  0  0  0  0
   -4.5266   -2.7521    0.3674 H   0  0  0  0  0  0  0  0  0  0  0  0
   -2.8576   -2.0761    1.5184 C   0  0  0  0  0  0  0  0  0  0  0  0
   -1.9456   -2.7051    2.0404 O   0  0  0  0  0  0  0  0  0  0  0  0
   -2.6926   -0.8481    1.0174 N   0  0  0  0  0  0  0  0  0  0  0  0
   -3.4926   -0.3971    0.5954 H   0  0  0  0  0  0  0  0  0  0  0  0
   -1.4216   -0.1071    1.0434 C   0  0  1  0  0  0  0  0  0  0  0  0
   -1.6463    0.9603    1.0742 H   0  0  0  0  0  0  0  0  0  0  0  0
   -0.6593   -0.4909    2.3275 C   0  0  0  0  0  0  0  0  0  0  0  0
   -0.5744   -1.5786    2.3704 H   0  0  0  0  0  0  0  0  0  0  0  0
    0.3491   -0.0736    2.2822 H   0  0  0  0  0  0  0  0  0  0  0  0
   -1.3468   -0.0095    3.6136 C   0  0  0  0  0  0  0  0  0  0  0  0
   -1.4335    1.0779    3.6007 H   0  0  0  0  0  0  0  0  0  0  0  0
   -2.3424   -0.4497    3.6769 H   0  0  0  0  0  0  0  0  0  0  0  0
   -0.5226   -0.4335    4.8368 C   0  0  0  0  0  0  0  0  0  0  0  0
   -0.4182   -1.5209    4.8271 H   0  0  0  0  0  0  0  0  0  0  0  0
    0.4700    0.0166    4.7603 H   0  0  0  0  0  0  0  0  0  0  0  0
   -1.1602   -0.0111    6.1008 N   0  3  0  0  0  0  0  0  0  0  0  0
   -2.0054    0.5281    6.0222 H   0  0  0  0  0  0  0  0  0  0  0  0
   -0.7255   -0.2746    7.3217 C   0  0  0  0  0  0  0  0  0  0  0  0
    0.3591   -0.9649    7.5374 N   0  0  0  0  0  0  0  0  0  0  0  0
    0.8790   -1.3079    6.7491 H   0  0  0  0  0  0  0  0  0  0  0  0
    0.6754   -1.1557    8.4704 H   0  0  0  0  0  0  0  0  0  0  0  0
   -1.3797    0.1566    8.3625 N   0  0  0  0  0  0  0  0  0  0  0  0
   -2.2222    0.6931    8.2466 H   0  0  0  0  0  0  0  0  0  0  0  0
   -1.0465   -0.0457    9.2870 H   0  0  0  0  0  0  0  0  0  0  0  0
   -0.6034   -0.4026   -0.2153 C   0  0  0  0  0  0  0  0  0  0  0  0
   -0.9498    0.0766   -1.2884 O   0  0  0  0  0  0  0  0  0  0  0  0
    0.4490   -1.2158   -0.0816 N   0  0  0  0  0  0  0  0  0  0  0  0
    0.6835   -1.5344    0.8444 H   0  0  0  0  0  0  0  0  0  0  0  0
    1.3343   -1.5971   -1.1832 C   0  0  0  0  0  0  0  0  0  0  0  0
    1.8503   -0.7136   -1.5651 H   0  0  0  0  0  0  0  0  0  0  0  0
    2.0749   -2.3217   -0.8421 H   0  0  0  0  0  0  0  0  0  0  0  0
    0.7514   -2.0344   -1.9967 H   0  0  0  0  0  0  0  0  0  0  0  0
  5  6  2  0  0  0  0
  5  7  1  0  0  0  0
  2  3  1  0  0  0  0
  2  4  1  0  0  0  0
  2  5  1  0  0  0  0
  1  2  1  0  0  0  0
 29 30  2  0  0  0  0
 29 31  1  0  0  0  0
 26 27  1  0  0  0  0
 26 28  1  0  0  0  0
 23 24  1  0  0  0  0
 23 25  1  0  0  0  0
 22 23  1  0  0  0  0
 22 26  1  0  0  0  0
 20 21  1  0  0  0  0
 20 22  2  0  0  0  0
 17 18  1  0  0  0  0
 17 19  1  0  0  0  0
 17 20  1  0  0  0  0
 14 15  1  0  0  0  0
 14 16  1  0  0  0  0
 14 17  1  0  0  0  0
 11 12  1  0  0  0  0
 11 13  1  0  0  0  0
 11 14  1  0  0  0  0
  9 10  1  0  0  0  0
  9 11  1  0  0  0  0
  9 29  1  0  0  0  0
  7  8  1  0  0  0  0
  7  9  1  0  0  0  0
 33 34  1  0  0  0  0
 33 35  1  0  0  0  0
 33 36  1  0  0  0  0
 31 32  1  0  0  0  0
 31 33  1  0  0  0  0
M  CHG  1  20   1
M  END
$$$$
default_name
  -OEChem-01062215323D

 36 35  0     1  0  0  0  0  0999 V2000
   -4.2256   -3.6731    1.8584 H   0  0  0  0  0  0  0  0  0  0  0  0
   -4.2396   -2.6781    1.4144 C   0  0  0  0  0  0  0  0  0  0  0  0
   -4.9506   -2.0521    1.9514 H   0  0  0  0  0  0  0  0  0  0  0  0
   -4.5266   -2.7521    0.3674 H   0  0  0  0  0  0  0  0  0  0  0  0
   -2.8576   -2.0761    1.5184 C   0  0  0  0  0  0  0  0  0  0  0  0
   -1.9456   -2.7051    2.0404 O   0  0  0  0  0  0  0  0  0  0  0  0
   -2.6926   -0.8481    1.0174 N   0  0  0  0  0  0  0  0  0  0  0  0
   -3.4926   -0.3971    0.5954 H   0  0  0  0  0  0  0  0  0  0  0  0
   -1.4216   -0.1071    1.0434 C   0  0  1  0  0  0  0  0  0  0  0  0
   -1.6463    0.9603    1.0742 H   0  0  0  0  0  0  0  0  0  0  0  0
   -0.6593   -0.4909    2.3275 C   0  0  0  0  0  0  0  0  0  0  0  0
   -0.5744   -1.5786    2.3704 H   0  0  0  0  0  0  0  0  0  0  0  0
    0.3491   -0.0736    2.2822 H   0  0  0  0  0  0  0  0  0  0  0  0
   -1.3468   -0.0095    3.6136 C   0  0  0  0  0  0  0  0  0  0  0  0
   -1.4335    1.0779    3.6007 H   0  0  0  0  0  0  0  0  0  0  0  0
   -2.3424   -0.4497    3.6769 H   0  0  0  0  0  0  0  0  0  0  0  0
   -0.5226   -0.4335    4.8368 C   0  0  0  0  0  0  0  0  0  0  0  0
   -0.4182   -1.5209    4.8271 H   0  0  0  0  0  0  0  0  0  0  0  0
    0.4700    0.0166    4.7603 H   0  0  0  0  0  0  0  0  0  0  0  0
   -1.1602   -0.0111    6.1008 N   0  3  0  0  0  0  0  0  0  0  0  0
   -2.0054    0.5281    6.0222 H   0  0  0  0  0  0  0  0  0  0  0  0
   -0.7255   -0.2746    7.3217 C   0  0  0  0  0  0  0  0  0  0  0  0
    0.3591   -0.9649    7.5374 N   0  0  0  0  0  0  0  0  0  0  0  0
    0.8790   -1.3079    6.7491 H   0  0  0  0  0  0  0  0  0  0  0  0
    0.6754   -1.1557    8.4704 H   0  0  0  0  0  0  0  0  0  0  0  0
   -1.3797    0.1566    8.3625 N   0  0  0  0  0  0  0  0  0  0  0  0
   -2.2222    0.6931    8.2466 H   0  0  0  0  0  0  0  0  0  0  0  0
   -1.0465   -0.0457    9.2870 H   0  0  0  0  0  0  0  0  0  0  0  0
   -0.6034   -0.4026   -0.2153 C   0  0  0  0  0  0  0  0  0  0  0  0
   -0.7714    0.2785   -1.2198 O   0  0  0  0  0  0  0  0  0  0  0  0
    0.2444   -1.4347   -0.1632 N   0  0  0  0  0  0  0  0  0  0  0  0
    0.3463   -1.9167    0.7149 H   0  0  0  0  0  0  0  0  0  0  0  0
    1.0999   -1.8487   -1.2765 C   0  0  0  0  0  0  0  0  0  0  0  0
    1.8131   -1.0550   -1.5092 H   0  0  0  0  0  0  0  0  0  0  0  0
    1.6486   -2.7551   -1.0175 H   0  0  0  0  0  0  0  0  0  0  0  0
    0.4924   -2.0373   -2.1644 H   0  0  0  0  0  0  0  0  0  0  0  0
  5  6  2  0  0  0  0
  5  7  1  0  0  0  0
  2  3  1  0  0  0  0
  2  4  1  0  0  0  0
  2  5  1  0  0  0  0
  1  2  1  0  0  0  0
 29 30  2  0  0  0  0
 29 31  1  0  0  0  0
 26 27  1  0  0  0  0
 26 28  1  0  0  0  0
 23 24  1  0  0  0  0
 23 25  1  0  0  0  0
 22 23  1  0  0  0  0
 22 26  1  0  0  0  0
 20 21  1  0  0  0  0
 20 22  2  0  0  0  0
 17 18  1  0  0  0  0
 17 19  1  0  0  0  0
 17 20  1  0  0  0  0
 14 15  1  0  0  0  0
 14 16  1  0  0  0  0
 14 17  1  0  0  0  0
 11 12  1  0  0  0  0
 11 13  1  0  0  0  0
 11 14  1  0  0  0  0
  9 10  1  0  0  0  0
  9 11  1  0  0  0  0
  9 29  1  0  0  0  0
  7  8  1  0  0  0  0
  7  9  1  0  0  0  0
 33 34  1  0  0  0  0
 33 35  1  0  0  0  0
 33 36  1  0  0  0  0
 31 32  1  0  0  0  0
 31 33  1  0  0  0  0
M  CHG  1  20   1
M  END
$$$$
default_name
  -OEChem-01062215323D

 36 35  0     1  0  0  0  0  0999 V2000
   -4.2256   -3.6731    1.8584 H   0  0  0  0  0  0  0  0  0  0  0  0
   -4.2396   -2.6781    1.4144 C   0  0  0  0  0  0  0  0  0  0  0  0
   -4.9506   -2.0521    1.9514 H   0  0  0  0  0  0  0  0  0  0  0  0
   -4.5266   -2.7521    0.3674 H   0  0  0  0  0  0  0  0  0  0  0  0
   -2.8576   -2.0761    1.5184 C   0  0  0  0  0  0  0  0  0  0  0  0
   -1.9456   -2.7051    2.0404 O   0  0  0  0  0  0  0  0  0  0  0  0
   -2.6926   -0.8481    1.0174 N   0  0  0  0  0  0  0  0  0  0  0  0
   -3.4926   -0.3971    0.5954 H   0  0  0  0  0  0  0  0  0  0  0  0
   -1.4216   -0.1071    1.0434 C   0  0  1  0  0  0  0  0  0  0  0  0
   -1.6463    0.9603    1.0742 H   0  0  0  0  0  0  0  0  0  0  0  0
   -0.6593   -0.4909    2.3275 C   0  0  0  0  0  0  0  0  0  0  0  0
   -0.5744   -1.5786    2.3704 H   0  0  0  0  0  0  0  0  0  0  0  0
    0.3491   -0.0736    2.2822 H   0  0  0  0  0  0  0  0  0  0  0  0
   -1.3468   -0.0095    3.6136 C   0  0  0  0  0  0  0  0  0  0  0  0
   -1.4335    1.0779    3.6007 H   0  0  0  0  0  0  0  0  0  0  0  0
   -2.3424   -0.4497    3.6769 H   0  0  0  0  0  0  0  0  0  0  0  0
   -0.5226   -0.4335    4.8368 C   0  0  0  0  0  0  0  0  0  0  0  0
   -0.4182   -1.5209    4.8271 H   0  0  0  0  0  0  0  0  0  0  0  0
    0.4700    0.0166    4.7603 H   0  0  0  0  0  0  0  0  0  0  0  0
   -1.1602   -0.0111    6.1008 N   0  3  0  0  0  0  0  0  0  0  0  0
   -2.0054    0.5281    6.0222 H   0  0  0  0  0  0  0  0  0  0  0  0
   -0.7255   -0.2746    7.3217 C   0  0  0  0  0  0  0  0  0  0  0  0
    0.3591   -0.9649    7.5374 N   0  0  0  0  0  0  0  0  0  0  0  0
    0.8790   -1.3079    6.7491 H   0  0  0  0  0  0  0  0  0  0  0  0
    0.6754   -1.1557    8.4704 H   0  0  0  0  0  0  0  0  0  0  0  0
   -1.3797    0.1566    8.3625 N   0  0  0  0  0  0  0  0  0  0  0  0
   -2.2222    0.6931    8.2466 H   0  0  0  0  0  0  0  0  0  0  0  0
   -1.0465   -0.0457    9.2870 H   0  0  0  0  0  0  0  0  0  0  0  0
   -0.6034   -0.4026   -0.2153 C   0  0  0  0  0  0  0  0  0  0  0  0
   -0.5594    0.4261   -1.1167 O   0  0  0  0  0  0  0  0  0  0  0  0
    0.0042   -1.5912   -0.2825 N   0  0  0  0  0  0  0  0  0  0  0  0
   -0.0543   -2.1963    0.5202 H   0  0  0  0  0  0  0  0  0  0  0  0
    0.8246   -2.0288   -1.4132 C   0  0  0  0  0  0  0  0  0  0  0  0
    1.7017   -1.3846   -1.5042 H   0  0  0  0  0  0  0  0  0  0  0  0
    1.1533   -3.0587   -1.2682 H   0  0  0  0  0  0  0  0  0  0  0  0
    0.2500   -1.9616   -2.3396 H   0  0  0  0  0  0  0  0  0  0  0  0
  5  6  2  0  0  0  0
  5  7  1  0  0  0  0
  2  3  1  0  0  0  0
  2  4  1  0  0  0  0
  2  5  1  0  0  0  0
  1  2  1  0  0  0  0
 29 30  2  0  0  0  0
 29 31  1  0  0  0  0
 26 27  1  0  0  0  0
 26 28  1  0  0  0  0
 23 24  1  0  0  0  0
 23 25  1  0  0  0  0
 22 23  1  0  0  0  0
 22 26  1  0  0  0  0
 20 21  1  0  0  0  0
 20 22  2  0  0  0  0
 17 18  1  0  0  0  0
 17 19  1  0  0  0  0
 17 20  1  0  0  0  0
 14 15  1  0  0  0  0
 14 16  1  0  0  0  0
 14 17  1  0  0  0  0
 11 12  1  0  0  0  0
 11 13  1  0  0  0  0
 11 14  1  0  0  0  0
  9 10  1  0  0  0  0
  9 11  1  0  0  0  0
  9 29  1  0  0  0  0
  7  8  1  0  0  0  0
  7  9  1  0  0  0  0
 33 34  1  0  0  0  0
 33 35  1  0  0  0  0
 33 36  1  0  0  0  0
 31 32  1  0  0  0  0
 31 33  1  0  0  0  0
M  CHG  1  20   1
M  END
$$$$
default_name
  -OEChem-01062215323D

 36 35  0     1  0  0  0  0  0999 V2000
   -4.2256   -3.6731    1.8584 H   0  0  0  0  0  0  0  0  0  0  0  0
   -4.2396   -2.6781    1.4144 C   0  0  0  0  0  0  0  0  0  0  0  0
   -4.9506   -2.0521    1.9514 H   0  0  0  0  0  0  0  0  0  0  0  0
   -4.5266   -2.7521    0.3674 H   0  0  0  0  0  0  0  0  0  0  0  0
   -2.8576   -2.0761    1.5184 C   0  0  0  0  0  0  0  0  0  0  0  0
   -1.9456   -2.7051    2.0404 O   0  0  0  0  0  0  0  0  0  0  0  0
   -2.6926   -0.8481    1.0174 N   0  0  0  0  0  0  0  0  0  0  0  0
   -3.4926   -0.3971    0.5954 H   0  0  0  0  0  0  0  0  0  0  0  0
   -1.4216   -0.1071    1.0434 C   0  0  1  0  0  0  0  0  0  0  0  0
   -1.6463    0.9603    1.0742 H   0  0  0  0  0  0  0  0  0  0  0  0
   -0.6593   -0.4909    2.3275 C   0  0  0  0  0  0  0  0  0  0  0  0
   -0.5744   -1.5786    2.3704 H   0  0  0  0  0  0  0  0  0  0  0  0
    0.3491   -0.0736    2.2822 H   0  0  0  0  0  0  0  0  0  0  0  0
   -1.3468   -0.0095    3.6136 C   0  0  0  0  0  0  0  0  0  0  0  0
   -1.4335    1.0779    3.6007 H   0  0  0  0  0  0  0  0  0  0  0  0
   -2.3424   -0.4497    3.6769 H   0  0  0  0  0  0  0  0  0  0  0  0
   -0.5226   -0.4335    4.8368 C   0  0  0  0  0  0  0  0  0  0  0  0
   -0.4182   -1.5209    4.8271 H   0  0  0  0  0  0  0  0  0  0  0  0
    0.4700    0.0166    4.7603 H   0  0  0  0  0  0  0  0  0  0  0  0
   -1.1602   -0.0111    6.1008 N   0  3  0  0  0  0  0  0  0  0  0  0
   -2.0054    0.5281    6.0222 H   0  0  0  0  0  0  0  0  0  0  0  0
   -0.7255   -0.2746    7.3217 C   0  0  0  0  0  0  0  0  0  0  0  0
    0.3591   -0.9649    7.5374 N   0  0  0  0  0  0  0  0  0  0  0  0
    0.8790   -1.3079    6.7491 H   0  0  0  0  0  0  0  0  0  0  0  0
    0.6754   -1.1557    8.4704 H   0  0  0  0  0  0  0  0  0  0  0  0
   -1.3797    0.1566    8.3625 N   0  0  0  0  0  0  0  0  0  0  0  0
   -2.2222    0.6931    8.2466 H   0  0  0  0  0  0  0  0  0  0  0  0
   -1.0465   -0.0457    9.2870 H   0  0  0  0  0  0  0  0  0  0  0  0
   -0.6034   -0.4026   -0.2153 C   0  0  0  0  0  0  0  0  0  0  0  0
   -0.3284    0.5093   -0.9861 O   0  0  0  0  0  0  0  0  0  0  0  0
   -0.2551   -1.6748   -0.4315 N   0  0  0  0  0  0  0  0  0  0  0  0
   -0.4911   -2.3541    0.2733 H   0  0  0  0  0  0  0  0  0  0  0  0
    0.5271   -2.1252   -1.5839 C   0  0  0  0  0  0  0  0  0  0  0  0
    1.5237   -1.6799   -1.5506 H   0  0  0  0  0  0  0  0  0  0  0  0
    0.6227   -3.2117   -1.5771 H   0  0  0  0  0  0  0  0  0  0  0  0
    0.0408   -1.8127   -2.5106 H   0  0  0  0  0  0  0  0  0  0  0  0
  5  6  2  0  0  0  0
  5  7  1  0  0  0  0
  2  3  1  0  0  0  0
  2  4  1  0  0  0  0
  2  5  1  0  0  0  0
  1  2  1  0  0  0  0
 29 30  2  0  0  0  0
 29 31  1  0  0  0  0
 26 27  1  0  0  0  0
 26 28  1  0  0  0  0
 23 24  1  0  0  0  0
 23 25  1  0  0  0  0
 22 23  1  0  0  0  0
 22 26  1  0  0  0  0
 20 21  1  0  0  0  0
 20 22  2  0  0  0  0
 17 18  1  0  0  0  0
 17 19  1  0  0  0  0
 17 20  1  0  0  0  0
 14 15  1  0  0  0  0
 14 16  1  0  0  0  0
 14 17  1  0  0  0  0
 11 12  1  0  0  0  0
 11 13  1  0  0  0  0
 11 14  1  0  0  0  0
  9 10  1  0  0  0  0
  9 11  1  0  0  0  0
  9 29  1  0  0  0  0
  7  8  1  0  0  0  0
  7  9  1  0  0  0  0
 33 34  1  0  0  0  0
 33 35  1  0  0  0  0
 33 36  1  0  0  0  0
 31 32  1  0  0  0  0
 31 33  1  0  0  0  0
M  CHG  1  20   1
M  END
$$$$
default_name
  -OEChem-01062215323D

 36 35  0     1  0  0  0  0  0999 V2000
   -4.2256   -3.6731    1.8584 H   0  0  0  0  0  0  0  0  0  0  0  0
   -4.2396   -2.6781    1.4144 C   0  0  0  0  0  0  0  0  0  0  0  0
   -4.9506   -2.0521    1.9514 H   0  0  0  0  0  0  0  0  0  0  0  0
   -4.5266   -2.7521    0.3674 H   0  0  0  0  0  0  0  0  0  0  0  0
   -2.8576   -2.0761    1.5184 C   0  0  0  0  0  0  0  0  0  0  0  0
   -1.9456   -2.7051    2.0404 O   0  0  0  0  0  0  0  0  0  0  0  0
   -2.6926   -0.8481    1.0174 N   0  0  0  0  0  0  0  0  0  0  0  0
   -3.4926   -0.3971    0.5954 H   0  0  0  0  0  0  0  0  0  0  0  0
   -1.4216   -0.1071    1.0434 C   0  0  1  0  0  0  0  0  0  0  0  0
   -1.6463    0.9603    1.0742 H   0  0  0  0  0  0  0  0  0  0  0  0
   -0.6593   -0.4909    2.3275 C   0  0  0  0  0  0  0  0  0  0  0  0
   -0.5744   -1.5786    2.3704 H   0  0  0  0  0  0  0  0  0  0  0  0
    0.3491   -0.0736    2.2822 H   0  0  0  0  0  0  0  0  0  0  0  0
   -1.3468   -0.0095    3.6136 C   0  0  0  0  0  0  0  0  0  0  0  0
   -1.4335    1.0779    3.6007 H   0  0  0  0  0  0  0  0  0  0  0  0
   -2.3424   -0.4497    3.6769 H   0  0  0  0  0  0  0  0  0  0  0  0
   -0.5226   -0.4335    4.8368 C   0  0  0  0  0  0  0  0  0  0  0  0
   -0.4182   -1.5209    4.8271 H   0  0  0  0  0  0  0  0  0  0  0  0
    0.4700    0.0166    4.7603 H   0  0  0  0  0  0  0  0  0  0  0  0
   -1.1602   -0.0111    6.1008 N   0  3  0  0  0  0  0  0  0  0  0  0
   -2.0054    0.5281    6.0222 H   0  0  0  0  0  0  0  0  0  0  0  0
   -0.7255   -0.2746    7.3217 C   0  0  0  0  0  0  0  0  0  0  0  0
    0.3591   -0.9649    7.5374 N   0  0  0  0  0  0  0  0  0  0  0  0
    0.8790   -1.3079    6.7491 H   0  0  0  0  0  0  0  0  0  0  0  0
    0.6754   -1.1557    8.4704 H   0  0  0  0  0  0  0  0  0  0  0  0
   -1.3797    0.1566    8.3625 N   0  0  0  0  0  0  0  0  0  0  0  0
   -2.2222    0.6931    8.2466 H   0  0  0  0  0  0  0  0  0  0  0  0
   -1.0465   -0.0457    9.2870 H   0  0  0  0  0  0  0  0  0  0  0  0
   -0.6034   -0.4026   -0.2153 C   0  0  0  0  0  0  0  0  0  0  0  0
   -0.0941    0.5223   -0.8368 O   0  0  0  0  0  0  0  0  0  0  0  0
   -0.5160   -1.6797   -0.5999 N   0  0  0  0  0  0  0  0  0  0  0  0
   -0.9342   -2.3794   -0.0088 H   0  0  0  0  0  0  0  0  0  0  0  0
    0.2277   -2.1314   -1.7770 C   0  0  0  0  0  0  0  0  0  0  0  0
    1.2912   -1.9208   -1.6452 H   0  0  0  0  0  0  0  0  0  0  0  0
    0.0931   -3.2039   -1.9232 H   0  0  0  0  0  0  0  0  0  0  0  0
   -0.1211   -1.6006   -2.6656 H   0  0  0  0  0  0  0  0  0  0  0  0
  5  6  2  0  0  0  0
  5  7  1  0  0  0  0
  2  3  1  0  0  0  0
  2  4  1  0  0  0  0
  2  5  1  0  0  0  0
  1  2  1  0  0  0  0
 29 30  2  0  0  0  0
 29 31  1  0  0  0  0
 26 27  1  0  0  0  0
 26 28  1  0  0  0  0
 23 24  1  0  0  0  0
 23 25  1  0  0  0  0
 22 23  1  0  0  0  0
 22 26  1  0  0  0  0
 20 21  1  0  0  0  0
 20 22  2  0  0  0  0
 17 18  1  0  0  0  0
 17 19  1  0  0  0  0
 17 20  1  0  0  0  0
 14 15  1  0  0  0  0
 14 16  1  0  0  0  0
 14 17  1  0  0  0  0
 11 12  1  0  0  0  0
 11 13  1  0  0  0  0
 11 14  1  0  0  0  0
  9 10  1  0  0  0  0
  9 11  1  0  0  0  0
  9 29  1  0  0  0  0
  7  8  1  0  0  0  0
  7  9  1  0  0  0  0
 33 34  1  0  0  0  0
 33 35  1  0  0  0  0
 33 36  1  0  0  0  0
 31 32  1  0  0  0  0
 31 33  1  0  0  0  0
M  CHG  1  20   1
M  END
$$$$
default_name
  -OEChem-01062215323D

 36 35  0     1  0  0  0  0  0999 V2000
   -4.2256   -3.6731    1.8584 H   0  0  0  0  0  0  0  0  0  0  0  0
   -4.2396   -2.6781    1.4144 C   0  0  0  0  0  0  0  0  0  0  0  0
   -4.9506   -2.0521    1.9514 H   0  0  0  0  0  0  0  0  0  0  0  0
   -4.5266   -2.7521    0.3674 H   0  0  0  0  0  0  0  0  0  0  0  0
   -2.8576   -2.0761    1.5184 C   0  0  0  0  0  0  0  0  0  0  0  0
   -1.9456   -2.7051    2.0404 O   0  0  0  0  0  0  0  0  0  0  0  0
   -2.6926   -0.8481    1.0174 N   0  0  0  0  0  0  0  0  0  0  0  0
   -3.4926   -0.3971    0.5954 H   0  0  0  0  0  0  0  0  0  0  0  0
   -1.4216   -0.1071    1.0434 C   0  0  1  0  0  0  0  0  0  0  0  0
   -1.6463    0.9603    1.0742 H   0  0  0  0  0  0  0  0  0  0  0  0
   -0.6593   -0.4909    2.3275 C   0  0  0  0  0  0  0  0  0  0  0  0
   -0.5744   -1.5786    2.3704 H   0  0  0  0  0  0  0  0  0  0  0  0
    0.3491   -0.0736    2.2822 H   0  0  0  0  0  0  0  0  0  0  0  0
   -1.3468   -0.0095    3.6136 C   0  0  0  0  0  0  0  0  0  0  0  0
   -1.4335    1.0779    3.6007 H   0  0  0  0  0  0  0  0  0  0  0  0
   -2.3424   -0.4497    3.6769 H   0  0  0  0  0  0  0  0  0  0  0  0
   -0.5226   -0.4335    4.8368 C   0  0  0  0  0  0  0  0  0  0  0  0
   -0.4182   -1.5209    4.8271 H   0  0  0  0  0  0  0  0  0  0  0  0
    0.4700    0.0166    4.7603 H   0  0  0  0  0  0  0  0  0  0  0  0
   -1.1602   -0.0111    6.1008 N   0  3  0  0  0  0  0  0  0  0  0  0
   -2.0054    0.5281    6.0222 H   0  0  0  0  0  0  0  0  0  0  0  0
   -0.7255   -0.2746    7.3217 C   0  0  0  0  0  0  0  0  0  0  0  0
    0.3591   -0.9649    7.5374 N   0  0  0  0  0  0  0  0  0  0  0  0
    0.8790   -1.3079    6.7491 H   0  0  0  0  0  0  0  0  0  0  0  0
    0.6754   -1.1557    8.4704 H   0  0  0  0  0  0  0  0  0  0  0  0
   -1.3797    0.1566    8.3625 N   0  0  0  0  0  0  0  0  0  0  0  0
   -2.2222    0.6931    8.2466 H   0  0  0  0  0  0  0  0  0  0  0  0
   -1.0465   -0.0457    9.2870 H   0  0  0  0  0  0  0  0  0  0  0  0
   -0.6034   -0.4026   -0.2153 C   0  0  0  0  0  0  0  0  0  0  0  0
    0.1276    0.4644   -0.6792 O   0  0  0  0  0  0  0  0  0  0  0  0
   -0.7606   -1.6056   -0.7762 N   0  0  0  0  0  0  0  0  0  0  0  0
   -1.3536   -2.2704   -0.3069 H   0  0  0  0  0  0  0  0  0  0  0  0
   -0.0531   -2.0469   -1.9794 C   0  0  0  0  0  0  0  0  0  0  0  0
    1.0200   -2.0910   -1.7815 H   0  0  0  0  0  0  0  0  0  0  0  0
   -0.3996   -3.0356   -2.2829 H   0  0  0  0  0  0  0  0  0  0  0  0
   -0.2246   -1.3399   -2.7940 H   0  0  0  0  0  0  0  0  0  0  0  0
  5  6  2  0  0  0  0
  5  7  1  0  0  0  0
  2  3  1  0  0  0  0
  2  4  1  0  0  0  0
  2  5  1  0  0  0  0
  1  2  1  0  0  0  0
 29 30  2  0  0  0  0
 29 31  1  0  0  0  0
 26 27  1  0  0  0  0
 26 28  1  0  0  0  0
 23 24  1  0  0  0  0
 23 25  1  0  0  0  0
 22 23  1  0  0  0  0
 22 26  1  0  0  0  0
 20 21  1  0  0  0  0
 20 22  2  0  0  0  0
 17 18  1  0  0  0  0
 17 19  1  0  0  0  0
 17 20  1  0  0  0  0
 14 15  1  0  0  0  0
 14 16  1  0  0  0  0
 14 17  1  0  0  0  0
 11 12  1  0  0  0  0
 11 13  1  0  0  0  0
 11 14  1  0  0  0  0
  9 10  1  0  0  0  0
  9 11  1  0  0  0  0
  9 29  1  0  0  0  0
  7  8  1  0  0  0  0
  7  9  1  0  0  0  0
 33 34  1  0  0  0  0
 33 35  1  0  0  0  0
 33 36  1  0  0  0  0
 31 32  1  0  0  0  0
 31 33  1  0  0  0  0
M  CHG  1  20   1
M  END
$$$$
default_name
  -OEChem-01062215323D

 36 35  0     1  0  0  0  0  0999 V2000
   -4.2256   -3.6731    1.8584 H   0  0  0  0  0  0  0  0  0  0  0  0
   -4.2396   -2.6781    1.4144 C   0  0  0  0  0  0  0  0  0  0  0  0
   -4.9506   -2.0521    1.9514 H   0  0  0  0  0  0  0  0  0  0  0  0
   -4.5266   -2.7521    0.3674 H   0  0  0  0  0  0  0  0  0  0  0  0
   -2.8576   -2.0761    1.5184 C   0  0  0  0  0  0  0  0  0  0  0  0
   -1.9456   -2.7051    2.0404 O   0  0  0  0  0  0  0  0  0  0  0  0
   -2.6926   -0.8481    1.0174 N   0  0  0  0  0  0  0  0  0  0  0  0
   -3.4926   -0.3971    0.5954 H   0  0  0  0  0  0  0  0  0  0  0  0
   -1.4216   -0.1071    1.0434 C   0  0  1  0  0  0  0  0  0  0  0  0
   -1.6463    0.9603    1.0742 H   0  0  0  0  0  0  0  0  0  0  0  0
   -0.6593   -0.4909    2.3275 C   0  0  0  0  0  0  0  0  0  0  0  0
   -0.5744   -1.5786    2.3704 H   0  0  0  0  0  0  0  0  0  0  0  0
    0.3491   -0.0736    2.2822 H   0  0  0  0  0  0  0  0  0  0  0  0
   -1.3468   -0.0095    3.6136 C   0  0  0  0  0  0  0  0  0  0  0  0
   -1.4335    1.0779    3.6007 H   0  0  0  0  0  0  0  0  0  0  0  0
   -2.3424   -0.4497    3.6769 H   0  0  0  0  0  0  0  0  0  0  0  0
   -0.5226   -0.4335    4.8368 C   0  0  0  0  0  0  0  0  0  0  0  0
   -0.4182   -1.5209    4.8271 H   0  0  0  0  0  0  0  0  0  0  0  0
    0.4700    0.0166    4.7603 H   0  0  0  0  0  0  0  0  0  0  0  0
   -1.1602   -0.0111    6.1008 N   0  3  0  0  0  0  0  0  0  0  0  0
   -2.0054    0.5281    6.0222 H   0  0  0  0  0  0  0  0  0  0  0  0
   -0.7255   -0.2746    7.3217 C   0  0  0  0  0  0  0  0  0  0  0  0
    0.3591   -0.9649    7.5374 N   0  0  0  0  0  0  0  0  0  0  0  0
    0.8790   -1.3079    6.7491 H   0  0  0  0  0  0  0  0  0  0  0  0
    0.6754   -1.1557    8.4704 H   0  0  0  0  0  0  0  0  0  0  0  0
   -1.3797    0.1566    8.3625 N   0  0  0  0  0  0  0  0  0  0  0  0
   -2.2222    0.6931    8.2466 H   0  0  0  0  0  0  0  0  0  0  0  0
   -1.0465   -0.0457    9.2870 H   0  0  0  0  0  0  0  0  0  0  0  0
   -0.6034   -0.4026   -0.2153 C   0  0  0  0  0  0  0  0  0  0  0  0
    0.3215    0.3394   -0.5238 O   0  0  0  0  0  0  0  0  0  0  0  0
   -0.9722   -1.4576   -0.9486 N   0  0  0  0  0  0  0  0  0  0  0  0
   -1.7205   -2.0346   -0.6008 H   0  0  0  0  0  0  0  0  0  0  0  0
   -0.2962   -1.8775   -2.1772 C   0  0  0  0  0  0  0  0  0  0  0  0
    0.7287   -2.1787   -1.9503 H   0  0  0  0  0  0  0  0  0  0  0  0
   -0.8216   -2.7184   -2.6317 H   0  0  0  0  0  0  0  0  0  0  0  0
   -0.2626   -1.0482   -2.8872 H   0  0  0  0  0  0  0  0  0  0  0  0
  5  6  2  0  0  0  0
  5  7  1  0  0  0  0
  2  3  1  0  0  0  0
  2  4  1  0  0  0  0
  2  5  1  0  0  0  0
  1  2  1  0  0  0  0
 29 30  2  0  0  0  0
 29 31  1  0  0  0  0
 26 27  1  0  0  0  0
 26 28  1  0  0  0  0
 23 24  1  0  0  0  0
 23 25  1  0  0  0  0
 22 23  1  0  0  0  0
 22 26  1  0  0  0  0
 20 21  1  0  0  0  0
 20 22  2  0  0  0  0
 17 18  1  0  0  0  0
 17 19  1  0  0  0  0
 17 20  1  0  0  0  0
 14 15  1  0  0  0  0
 14 16  1  0  0  0  0
 14 17  1  0  0  0  0
 11 12  1  0  0  0  0
 11 13  1  0  0  0  0
 11 14  1  0  0  0  0
  9 10  1  0  0  0  0
  9 11  1  0  0  0  0
  9 29  1  0  0  0  0
  7  8  1  0  0  0  0
  7  9  1  0  0  0  0
 33 34  1  0  0  0  0
 33 35  1  0  0  0  0
 33 36  1  0  0  0  0
 31 32  1  0  0  0  0
 31 33  1  0  0  0  0
M  CHG  1  20   1
M  END
$$$$
default_name
  -OEChem-01062215323D

 36 35  0     1  0  0  0  0  0999 V2000
   -4.2256   -3.6731    1.8584 H   0  0  0  0  0  0  0  0  0  0  0  0
   -4.2396   -2.6781    1.4144 C   0  0  0  0  0  0  0  0  0  0  0  0
   -4.9506   -2.0521    1.9514 H   0  0  0  0  0  0  0  0  0  0  0  0
   -4.5266   -2.7521    0.3674 H   0  0  0  0  0  0  0  0  0  0  0  0
   -2.8576   -2.0761    1.5184 C   0  0  0  0  0  0  0  0  0  0  0  0
   -1.9456   -2.7051    2.0404 O   0  0  0  0  0  0  0  0  0  0  0  0
   -2.6926   -0.8481    1.0174 N   0  0  0  0  0  0  0  0  0  0  0  0
   -3.4926   -0.3971    0.5954 H   0  0  0  0  0  0  0  0  0  0  0  0
   -1.4216   -0.1071    1.0434 C   0  0  1  0  0  0  0  0  0  0  0  0
   -1.6463    0.9603    1.0742 H   0  0  0  0  0  0  0  0  0  0  0  0
   -0.6593   -0.4909    2.3275 C   0  0  0  0  0  0  0  0  0  0  0  0
   -0.5744   -1.5786    2.3704 H   0  0  0  0  0  0  0  0  0  0  0  0
    0.3491   -0.0736    2.2822 H   0  0  0  0  0  0  0  0  0  0  0  0
   -1.3468   -0.0095    3.6136 C   0  0  0  0  0  0  0  0  0  0  0  0
   -1.4335    1.0779    3.6007 H   0  0  0  0  0  0  0  0  0  0  0  0
   -2.3424   -0.4497    3.6769 H   0  0  0  0  0  0  0  0  0  0  0  0
   -0.5226   -0.4335    4.8368 C   0  0  0  0  0  0  0  0  0  0  0  0
   -0.4182   -1.5209    4.8271 H   0  0  0  0  0  0  0  0  0  0  0  0
    0.4700    0.0166    4.7603 H   0  0  0  0  0  0  0  0  0  0  0  0
   -1.1602   -0.0111    6.1008 N   0  3  0  0  0  0  0  0  0  0  0  0
   -2.0054    0.5281    6.0222 H   0  0  0  0  0  0  0  0  0  0  0  0
   -0.7255   -0.2746    7.3217 C   0  0  0  0  0  0  0  0  0  0  0  0
    0.3591   -0.9649    7.5374 N   0  0  0  0  0  0  0  0  0  0  0  0
    0.8790   -1.3079    6.7491 H   0  0  0  0  0  0  0  0  0  0  0  0
    0.6754   -1.1557    8.4704 H   0  0  0  0  0  0  0  0  0  0  0  0
   -1.3797    0.1566    8.3625 N   0  0  0  0  0  0  0  0  0  0  0  0
   -2.2222    0.6931    8.2466 H   0  0  0  0  0  0  0  0  0  0  0  0
   -1.0465   -0.0457    9.2870 H   0  0  0  0  0  0  0  0  0  0  0  0
   -0.6034   -0.4026   -0.2153 C   0  0  0  0  0  0  0  0  0  0  0  0
    0.4744    0.1559   -0.3814 O   0  0  0  0  0  0  0  0  0  0  0  0
   -1.1366   -1.2456   -1.1051 N   0  0  0  0  0  0  0  0  0  0  0  0
   -2.0101   -1.6880   -0.8703 H   0  0  0  0  0  0  0  0  0  0  0  0
   -0.4851   -1.6347   -2.3569 C   0  0  0  0  0  0  0  0  0  0  0  0
    0.4371   -2.1780   -2.1400 H   0  0  0  0  0  0  0  0  0  0  0  0
   -1.1443   -2.2739   -2.9457 H   0  0  0  0  0  0  0  0  0  0  0  0
   -0.2325   -0.7455   -2.9387 H   0  0  0  0  0  0  0  0  0  0  0  0
  5  6  2  0  0  0  0
  5  7  1  0  0  0  0
  2  3  1  0  0  0  0
  2  4  1  0  0  0  0
  2  5  1  0  0  0  0
  1  2  1  0  0  0  0
 29 30  2  0  0  0  0
 29 31  1  0  0  0  0
 26 27  1  0  0  0  0
 26 28  1  0  0  0  0
 23 24  1  0  0  0  0
 23 25  1  0  0  0  0
 22 23  1  0  0  0  0
 22 26  1  0  0  0  0
 20 21  1  0  0  0  0
 20 22  2  0  0  0  0
 17 18  1  0  0  0  0
 17 19  1  0  0  0  0
 17 20  1  0  0  0  0
 14 15  1  0  0  0  0
 14 16  1  0  0  0  0
 14 17  1  0  0  0  0
 11 12  1  0  0  0  0
 11 13  1  0  0  0  0
 11 14  1  0  0  0  0
  9 10  1  0  0  0  0
  9 11  1  0  0  0  0
  9 29  1  0  0  0  0
  7  8  1  0  0  0  0
  7  9  1  0  0  0  0
 33 34  1  0  0  0  0
 33 35  1  0  0  0  0
 33 36  1  0  0  0  0
 31 32  1  0  0  0  0
 31 33  1  0  0  0  0
M  CHG  1  20   1
M  END
$$$$
default_name
  -OEChem-01062215323D

 36 35  0     1  0  0  0  0  0999 V2000
   -4.2256   -3.6731    1.8584 H   0  0  0  0  0  0  0  0  0  0  0  0
   -4.2396   -2.6781    1.4144 C   0  0  0  0  0  0  0  0  0  0  0  0
   -4.9506   -2.0521    1.9514 H   0  0  0  0  0  0  0  0  0  0  0  0
   -4.5266   -2.7521    0.3674 H   0  0  0  0  0  0  0  0  0  0  0  0
   -2.8576   -2.0761    1.5184 C   0  0  0  0  0  0  0  0  0  0  0  0
   -1.9456   -2.7051    2.0404 O   0  0  0  0  0  0  0  0  0  0  0  0
   -2.6926   -0.8481    1.0174 N   0  0  0  0  0  0  0  0  0  0  0  0
   -3.4926   -0.3971    0.5954 H   0  0  0  0  0  0  0  0  0  0  0  0
   -1.4216   -0.1071    1.0434 C   0  0  1  0  0  0  0  0  0  0  0  0
   -1.6463    0.9603    1.0742 H   0  0  0  0  0  0  0  0  0  0  0  0
   -0.6593   -0.4909    2.3275 C   0  0  0  0  0  0  0  0  0  0  0  0
   -0.5744   -1.5786    2.3704 H   0  0  0  0  0  0  0  0  0  0  0  0
    0.3491   -0.0736    2.2822 H   0  0  0  0  0  0  0  0  0  0  0  0
   -1.3468   -0.0095    3.6136 C   0  0  0  0  0  0  0  0  0  0  0  0
   -1.4335    1.0779    3.6007 H   0  0  0  0  0  0  0  0  0  0  0  0
   -2.3424   -0.4497    3.6769 H   0  0  0  0  0  0  0  0  0  0  0  0
   -0.5226   -0.4335    4.8368 C   0  0  0  0  0  0  0  0  0  0  0  0
   -0.4182   -1.5209    4.8271 H   0  0  0  0  0  0  0  0  0  0  0  0
    0.4700    0.0166    4.7603 H   0  0  0  0  0  0  0  0  0  0  0  0
   -1.1602   -0.0111    6.1008 N   0  3  0  0  0  0  0  0  0  0  0  0
   -2.0054    0.5281    6.0222 H   0  0  0  0  0  0  0  0  0  0  0  0
   -0.7255   -0.2746    7.3217 C   0  0  0  0  0  0  0  0  0  0  0  0
    0.3591   -0.9649    7.5374 N   0  0  0  0  0  0  0  0  0  0  0  0
    0.8790   -1.3079    6.7491 H   0  0  0  0  0  0  0  0  0  0  0  0
    0.6754   -1.1557    8.4704 H   0  0  0  0  0  0  0  0  0  0  0  0
   -1.3797    0.1566    8.3625 N   0  0  0  0  0  0  0  0  0  0  0  0
   -2.2222    0.6931    8.2466 H   0  0  0  0  0  0  0  0  0  0  0  0
   -1.0465   -0.0457    9.2870 H   0  0  0  0  0  0  0  0  0  0  0  0
   -0.6034   -0.4026   -0.2153 C   0  0  0  0  0  0  0  0  0  0  0  0
    0.5759   -0.0736   -0.2615 O   0  0  0  0  0  0  0  0  0  0  0  0
   -1.2423   -0.9842   -1.2352 N   0  0  0  0  0  0  0  0  0  0  0  0
   -2.2025   -1.2543   -1.0971 H   0  0  0  0  0  0  0  0  0  0  0  0
   -0.6069   -1.3351   -2.5064 C   0  0  0  0  0  0  0  0  0  0  0  0
    0.1650   -2.0891   -2.3377 H   0  0  0  0  0  0  0  0  0  0  0  0
   -1.3456   -1.7323   -3.2037 H   0  0  0  0  0  0  0  0  0  0  0  0
   -0.1365   -0.4524   -2.9450 H   0  0  0  0  0  0  0  0  0  0  0  0
  5  6  2  0  0  0  0
  5  7  1  0  0  0  0
  2  3  1  0  0  0  0
  2  4  1  0  0  0  0
  2  5  1  0  0  0  0
  1  2  1  0  0  0  0
 29 30  2  0  0  0  0
 29 31  1  0  0  0  0
 26 27  1  0  0  0  0
 26 28  1  0  0  0  0
 23 24  1  0  0  0  0
 23 25  1  0  0  0  0
 22 23  1  0  0  0  0
 22 26  1  0  0  0  0
 20 21  1  0  0  0  0
 20 22  2  0  0  0  0
 17 18  1  0  0  0  0
 17 19  1  0  0  0  0
 17 20  1  0  0  0  0
 14 15  1  0  0  0  0
 14 16  1  0  0  0  0
 14 17  1  0  0  0  0
 11 12  1  0  0  0  0
 11 13  1  0  0  0  0
 11 14  1  0  0  0  0
  9 10  1  0  0  0  0
  9 11  1  0  0  0  0
  9 29  1  0  0  0  0
  7  8  1  0  0  0  0
  7  9  1  0  0  0  0
 33 34  1  0  0  0  0
 33 35  1  0  0  0  0
 33 36  1  0  0  0  0
 31 32  1  0  0  0  0
 31 33  1  0  0  0  0
M  CHG  1  20   1
M  END
$$$$
default_name
  -OEChem-01062215323D

 36 35  0     1  0  0  0  0  0999 V2000
   -4.2256   -3.6731    1.8584 H   0  0  0  0  0  0  0  0  0  0  0  0
   -4.2396   -2.6781    1.4144 C   0  0  0  0  0  0  0  0  0  0  0  0
   -4.9506   -2.0521    1.9514 H   0  0  0  0  0  0  0  0  0  0  0  0
   -4.5266   -2.7521    0.3674 H   0  0  0  0  0  0  0  0  0  0  0  0
   -2.8576   -2.0761    1.5184 C   0  0  0  0  0  0  0  0  0  0  0  0
   -1.9456   -2.7051    2.0404 O   0  0  0  0  0  0  0  0  0  0  0  0
   -2.6926   -0.8481    1.0174 N   0  0  0  0  0  0  0  0  0  0  0  0
   -3.4926   -0.3971    0.5954 H   0  0  0  0  0  0  0  0  0  0  0  0
   -1.4216   -0.1071    1.0434 C   0  0  1  0  0  0  0  0  0  0  0  0
   -1.6463    0.9603    1.0742 H   0  0  0  0  0  0  0  0  0  0  0  0
   -0.6593   -0.4909    2.3275 C   0  0  0  0  0  0  0  0  0  0  0  0
   -0.5744   -1.5786    2.3704 H   0  0  0  0  0  0  0  0  0  0  0  0
    0.3491   -0.0736    2.2822 H   0  0  0  0  0  0  0  0  0  0  0  0
   -1.3468   -0.0095    3.6136 C   0  0  0  0  0  0  0  0  0  0  0  0
   -1.4335    1.0779    3.6007 H   0  0  0  0  0  0  0  0  0  0  0  0
   -2.3424   -0.4497    3.6769 H   0  0  0  0  0  0  0  0  0  0  0  0
   -0.5226   -0.4335    4.8368 C   0  0  0  0  0  0  0  0  0  0  0  0
   -0.4182   -1.5209    4.8271 H   0  0  0  0  0  0  0  0  0  0  0  0
    0.4700    0.0166    4.7603 H   0  0  0  0  0  0  0  0  0  0  0  0
   -1.1602   -0.0111    6.1008 N   0  3  0  0  0  0  0  0  0  0  0  0
   -2.0054    0.5281    6.0222 H   0  0  0  0  0  0  0  0  0  0  0  0
   -0.7255   -0.2746    7.3217 C   0  0  0  0  0  0  0  0  0  0  0  0
    0.3591   -0.9649    7.5374 N   0  0  0  0  0  0  0  0  0  0  0  0
    0.8790   -1.3079    6.7491 H   0  0  0  0  0  0  0  0  0  0  0  0
    0.6754   -1.1557    8.4704 H   0  0  0  0  0  0  0  0  0  0  0  0
   -1.3797    0.1566    8.3625 N   0  0  0  0  0  0  0  0  0  0  0  0
   -2.2222    0.6931    8.2466 H   0  0  0  0  0  0  0  0  0  0  0  0
   -1.0465   -0.0457    9.2870 H   0  0  0  0  0  0  0  0  0  0  0  0
   -0.6034   -0.4026   -0.2153 C   0  0  0  0  0  0  0  0  0  0  0  0
    0.6191   -0.3335   -0.1724 O   0  0  0  0  0  0  0  0  0  0  0  0
   -1.2824   -0.6912   -1.3300 N   0  0  0  0  0  0  0  0  0  0  0  0
   -2.2847   -0.7630   -1.2659 H   0  0  0  0  0  0  0  0  0  0  0  0
   -0.6533   -0.9991   -2.6154 C   0  0  0  0  0  0  0  0  0  0  0  0
   -0.0690   -1.9178   -2.5300 H   0  0  0  0  0  0  0  0  0  0  0  0
   -1.4119   -1.1307   -3.3880 H   0  0  0  0  0  0  0  0  0  0  0  0
    0.0191   -0.1888   -2.9058 H   0  0  0  0  0  0  0  0  0  0  0  0
  5  6  2  0  0  0  0
  5  7  1  0  0  0  0
  2  3  1  0  0  0  0
  2  4  1  0  0  0  0
  2  5  1  0  0  0  0
  1  2  1  0  0  0  0
 29 30  2  0  0  0  0
 29 31  1  0  0  0  0
 26 27  1  0  0  0  0
 26 28  1  0  0  0  0
 23 24  1  0  0  0  0
 23 25  1  0  0  0  0
 22 23  1  0  0  0  0
 22 26  1  0  0  0  0
 20 21  1  0  0  0  0
 20 22  2  0  0  0  0
 17 18  1  0  0  0  0
 17 19  1  0  0  0  0
 17 20  1  0  0  0  0
 14 15  1  0  0  0  0
 14 16  1  0  0  0  0
 14 17  1  0  0  0  0
 11 12  1  0  0  0  0
 11 13  1  0  0  0  0
 11 14  1  0  0  0  0
  9 10  1  0  0  0  0
  9 11  1  0  0  0  0
  9 29  1  0  0  0  0
  7  8  1  0  0  0  0
  7  9  1  0  0  0  0
 33 34  1  0  0  0  0
 33 35  1  0  0  0  0
 33 36  1  0  0  0  0
 31 32  1  0  0  0  0
 31 33  1  0  0  0  0
M  CHG  1  20   1
M  END
$$$$
default_name
  -OEChem-01062215323D

 36 35  0     1  0  0  0  0  0999 V2000
   -4.2256   -3.6731    1.8584 H   0  0  0  0  0  0  0  0  0  0  0  0
   -4.2396   -2.6781    1.4144 C   0  0  0  0  0  0  0  0  0  0  0  0
   -4.9506   -2.0521    1.9514 H   0  0  0  0  0  0  0  0  0  0  0  0
   -4.5266   -2.7521    0.3674 H   0  0  0  0  0  0  0  0  0  0  0  0
   -2.8576   -2.0761    1.5184 C   0  0  0  0  0  0  0  0  0  0  0  0
   -1.9456   -2.7051    2.0404 O   0  0  0  0  0  0  0  0  0  0  0  0
   -2.6926   -0.8481    1.0174 N   0  0  0  0  0  0  0  0  0  0  0  0
   -3.4926   -0.3971    0.5954 H   0  0  0  0  0  0  0  0  0  0  0  0
   -1.4216   -0.1071    1.0434 C   0  0  1  0  0  0  0  0  0  0  0  0
   -1.6463    0.9603    1.0742 H   0  0  0  0  0  0  0  0  0  0  0  0
   -0.6593   -0.4909    2.3275 C   0  0  0  0  0  0  0  0  0  0  0  0
   -0.5744   -1.5786    2.3704 H   0  0  0  0  0  0  0  0  0  0  0  0
    0.3491   -0.0736    2.2822 H   0  0  0  0  0  0  0  0  0  0  0  0
   -1.3468   -0.0095    3.6136 C   0  0  0  0  0  0  0  0  0  0  0  0
   -1.4335    1.0779    3.6007 H   0  0  0  0  0  0  0  0  0  0  0  0
   -2.3424   -0.4497    3.6769 H   0  0  0  0  0  0  0  0  0  0  0  0
   -0.5226   -0.4335    4.8368 C   0  0  0  0  0  0  0  0  0  0  0  0
   -0.4182   -1.5209    4.8271 H   0  0  0  0  0  0  0  0  0  0  0  0
    0.4700    0.0166    4.7603 H   0  0  0  0  0  0  0  0  0  0  0  0
   -1.1602   -0.0111    6.1008 N   0  3  0  0  0  0  0  0  0  0  0  0
   -2.0054    0.5281    6.0222 H   0  0  0  0  0  0  0  0  0  0  0  0
   -0.7255   -0.2746    7.3217 C   0  0  0  0  0  0  0  0  0  0  0  0
    0.3591   -0.9649    7.5374 N   0  0  0  0  0  0  0  0  0  0  0  0
    0.8790   -1.3079    6.7491 H   0  0  0  0  0  0  0  0  0  0  0  0
    0.6754   -1.1557    8.4704 H   0  0  0  0  0  0  0  0  0  0  0  0
   -1.3797    0.1566    8.3625 N   0  0  0  0  0  0  0  0  0  0  0  0
   -2.2222    0.6931    8.2466 H   0  0  0  0  0  0  0  0  0  0  0  0
   -1.0465   -0.0457    9.2870 H   0  0  0  0  0  0  0  0  0  0  0  0
   -0.6034   -0.4026   -0.2153 C   0  0  0  0  0  0  0  0  0  0  0  0
    0.6010   -0.6061   -0.1202 O   0  0  0  0  0  0  0  0  0  0  0  0
   -1.2539   -0.3866   -1.3830 N   0  0  0  0  0  0  0  0  0  0  0  0
   -2.2510   -0.2476   -1.3649 H   0  0  0  0  0  0  0  0  0  0  0  0
   -0.6211   -0.6496   -2.6765 C   0  0  0  0  0  0  0  0  0  0  0  0
   -0.2490   -1.6759   -2.7037 H   0  0  0  0  0  0  0  0  0  0  0  0
   -1.3386   -0.5099   -3.4860 H   0  0  0  0  0  0  0  0  0  0  0  0
    0.2235    0.0272   -2.8236 H   0  0  0  0  0  0  0  0  0  0  0  0
  5  6  2  0  0  0  0
  5  7  1  0  0  0  0
  2  3  1  0  0  0  0
  2  4  1  0  0  0  0
  2  5  1  0  0  0  0
  1  2  1  0  0  0  0
 29 30  2  0  0  0  0
 29 31  1  0  0  0  0
 26 27  1  0  0  0  0
 26 28  1  0  0  0  0
 23 24  1  0  0  0  0
 23 25  1  0  0  0  0
 22 23  1  0  0  0  0
 22 26  1  0  0  0  0
 20 21  1  0  0  0  0
 20 22  2  0  0  0  0
 17 18  1  0  0  0  0
 17 19  1  0  0  0  0
 17 20  1  0  0  0  0
 14 15  1  0  0  0  0
 14 16  1  0  0  0  0
 14 17  1  0  0  0  0
 11 12  1  0  0  0  0
 11 13  1  0  0  0  0
 11 14  1  0  0  0  0
  9 10  1  0  0  0  0
  9 11  1  0  0  0  0
  9 29  1  0  0  0  0
  7  8  1  0  0  0  0
  7  9  1  0  0  0  0
 33 34  1  0  0  0  0
 33 35  1  0  0  0  0
 33 36  1  0  0  0  0
 31 32  1  0  0  0  0
 31 33  1  0  0  0  0
M  CHG  1  20   1
M  END
$$$$
default_name
  -OEChem-01062215323D

 36 35  0     1  0  0  0  0  0999 V2000
   -4.2256   -3.6731    1.8584 H   0  0  0  0  0  0  0  0  0  0  0  0
   -4.2396   -2.6781    1.4144 C   0  0  0  0  0  0  0  0  0  0  0  0
   -4.9506   -2.0521    1.9514 H   0  0  0  0  0  0  0  0  0  0  0  0
   -4.5266   -2.7521    0.3674 H   0  0  0  0  0  0  0  0  0  0  0  0
   -2.8576   -2.0761    1.5184 C   0  0  0  0  0  0  0  0  0  0  0  0
   -1.9456   -2.7051    2.0404 O   0  0  0  0  0  0  0  0  0  0  0  0
   -2.6926   -0.8481    1.0174 N   0  0  0  0  0  0  0  0  0  0  0  0
   -3.4926   -0.3971    0.5954 H   0  0  0  0  0  0  0  0  0  0  0  0
   -1.4216   -0.1071    1.0434 C   0  0  1  0  0  0  0  0  0  0  0  0
   -1.6463    0.9603    1.0742 H   0  0  0  0  0  0  0  0  0  0  0  0
   -0.6593   -0.4909    2.3275 C   0  0  0  0  0  0  0  0  0  0  0  0
   -0.5744   -1.5786    2.3704 H   0  0  0  0  0  0  0  0  0  0  0  0
    0.3491   -0.0736    2.2822 H   0  0  0  0  0  0  0  0  0  0  0  0
   -1.3468   -0.0095    3.6136 C   0  0  0  0  0  0  0  0  0  0  0  0
   -1.4335    1.0779    3.6007 H   0  0  0  0  0  0  0  0  0  0  0  0
   -2.3424   -0.4497    3.6769 H   0  0  0  0  0  0  0  0  0  0  0  0
   -0.5226   -0.4335    4.8368 C   0  0  0  0  0  0  0  0  0  0  0  0
   -0.4182   -1.5209    4.8271 H   0  0  0  0  0  0  0  0  0  0  0  0
    0.4700    0.0166    4.7603 H   0  0  0  0  0  0  0  0  0  0  0  0
   -1.1602   -0.0111    6.1008 N   0  3  0  0  0  0  0  0  0  0  0  0
   -2.0054    0.5281    6.0222 H   0  0  0  0  0  0  0  0  0  0  0  0
   -0.7255   -0.2746    7.3217 C   0  0  0  0  0  0  0  0  0  0  0  0
    0.3591   -0.9649    7.5374 N   0  0  0  0  0  0  0  0  0  0  0  0
    0.8790   -1.3079    6.7491 H   0  0  0  0  0  0  0  0  0  0  0  0
    0.6754   -1.1557    8.4704 H   0  0  0  0  0  0  0  0  0  0  0  0
   -1.3797    0.1566    8.3625 N   0  0  0  0  0  0  0  0  0  0  0  0
   -2.2222    0.6931    8.2466 H   0  0  0  0  0  0  0  0  0  0  0  0
   -1.0465   -0.0457    9.2870 H   0  0  0  0  0  0  0  0  0  0  0  0
   -0.6034   -0.4026   -0.2153 C   0  0  0  0  0  0  0  0  0  0  0  0
    0.5229   -0.8727   -0.1084 O   0  0  0  0  0  0  0  0  0  0  0  0
   -1.1589   -0.0910   -1.3906 N   0  0  0  0  0  0  0  0  0  0  0  0
   -2.1038    0.2568   -1.3876 H   0  0  0  0  0  0  0  0  0  0  0  0
   -0.5125   -0.3103   -2.6855 C   0  0  0  0  0  0  0  0  0  0  0  0
   -0.3626   -1.3800   -2.8470 H   0  0  0  0  0  0  0  0  0  0  0  0
   -1.1308    0.0877   -3.4911 H   0  0  0  0  0  0  0  0  0  0  0  0
    0.4628    0.1810   -2.7042 H   0  0  0  0  0  0  0  0  0  0  0  0
  5  6  2  0  0  0  0
  5  7  1  0  0  0  0
  2  3  1  0  0  0  0
  2  4  1  0  0  0  0
  2  5  1  0  0  0  0
  1  2  1  0  0  0  0
 29 30  2  0  0  0  0
 29 31  1  0  0  0  0
 26 27  1  0  0  0  0
 26 28  1  0  0  0  0
 23 24  1  0  0  0  0
 23 25  1  0  0  0  0
 22 23  1  0  0  0  0
 22 26  1  0  0  0  0
 20 21  1  0  0  0  0
 20 22  2  0  0  0  0
 17 18  1  0  0  0  0
 17 19  1  0  0  0  0
 17 20  1  0  0  0  0
 14 15  1  0  0  0  0
 14 16  1  0  0  0  0
 14 17  1  0  0  0  0
 11 12  1  0  0  0  0
 11 13  1  0  0  0  0
 11 14  1  0  0  0  0
  9 10  1  0  0  0  0
  9 11  1  0  0  0  0
  9 29  1  0  0  0  0
  7  8  1  0  0  0  0
  7  9  1  0  0  0  0
 33 34  1  0  0  0  0
 33 35  1  0  0  0  0
 33 36  1  0  0  0  0
 31 32  1  0  0  0  0
 31 33  1  0  0  0  0
M  CHG  1  20   1
M  END
$$$$
default_name
  -OEChem-01062215323D

 36 35  0     1  0  0  0  0  0999 V2000
   -4.2256   -3.6731    1.8584 H   0  0  0  0  0  0  0  0  0  0  0  0
   -4.2396   -2.6781    1.4144 C   0  0  0  0  0  0  0  0  0  0  0  0
   -4.9506   -2.0521    1.9514 H   0  0  0  0  0  0  0  0  0  0  0  0
   -4.5266   -2.7521    0.3674 H   0  0  0  0  0  0  0  0  0  0  0  0
   -2.8576   -2.0761    1.5184 C   0  0  0  0  0  0  0  0  0  0  0  0
   -1.9456   -2.7051    2.0404 O   0  0  0  0  0  0  0  0  0  0  0  0
   -2.6926   -0.8481    1.0174 N   0  0  0  0  0  0  0  0  0  0  0  0
   -3.4926   -0.3971    0.5954 H   0  0  0  0  0  0  0  0  0  0  0  0
   -1.4216   -0.1071    1.0434 C   0  0  1  0  0  0  0  0  0  0  0  0
   -1.6463    0.9603    1.0742 H   0  0  0  0  0  0  0  0  0  0  0  0
   -0.6593   -0.4909    2.3275 C   0  0  0  0  0  0  0  0  0  0  0  0
   -0.5744   -1.5786    2.3704 H   0  0  0  0  0  0  0  0  0  0  0  0
    0.3491   -0.0736    2.2822 H   0  0  0  0  0  0  0  0  0  0  0  0
   -1.3468   -0.0095    3.6136 C   0  0  0  0  0  0  0  0  0  0  0  0
   -1.4335    1.0779    3.6007 H   0  0  0  0  0  0  0  0  0  0  0  0
   -2.3424   -0.4497    3.6769 H   0  0  0  0  0  0  0  0  0  0  0  0
   -0.5226   -0.4335    4.8368 C   0  0  0  0  0  0  0  0  0  0  0  0
   -0.4182   -1.5209    4.8271 H   0  0  0  0  0  0  0  0  0  0  0  0
    0.4700    0.0166    4.7603 H   0  0  0  0  0  0  0  0  0  0  0  0
   -1.1602   -0.0111    6.1008 N   0  3  0  0  0  0  0  0  0  0  0  0
   -2.0054    0.5281    6.0222 H   0  0  0  0  0  0  0  0  0  0  0  0
   -0.7255   -0.2746    7.3217 C   0  0  0  0  0  0  0  0  0  0  0  0
    0.3591   -0.9649    7.5374 N   0  0  0  0  0  0  0  0  0  0  0  0
    0.8790   -1.3079    6.7491 H   0  0  0  0  0  0  0  0  0  0  0  0
    0.6754   -1.1557    8.4704 H   0  0  0  0  0  0  0  0  0  0  0  0
   -1.3797    0.1566    8.3625 N   0  0  0  0  0  0  0  0  0  0  0  0
   -2.2222    0.6931    8.2466 H   0  0  0  0  0  0  0  0  0  0  0  0
   -1.0465   -0.0457    9.2870 H   0  0  0  0  0  0  0  0  0  0  0  0
   -0.6034   -0.4026   -0.2153 C   0  0  0  0  0  0  0  0  0  0  0  0
    0.3901   -1.1153   -0.1378 O   0  0  0  0  0  0  0  0  0  0  0  0
   -1.0038    0.1752   -1.3522 N   0  0  0  0  0  0  0  0  0  0  0  0
   -1.8530    0.7158   -1.3324 H   0  0  0  0  0  0  0  0  0  0  0  0
   -0.3349   -0.0046   -2.6419 C   0  0  0  0  0  0  0  0  0  0  0  0
   -0.4022   -1.0501   -2.9502 H   0  0  0  0  0  0  0  0  0  0  0  0
   -0.8025    0.6214   -3.4030 H   0  0  0  0  0  0  0  0  0  0  0  0
    0.7207    0.2621   -2.5556 H   0  0  0  0  0  0  0  0  0  0  0  0
  5  6  2  0  0  0  0
  5  7  1  0  0  0  0
  2  3  1  0  0  0  0
  2  4  1  0  0  0  0
  2  5  1  0  0  0  0
  1  2  1  0  0  0  0
 29 30  2  0  0  0  0
 29 31  1  0  0  0  0
 26 27  1  0  0  0  0
 26 28  1  0  0  0  0
 23 24  1  0  0  0  0
 23 25  1  0  0  0  0
 22 23  1  0  0  0  0
 22 26  1  0  0  0  0
 20 21  1  0  0  0  0
 20 22  2  0  0  0  0
 17 18  1  0  0  0  0
 17 19  1  0  0  0  0
 17 20  1  0  0  0  0
 14 15  1  0  0  0  0
 14 16  1  0  0  0  0
 14 17  1  0  0  0  0
 11 12  1  0  0  0  0
 11 13  1  0  0  0  0
 11 14  1  0  0  0  0
  9 10  1  0  0  0  0
  9 11  1  0  0  0  0
  9 29  1  0  0  0  0
  7  8  1  0  0  0  0
  7  9  1  0  0  0  0
 33 34  1  0  0  0  0
 33 35  1  0  0  0  0
 33 36  1  0  0  0  0
 31 32  1  0  0  0  0
 31 33  1  0  0  0  0
M  CHG  1  20   1
M  END
$$$$
default_name
  -OEChem-01062215323D

 36 35  0     1  0  0  0  0  0999 V2000
   -4.2256   -3.6731    1.8584 H   0  0  0  0  0  0  0  0  0  0  0  0
   -4.2396   -2.6781    1.4144 C   0  0  0  0  0  0  0  0  0  0  0  0
   -4.9506   -2.0521    1.9514 H   0  0  0  0  0  0  0  0  0  0  0  0
   -4.5266   -2.7521    0.3674 H   0  0  0  0  0  0  0  0  0  0  0  0
   -2.8576   -2.0761    1.5184 C   0  0  0  0  0  0  0  0  0  0  0  0
   -1.9456   -2.7051    2.0404 O   0  0  0  0  0  0  0  0  0  0  0  0
   -2.6926   -0.8481    1.0174 N   0  0  0  0  0  0  0  0  0  0  0  0
   -3.4926   -0.3971    0.5954 H   0  0  0  0  0  0  0  0  0  0  0  0
   -1.4216   -0.1071    1.0434 C   0  0  1  0  0  0  0  0  0  0  0  0
   -1.6463    0.9603    1.0742 H   0  0  0  0  0  0  0  0  0  0  0  0
   -0.6593   -0.4909    2.3275 C   0  0  0  0  0  0  0  0  0  0  0  0
   -0.5744   -1.5786    2.3704 H   0  0  0  0  0  0  0  0  0  0  0  0
    0.3491   -0.0736    2.2822 H   0  0  0  0  0  0  0  0  0  0  0  0
   -1.3468   -0.0095    3.6136 C   0  0  0  0  0  0  0  0  0  0  0  0
   -1.4335    1.0779    3.6007 H   0  0  0  0  0  0  0  0  0  0  0  0
   -2.3424   -0.4497    3.6769 H   0  0  0  0  0  0  0  0  0  0  0  0
   -0.5226   -0.4335    4.8368 C   0  0  0  0  0  0  0  0  0  0  0  0
   -0.4182   -1.5209    4.8271 H   0  0  0  0  0  0  0  0  0  0  0  0
    0.4700    0.0166    4.7603 H   0  0  0  0  0  0  0  0  0  0  0  0
   -1.1602   -0.0111    6.1008 N   0  3  0  0  0  0  0  0  0  0  0  0
   -2.0054    0.5281    6.0222 H   0  0  0  0  0  0  0  0  0  0  0  0
   -0.7255   -0.2746    7.3217 C   0  0  0  0  0  0  0  0  0  0  0  0
    0.3591   -0.9649    7.5374 N   0  0  0  0  0  0  0  0  0  0  0  0
    0.8790   -1.3079    6.7491 H   0  0  0  0  0  0  0  0  0  0  0  0
    0.6754   -1.1557    8.4704 H   0  0  0  0  0  0  0  0  0  0  0  0
   -1.3797    0.1566    8.3625 N   0  0  0  0  0  0  0  0  0  0  0  0
   -2.2222    0.6931    8.2466 H   0  0  0  0  0  0  0  0  0  0  0  0
   -1.0465   -0.0457    9.2870 H   0  0  0  0  0  0  0  0  0  0  0  0
   -0.6034   -0.4026   -0.2153 C   0  0  0  0  0  0  0  0  0  0  0  0
    0.2116   -1.3173   -0.2064 O   0  0  0  0  0  0  0  0  0  0  0  0
   -0.7992    0.3941   -1.2706 N   0  0  0  0  0  0  0  0  0  0  0  0
   -1.5159    1.0982   -1.2030 H   0  0  0  0  0  0  0  0  0  0  0  0
   -0.1005    0.2470   -2.5485 C   0  0  0  0  0  0  0  0  0  0  0  0
   -0.3651   -0.7087   -3.0061 H   0  0  0  0  0  0  0  0  0  0  0  0
   -0.3761    1.0548   -3.2276 H   0  0  0  0  0  0  0  0  0  0  0  0
    0.9797    0.2649   -2.3879 H   0  0  0  0  0  0  0  0  0  0  0  0
  5  6  2  0  0  0  0
  5  7  1  0  0  0  0
  2  3  1  0  0  0  0
  2  4  1  0  0  0  0
  2  5  1  0  0  0  0
  1  2  1  0  0  0  0
 29 30  2  0  0  0  0
 29 31  1  0  0  0  0
 26 27  1  0  0  0  0
 26 28  1  0  0  0  0
 23 24  1  0  0  0  0
 23 25  1  0  0  0  0
 22 23  1  0  0  0  0
 22 26  1  0  0  0  0
 20 21  1  0  0  0  0
 20 22  2  0  0  0  0
 17 18  1  0  0  0  0
 17 19  1  0  0  0  0
 17 20  1  0  0  0  0
 14 15  1  0  0  0  0
 14 16  1  0  0  0  0
 14 17  1  0  0  0  0
 11 12  1  0  0  0  0
 11 13  1  0  0  0  0
 11 14  1  0  0  0  0
  9 10  1  0  0  0  0
  9 11  1  0  0  0  0
  9 29  1  0  0  0  0
  7  8  1  0  0  0  0
  7  9  1  0  0  0  0
 33 34  1  0  0  0  0
 33 35  1  0  0  0  0
 33 36  1  0  0  0  0
 31 32  1  0  0  0  0
 31 33  1  0  0  0  0
M  CHG  1  20   1
M  END
$$$$
default_name
  -OEChem-01062215323D

 36 35  0     1  0  0  0  0  0999 V2000
   -4.2256   -3.6731    1.8584 H   0  0  0  0  0  0  0  0  0  0  0  0
   -4.2396   -2.6781    1.4144 C   0  0  0  0  0  0  0  0  0  0  0  0
   -4.9506   -2.0521    1.9514 H   0  0  0  0  0  0  0  0  0  0  0  0
   -4.5266   -2.7521    0.3674 H   0  0  0  0  0  0  0  0  0  0  0  0
   -2.8576   -2.0761    1.5184 C   0  0  0  0  0  0  0  0  0  0  0  0
   -1.9456   -2.7051    2.0404 O   0  0  0  0  0  0  0  0  0  0  0  0
   -2.6926   -0.8481    1.0174 N   0  0  0  0  0  0  0  0  0  0  0  0
   -3.4926   -0.3971    0.5954 H   0  0  0  0  0  0  0  0  0  0  0  0
   -1.4216   -0.1071    1.0434 C   0  0  1  0  0  0  0  0  0  0  0  0
   -1.6463    0.9603    1.0742 H   0  0  0  0  0  0  0  0  0  0  0  0
   -0.6593   -0.4909    2.3275 C   0  0  0  0  0  0  0  0  0  0  0  0
   -0.5744   -1.5786    2.3704 H   0  0  0  0  0  0  0  0  0  0  0  0
    0.3491   -0.0736    2.2822 H   0  0  0  0  0  0  0  0  0  0  0  0
   -1.3468   -0.0095    3.6136 C   0  0  0  0  0  0  0  0  0  0  0  0
   -1.4335    1.0779    3.6007 H   0  0  0  0  0  0  0  0  0  0  0  0
   -2.3424   -0.4497    3.6769 H   0  0  0  0  0  0  0  0  0  0  0  0
   -0.5226   -0.4335    4.8368 C   0  0  0  0  0  0  0  0  0  0  0  0
   -0.4182   -1.5209    4.8271 H   0  0  0  0  0  0  0  0  0  0  0  0
    0.4700    0.0166    4.7603 H   0  0  0  0  0  0  0  0  0  0  0  0
   -1.1602   -0.0111    6.1008 N   0  3  0  0  0  0  0  0  0  0  0  0
   -2.0054    0.5281    6.0222 H   0  0  0  0  0  0  0  0  0  0  0  0
   -0.7255   -0.2746    7.3217 C   0  0  0  0  0  0  0  0  0  0  0  0
    0.3591   -0.9649    7.5374 N   0  0  0  0  0  0  0  0  0  0  0  0
    0.8790   -1.3079    6.7491 H   0  0  0  0  0  0  0  0  0  0  0  0
    0.6754   -1.1557    8.4704 H   0  0  0  0  0  0  0  0  0  0  0  0
   -1.3797    0.1566    8.3625 N   0  0  0  0  0  0  0  0  0  0  0  0
   -2.2222    0.6931    8.2466 H   0  0  0  0  0  0  0  0  0  0  0  0
   -1.0465   -0.0457    9.2870 H   0  0  0  0  0  0  0  0  0  0  0  0
   -0.6034   -0.4026   -0.2153 C   0  0  0  0  0  0  0  0  0  0  0  0
   -0.0003   -1.4649   -0.3095 O   0  0  0  0  0  0  0  0  0  0  0  0
   -0.5590    0.5507   -1.1513 N   0  0  0  0  0  0  0  0  0  0  0  0
   -1.1152    1.3778   -1.0082 H   0  0  0  0  0  0  0  0  0  0  0  0
    0.1749    0.4271   -2.4118 C   0  0  0  0  0  0  0  0  0  0  0  0
   -0.2537   -0.3791   -3.0111 H   0  0  0  0  0  0  0  0  0  0  0  0
    0.1192    1.3584   -2.9769 H   0  0  0  0  0  0  0  0  0  0  0  0
    1.2221    0.1893   -2.2126 H   0  0  0  0  0  0  0  0  0  0  0  0
  5  6  2  0  0  0  0
  5  7  1  0  0  0  0
  2  3  1  0  0  0  0
  2  4  1  0  0  0  0
  2  5  1  0  0  0  0
  1  2  1  0  0  0  0
 29 30  2  0  0  0  0
 29 31  1  0  0  0  0
 26 27  1  0  0  0  0
 26 28  1  0  0  0  0
 23 24  1  0  0  0  0
 23 25  1  0  0  0  0
 22 23  1  0  0  0  0
 22 26  1  0  0  0  0
 20 21  1  0  0  0  0
 20 22  2  0  0  0  0
 17 18  1  0  0  0  0
 17 19  1  0  0  0  0
 17 20  1  0  0  0  0
 14 15  1  0  0  0  0
 14 16  1  0  0  0  0
 14 17  1  0  0  0  0
 11 12  1  0  0  0  0
 11 13  1  0  0  0  0
 11 14  1  0  0  0  0
  9 10  1  0  0  0  0
  9 11  1  0  0  0  0
  9 29  1  0  0  0  0
  7  8  1  0  0  0  0
  7  9  1  0  0  0  0
 33 34  1  0  0  0  0
 33 35  1  0  0  0  0
 33 36  1  0  0  0  0
 31 32  1  0  0  0  0
 31 33  1  0  0  0  0
M  CHG  1  20   1
M  END
$$$$
default_name
  -OEChem-01062215323D

 36 35  0     1  0  0  0  0  0999 V2000
   -4.2256   -3.6731    1.8584 H   0  0  0  0  0  0  0  0  0  0  0  0
   -4.2396   -2.6781    1.4144 C   0  0  0  0  0  0  0  0  0  0  0  0
   -4.9506   -2.0521    1.9514 H   0  0  0  0  0  0  0  0  0  0  0  0
   -4.5266   -2.7521    0.3674 H   0  0  0  0  0  0  0  0  0  0  0  0
   -2.8576   -2.0761    1.5184 C   0  0  0  0  0  0  0  0  0  0  0  0
   -1.9456   -2.7051    2.0404 O   0  0  0  0  0  0  0  0  0  0  0  0
   -2.6926   -0.8481    1.0174 N   0  0  0  0  0  0  0  0  0  0  0  0
   -3.4926   -0.3971    0.5954 H   0  0  0  0  0  0  0  0  0  0  0  0
   -1.4216   -0.1071    1.0434 C   0  0  1  0  0  0  0  0  0  0  0  0
   -1.6463    0.9603    1.0742 H   0  0  0  0  0  0  0  0  0  0  0  0
   -0.6593   -0.4909    2.3275 C   0  0  0  0  0  0  0  0  0  0  0  0
   -0.5744   -1.5786    2.3704 H   0  0  0  0  0  0  0  0  0  0  0  0
    0.3491   -0.0736    2.2822 H   0  0  0  0  0  0  0  0  0  0  0  0
   -1.3468   -0.0095    3.6136 C   0  0  0  0  0  0  0  0  0  0  0  0
   -1.4335    1.0779    3.6007 H   0  0  0  0  0  0  0  0  0  0  0  0
   -2.3424   -0.4497    3.6769 H   0  0  0  0  0  0  0  0  0  0  0  0
   -0.5226   -0.4335    4.8368 C   0  0  0  0  0  0  0  0  0  0  0  0
   -0.4182   -1.5209    4.8271 H   0  0  0  0  0  0  0  0  0  0  0  0
    0.4700    0.0166    4.7603 H   0  0  0  0  0  0  0  0  0  0  0  0
   -1.1602   -0.0111    6.1008 N   0  3  0  0  0  0  0  0  0  0  0  0
   -2.0054    0.5281    6.0222 H   0  0  0  0  0  0  0  0  0  0  0  0
   -0.7255   -0.2746    7.3217 C   0  0  0  0  0  0  0  0  0  0  0  0
    0.3591   -0.9649    7.5374 N   0  0  0  0  0  0  0  0  0  0  0  0
    0.8790   -1.3079    6.7491 H   0  0  0  0  0  0  0  0  0  0  0  0
    0.6754   -1.1557    8.4704 H   0  0  0  0  0  0  0  0  0  0  0  0
   -1.3797    0.1566    8.3625 N   0  0  0  0  0  0  0  0  0  0  0  0
   -2.2222    0.6931    8.2466 H   0  0  0  0  0  0  0  0  0  0  0  0
   -1.0465   -0.0457    9.2870 H   0  0  0  0  0  0  0  0  0  0  0  0
   -0.6034   -0.4026   -0.2153 C   0  0  0  0  0  0  0  0  0  0  0  0
   -0.2313   -1.5480   -0.4402 O   0  0  0  0  0  0  0  0  0  0  0  0
   -0.2997    0.6343   -1.0024 N   0  0  0  0  0  0  0  0  0  0  0  0
   -0.6785    1.5356   -0.7613 H   0  0  0  0  0  0  0  0  0  0  0  0
    0.4723    0.5235   -2.2411 C   0  0  0  0  0  0  0  0  0  0  0  0
   -0.0757   -0.0838   -2.9647 H   0  0  0  0  0  0  0  0  0  0  0  0
    0.6498    1.5114   -2.6680 H   0  0  0  0  0  0  0  0  0  0  0  0
    1.4313    0.0403   -2.0417 H   0  0  0  0  0  0  0  0  0  0  0  0
  5  6  2  0  0  0  0
  5  7  1  0  0  0  0
  2  3  1  0  0  0  0
  2  4  1  0  0  0  0
  2  5  1  0  0  0  0
  1  2  1  0  0  0  0
 29 30  2  0  0  0  0
 29 31  1  0  0  0  0
 26 27  1  0  0  0  0
 26 28  1  0  0  0  0
 23 24  1  0  0  0  0
 23 25  1  0  0  0  0
 22 23  1  0  0  0  0
 22 26  1  0  0  0  0
 20 21  1  0  0  0  0
 20 22  2  0  0  0  0
 17 18  1  0  0  0  0
 17 19  1  0  0  0  0
 17 20  1  0  0  0  0
 14 15  1  0  0  0  0
 14 16  1  0  0  0  0
 14 17  1  0  0  0  0
 11 12  1  0  0  0  0
 11 13  1  0  0  0  0
 11 14  1  0  0  0  0
  9 10  1  0  0  0  0
  9 11  1  0  0  0  0
  9 29  1  0  0  0  0
  7  8  1  0  0  0  0
  7  9  1  0  0  0  0
 33 34  1  0  0  0  0
 33 35  1  0  0  0  0
 33 36  1  0  0  0  0
 31 32  1  0  0  0  0
 31 33  1  0  0  0  0
M  CHG  1  20   1
M  END
$$$$
default_name
  -OEChem-01062215323D

 36 35  0     1  0  0  0  0  0999 V2000
   -4.2256   -3.6731    1.8584 H   0  0  0  0  0  0  0  0  0  0  0  0
   -4.2396   -2.6781    1.4144 C   0  0  0  0  0  0  0  0  0  0  0  0
   -4.9506   -2.0521    1.9514 H   0  0  0  0  0  0  0  0  0  0  0  0
   -4.5266   -2.7521    0.3674 H   0  0  0  0  0  0  0  0  0  0  0  0
   -2.8576   -2.0761    1.5184 C   0  0  0  0  0  0  0  0  0  0  0  0
   -1.9456   -2.7051    2.0404 O   0  0  0  0  0  0  0  0  0  0  0  0
   -2.6926   -0.8481    1.0174 N   0  0  0  0  0  0  0  0  0  0  0  0
   -3.4926   -0.3971    0.5954 H   0  0  0  0  0  0  0  0  0  0  0  0
   -1.4216   -0.1071    1.0434 C   0  0  1  0  0  0  0  0  0  0  0  0
   -1.6463    0.9603    1.0742 H   0  0  0  0  0  0  0  0  0  0  0  0
   -0.6593   -0.4909    2.3275 C   0  0  0  0  0  0  0  0  0  0  0  0
   -0.5744   -1.5786    2.3704 H   0  0  0  0  0  0  0  0  0  0  0  0
    0.3491   -0.0736    2.2822 H   0  0  0  0  0  0  0  0  0  0  0  0
   -1.3468   -0.0095    3.6136 C   0  0  0  0  0  0  0  0  0  0  0  0
   -1.4335    1.0779    3.6007 H   0  0  0  0  0  0  0  0  0  0  0  0
   -2.3424   -0.4497    3.6769 H   0  0  0  0  0  0  0  0  0  0  0  0
   -0.5226   -0.4335    4.8368 C   0  0  0  0  0  0  0  0  0  0  0  0
   -0.4182   -1.5209    4.8271 H   0  0  0  0  0  0  0  0  0  0  0  0
    0.4700    0.0166    4.7603 H   0  0  0  0  0  0  0  0  0  0  0  0
   -1.1602   -0.0111    6.1008 N   0  3  0  0  0  0  0  0  0  0  0  0
   -2.0054    0.5281    6.0222 H   0  0  0  0  0  0  0  0  0  0  0  0
   -0.7255   -0.2746    7.3217 C   0  0  0  0  0  0  0  0  0  0  0  0
    0.3591   -0.9649    7.5374 N   0  0  0  0  0  0  0  0  0  0  0  0
    0.8790   -1.3079    6.7491 H   0  0  0  0  0  0  0  0  0  0  0  0
    0.6754   -1.1557    8.4704 H   0  0  0  0  0  0  0  0  0  0  0  0
   -1.3797    0.1566    8.3625 N   0  0  0  0  0  0  0  0  0  0  0  0
   -2.2222    0.6931    8.2466 H   0  0  0  0  0  0  0  0  0  0  0  0
   -1.0465   -0.0457    9.2870 H   0  0  0  0  0  0  0  0  0  0  0  0
   -0.6034   -0.4026   -0.2153 C   0  0  0  0  0  0  0  0  0  0  0  0
   -0.4657   -1.5611   -0.5894 O   0  0  0  0  0  0  0  0  0  0  0  0
   -0.0388    0.6392   -0.8340 N   0  0  0  0  0  0  0  0  0  0  0  0
   -0.2353    1.5609   -0.4792 H   0  0  0  0  0  0  0  0  0  0  0  0
    0.7717    0.5297   -2.0480 C   0  0  0  0  0  0  0  0  0  0  0  0
    0.1568    0.1571   -2.8701 H   0  0  0  0  0  0  0  0  0  0  0  0
    1.1794    1.5036   -2.3219 H   0  0  0  0  0  0  0  0  0  0  0  0
    1.5932   -0.1717   -1.8867 H   0  0  0  0  0  0  0  0  0  0  0  0
  5  6  2  0  0  0  0
  5  7  1  0  0  0  0
  2  3  1  0  0  0  0
  2  4  1  0  0  0  0
  2  5  1  0  0  0  0
  1  2  1  0  0  0  0
 29 30  2  0  0  0  0
 29 31  1  0  0  0  0
 26 27  1  0  0  0  0
 26 28  1  0  0  0  0
 23 24  1  0  0  0  0
 23 25  1  0  0  0  0
 22 23  1  0  0  0  0
 22 26  1  0  0  0  0
 20 21  1  0  0  0  0
 20 22  2  0  0  0  0
 17 18  1  0  0  0  0
 17 19  1  0  0  0  0
 17 20  1  0  0  0  0
 14 15  1  0  0  0  0
 14 16  1  0  0  0  0
 14 17  1  0  0  0  0
 11 12  1  0  0  0  0
 11 13  1  0  0  0  0
 11 14  1  0  0  0  0
  9 10  1  0  0  0  0
  9 11  1  0  0  0  0
  9 29  1  0  0  0  0
  7  8  1  0  0  0  0
  7  9  1  0  0  0  0
 33 34  1  0  0  0  0
 33 35  1  0  0  0  0
 33 36  1  0  0  0  0
 31 32  1  0  0  0  0
 31 33  1  0  0  0  0
M  CHG  1  20   1
M  END
$$$$
default_name
  -OEChem-01062215323D

 36 35  0     1  0  0  0  0  0999 V2000
   -4.2256   -3.6731    1.8584 H   0  0  0  0  0  0  0  0  0  0  0  0
   -4.2396   -2.6781    1.4144 C   0  0  0  0  0  0  0  0  0  0  0  0
   -4.9506   -2.0521    1.9514 H   0  0  0  0  0  0  0  0  0  0  0  0
   -4.5266   -2.7521    0.3674 H   0  0  0  0  0  0  0  0  0  0  0  0
   -2.8576   -2.0761    1.5184 C   0  0  0  0  0  0  0  0  0  0  0  0
   -1.9456   -2.7051    2.0404 O   0  0  0  0  0  0  0  0  0  0  0  0
   -2.6926   -0.8481    1.0174 N   0  0  0  0  0  0  0  0  0  0  0  0
   -3.4926   -0.3971    0.5954 H   0  0  0  0  0  0  0  0  0  0  0  0
   -1.4216   -0.1071    1.0434 C   0  0  1  0  0  0  0  0  0  0  0  0
   -1.6463    0.9603    1.0742 H   0  0  0  0  0  0  0  0  0  0  0  0
   -0.6593   -0.4909    2.3275 C   0  0  0  0  0  0  0  0  0  0  0  0
   -0.5744   -1.5786    2.3704 H   0  0  0  0  0  0  0  0  0  0  0  0
    0.3491   -0.0736    2.2822 H   0  0  0  0  0  0  0  0  0  0  0  0
   -1.3468   -0.0095    3.6136 C   0  0  0  0  0  0  0  0  0  0  0  0
   -1.4335    1.0779    3.6007 H   0  0  0  0  0  0  0  0  0  0  0  0
   -2.3424   -0.4497    3.6769 H   0  0  0  0  0  0  0  0  0  0  0  0
   -0.5226   -0.4335    4.8368 C   0  0  0  0  0  0  0  0  0  0  0  0
   -0.4182   -1.5209    4.8271 H   0  0  0  0  0  0  0  0  0  0  0  0
    0.4700    0.0166    4.7603 H   0  0  0  0  0  0  0  0  0  0  0  0
   -1.1602   -0.0111    6.1008 N   0  3  0  0  0  0  0  0  0  0  0  0
   -2.0054    0.5281    6.0222 H   0  0  0  0  0  0  0  0  0  0  0  0
   -0.7255   -0.2746    7.3217 C   0  0  0  0  0  0  0  0  0  0  0  0
    0.3591   -0.9649    7.5374 N   0  0  0  0  0  0  0  0  0  0  0  0
    0.8790   -1.3079    6.7491 H   0  0  0  0  0  0  0  0  0  0  0  0
    0.6754   -1.1557    8.4704 H   0  0  0  0  0  0  0  0  0  0  0  0
   -1.3797    0.1566    8.3625 N   0  0  0  0  0  0  0  0  0  0  0  0
   -2.2222    0.6931    8.2466 H   0  0  0  0  0  0  0  0  0  0  0  0
   -1.0465   -0.0457    9.2870 H   0  0  0  0  0  0  0  0  0  0  0  0
   -0.6034   -0.4026   -0.2153 C   0  0  0  0  0  0  0  0  0  0  0  0
   -0.6873   -1.5031   -0.7471 O   0  0  0  0  0  0  0  0  0  0  0  0
    0.2058    0.5651   -0.6576 N   0  0  0  0  0  0  0  0  0  0  0  0
    0.1840    1.4519   -0.1811 H   0  0  0  0  0  0  0  0  0  0  0  0
    1.0525    0.4452   -1.8457 C   0  0  0  0  0  0  0  0  0  0  0  0
    0.4280    0.3273   -2.7338 H   0  0  0  0  0  0  0  0  0  0  0  0
    1.6720    1.3353   -1.9622 H   0  0  0  0  0  0  0  0  0  0  0  0
    1.6966   -0.4325   -1.7582 H   0  0  0  0  0  0  0  0  0  0  0  0
  5  6  2  0  0  0  0
  5  7  1  0  0  0  0
  2  3  1  0  0  0  0
  2  4  1  0  0  0  0
  2  5  1  0  0  0  0
  1  2  1  0  0  0  0
 29 30  2  0  0  0  0
 29 31  1  0  0  0  0
 26 27  1  0  0  0  0
 26 28  1  0  0  0  0
 23 24  1  0  0  0  0
 23 25  1  0  0  0  0
 22 23  1  0  0  0  0
 22 26  1  0  0  0  0
 20 21  1  0  0  0  0
 20 22  2  0  0  0  0
 17 18  1  0  0  0  0
 17 19  1  0  0  0  0
 17 20  1  0  0  0  0
 14 15  1  0  0  0  0
 14 16  1  0  0  0  0
 14 17  1  0  0  0  0
 11 12  1  0  0  0  0
 11 13  1  0  0  0  0
 11 14  1  0  0  0  0
  9 10  1  0  0  0  0
  9 11  1  0  0  0  0
  9 29  1  0  0  0  0
  7  8  1  0  0  0  0
  7  9  1  0  0  0  0
 33 34  1  0  0  0  0
 33 35  1  0  0  0  0
 33 36  1  0  0  0  0
 31 32  1  0  0  0  0
 31 33  1  0  0  0  0
M  CHG  1  20   1
M  END
$$$$
default_name
  -OEChem-01062215323D

 36 35  0     1  0  0  0  0  0999 V2000
   -4.2256   -3.6731    1.8584 H   0  0  0  0  0  0  0  0  0  0  0  0
   -4.2396   -2.6781    1.4144 C   0  0  0  0  0  0  0  0  0  0  0  0
   -4.9506   -2.0521    1.9514 H   0  0  0  0  0  0  0  0  0  0  0  0
   -4.5266   -2.7521    0.3674 H   0  0  0  0  0  0  0  0  0  0  0  0
   -2.8576   -2.0761    1.5184 C   0  0  0  0  0  0  0  0  0  0  0  0
   -1.9456   -2.7051    2.0404 O   0  0  0  0  0  0  0  0  0  0  0  0
   -2.6926   -0.8481    1.0174 N   0  0  0  0  0  0  0  0  0  0  0  0
   -3.4926   -0.3971    0.5954 H   0  0  0  0  0  0  0  0  0  0  0  0
   -1.4216   -0.1071    1.0434 C   0  0  1  0  0  0  0  0  0  0  0  0
   -1.6463    0.9603    1.0742 H   0  0  0  0  0  0  0  0  0  0  0  0
   -0.6593   -0.4909    2.3275 C   0  0  0  0  0  0  0  0  0  0  0  0
   -0.5744   -1.5786    2.3704 H   0  0  0  0  0  0  0  0  0  0  0  0
    0.3491   -0.0736    2.2822 H   0  0  0  0  0  0  0  0  0  0  0  0
   -1.3468   -0.0095    3.6136 C   0  0  0  0  0  0  0  0  0  0  0  0
   -1.4335    1.0779    3.6007 H   0  0  0  0  0  0  0  0  0  0  0  0
   -2.3424   -0.4497    3.6769 H   0  0  0  0  0  0  0  0  0  0  0  0
   -0.5226   -0.4335    4.8368 C   0  0  0  0  0  0  0  0  0  0  0  0
   -0.4182   -1.5209    4.8271 H   0  0  0  0  0  0  0  0  0  0  0  0
    0.4700    0.0166    4.7603 H   0  0  0  0  0  0  0  0  0  0  0  0
   -1.1602   -0.0111    6.1008 N   0  3  0  0  0  0  0  0  0  0  0  0
   -2.0054    0.5281    6.0222 H   0  0  0  0  0  0  0  0  0  0  0  0
   -0.7255   -0.2746    7.3217 C   0  0  0  0  0  0  0  0  0  0  0  0
    0.3591   -0.9649    7.5374 N   0  0  0  0  0  0  0  0  0  0  0  0
    0.8790   -1.3079    6.7491 H   0  0  0  0  0  0  0  0  0  0  0  0
    0.6754   -1.1557    8.4704 H   0  0  0  0  0  0  0  0  0  0  0  0
   -1.3797    0.1566    8.3625 N   0  0  0  0  0  0  0  0  0  0  0  0
   -2.2222    0.6931    8.2466 H   0  0  0  0  0  0  0  0  0  0  0  0
   -1.0465   -0.0457    9.2870 H   0  0  0  0  0  0  0  0  0  0  0  0
   -0.6034   -0.4026   -0.2153 C   0  0  0  0  0  0  0  0  0  0  0  0
   -0.8812   -1.3782   -0.9024 O   0  0  0  0  0  0  0  0  0  0  0  0
    0.4175    0.4170   -0.4852 N   0  0  0  0  0  0  0  0  0  0  0  0
    0.5510    1.2161    0.1127 H   0  0  0  0  0  0  0  0  0  0  0  0
    1.2956    0.2758   -1.6479 C   0  0  0  0  0  0  0  0  0  0  0  0
    0.7193    0.4150   -2.5650 H   0  0  0  0  0  0  0  0  0  0  0  0
    2.0940    1.0181   -1.6135 H   0  0  0  0  0  0  0  0  0  0  0  0
    1.7346   -0.7242   -1.6651 H   0  0  0  0  0  0  0  0  0  0  0  0
  5  6  2  0  0  0  0
  5  7  1  0  0  0  0
  2  3  1  0  0  0  0
  2  4  1  0  0  0  0
  2  5  1  0  0  0  0
  1  2  1  0  0  0  0
 29 30  2  0  0  0  0
 29 31  1  0  0  0  0
 26 27  1  0  0  0  0
 26 28  1  0  0  0  0
 23 24  1  0  0  0  0
 23 25  1  0  0  0  0
 22 23  1  0  0  0  0
 22 26  1  0  0  0  0
 20 21  1  0  0  0  0
 20 22  2  0  0  0  0
 17 18  1  0  0  0  0
 17 19  1  0  0  0  0
 17 20  1  0  0  0  0
 14 15  1  0  0  0  0
 14 16  1  0  0  0  0
 14 17  1  0  0  0  0
 11 12  1  0  0  0  0
 11 13  1  0  0  0  0
 11 14  1  0  0  0  0
  9 10  1  0  0  0  0
  9 11  1  0  0  0  0
  9 29  1  0  0  0  0
  7  8  1  0  0  0  0
  7  9  1  0  0  0  0
 33 34  1  0  0  0  0
 33 35  1  0  0  0  0
 33 36  1  0  0  0  0
 31 32  1  0  0  0  0
 31 33  1  0  0  0  0
M  CHG  1  20   1
M  END
$$$$
default_name
  -OEChem-01062215323D

 36 35  0     1  0  0  0  0  0999 V2000
   -4.2256   -3.6731    1.8584 H   0  0  0  0  0  0  0  0  0  0  0  0
   -4.2396   -2.6781    1.4144 C   0  0  0  0  0  0  0  0  0  0  0  0
   -4.9506   -2.0521    1.9514 H   0  0  0  0  0  0  0  0  0  0  0  0
   -4.5266   -2.7521    0.3674 H   0  0  0  0  0  0  0  0  0  0  0  0
   -2.8576   -2.0761    1.5184 C   0  0  0  0  0  0  0  0  0  0  0  0
   -1.9456   -2.7051    2.0404 O   0  0  0  0  0  0  0  0  0  0  0  0
   -2.6926   -0.8481    1.0174 N   0  0  0  0  0  0  0  0  0  0  0  0
   -3.4926   -0.3971    0.5954 H   0  0  0  0  0  0  0  0  0  0  0  0
   -1.4216   -0.1071    1.0434 C   0  0  1  0  0  0  0  0  0  0  0  0
   -1.6294    0.9219    1.3413 H   0  0  0  0  0  0  0  0  0  0  0  0
   -0.5018   -0.7530    2.0989 C   0  0  0  0  0  0  0  0  0  0  0  0
   -0.4232   -1.8210    1.8859 H   0  0  0  0  0  0  0  0  0  0  0  0
    0.4962   -0.3167    2.0176 H   0  0  0  0  0  0  0  0  0  0  0  0
   -1.0101   -0.5843    3.5382 C   0  0  0  0  0  0  0  0  0  0  0  0
   -1.0867    0.4766    3.7804 H   0  0  0  0  0  0  0  0  0  0  0  0
   -1.9934   -1.0468    3.6300 H   0  0  0  0  0  0  0  0  0  0  0  0
   -0.0373   -1.2547    4.5179 C   0  0  0  0  0  0  0  0  0  0  0  0
    0.0537   -2.3102    4.2514 H   0  0  0  0  0  0  0  0  0  0  0  0
    0.9413   -0.7797    4.4158 H   0  0  0  0  0  0  0  0  0  0  0  0
   -0.4997   -1.1375    5.9162 N   0  3  0  0  0  0  0  0  0  0  0  0
   -1.3424   -0.6109    6.0706 H   0  0  0  0  0  0  0  0  0  0  0  0
    0.0883   -1.6585    6.9800 C   0  0  0  0  0  0  0  0  0  0  0  0
    1.1847   -2.3584    6.8930 N   0  0  0  0  0  0  0  0  0  0  0  0
    1.5934   -2.5065    5.9873 H   0  0  0  0  0  0  0  0  0  0  0  0
    1.6183   -2.7464    7.7104 H   0  0  0  0  0  0  0  0  0  0  0  0
   -0.4196   -1.4833    8.1668 N   0  0  0  0  0  0  0  0  0  0  0  0
   -1.2645   -0.9509    8.2844 H   0  0  0  0  0  0  0  0  0  0  0  0
    0.0296   -1.8804    8.9713 H   0  0  0  0  0  0  0  0  0  0  0  0
   -0.7782   -0.0981   -0.3448 C   0  0  0  0  0  0  0  0  0  0  0  0
   -1.3219   -0.6933   -1.2675 O   0  0  0  0  0  0  0  0  0  0  0  0
    0.3881    0.5423   -0.4721 N   0  0  0  0  0  0  0  0  0  0  0  0
    0.7444    1.0361    0.3298 H   0  0  0  0  0  0  0  0  0  0  0  0
    1.1321    0.6465   -1.7285 C   0  0  0  0  0  0  0  0  0  0  0  0
    0.5479    1.2115   -2.4579 H   0  0  0  0  0  0  0  0  0  0  0  0
    2.0839    1.1538   -1.5655 H   0  0  0  0  0  0  0  0  0  0  0  0
    1.3204   -0.3496   -2.1348 H   0  0  0  0  0  0  0  0  0  0  0  0
  5  6  2  0  0  0  0
  5  7  1  0  0  0  0
  2  3  1  0  0  0  0
  2  4  1  0  0  0  0
  2  5  1  0  0  0  0
  1  2  1  0  0  0  0
 29 30  2  0  0  0  0
 29 31  1  0  0  0  0
 26 27  1  0  0  0  0
 26 28  1  0  0  0  0
 23 24  1  0  0  0  0
 23 25  1  0  0  0  0
 22 23  1  0  0  0  0
 22 26  1  0  0  0  0
 20 21  1  0  0  0  0
 20 22  2  0  0  0  0
 17 18  1  0  0  0  0
 17 19  1  0  0  0  0
 17 20  1  0  0  0  0
 14 15  1  0  0  0  0
 14 16  1  0  0  0  0
 14 17  1  0  0  0  0
 11 12  1  0  0  0  0
 11 13  1  0  0  0  0
 11 14  1  0  0  0  0
  9 10  1  0  0  0  0
  9 11  1  0  0  0  0
  9 29  1  0  0  0  0
  7  8  1  0  0  0  0
  7  9  1  0  0  0  0
 33 34  1  0  0  0  0
 33 35  1  0  0  0  0
 33 36  1  0  0  0  0
 31 32  1  0  0  0  0
 31 33  1  0  0  0  0
M  CHG  1  20   1
M  END
$$$$
default_name
  -OEChem-01062215323D

 36 35  0     1  0  0  0  0  0999 V2000
   -4.2256   -3.6731    1.8584 H   0  0  0  0  0  0  0  0  0  0  0  0
   -4.2396   -2.6781    1.4144 C   0  0  0  0  0  0  0  0  0  0  0  0
   -4.9506   -2.0521    1.9514 H   0  0  0  0  0  0  0  0  0  0  0  0
   -4.5266   -2.7521    0.3674 H   0  0  0  0  0  0  0  0  0  0  0  0
   -2.8576   -2.0761    1.5184 C   0  0  0  0  0  0  0  0  0  0  0  0
   -1.9456   -2.7051    2.0404 O   0  0  0  0  0  0  0  0  0  0  0  0
   -2.6926   -0.8481    1.0174 N   0  0  0  0  0  0  0  0  0  0  0  0
   -3.4926   -0.3971    0.5954 H   0  0  0  0  0  0  0  0  0  0  0  0
   -1.4216   -0.1071    1.0434 C   0  0  1  0  0  0  0  0  0  0  0  0
   -1.6294    0.9219    1.3413 H   0  0  0  0  0  0  0  0  0  0  0  0
   -0.5018   -0.7530    2.0989 C   0  0  0  0  0  0  0  0  0  0  0  0
   -0.4232   -1.8210    1.8859 H   0  0  0  0  0  0  0  0  0  0  0  0
    0.4962   -0.3167    2.0176 H   0  0  0  0  0  0  0  0  0  0  0  0
   -1.0101   -0.5843    3.5382 C   0  0  0  0  0  0  0  0  0  0  0  0
   -1.0867    0.4766    3.7804 H   0  0  0  0  0  0  0  0  0  0  0  0
   -1.9934   -1.0468    3.6300 H   0  0  0  0  0  0  0  0  0  0  0  0
   -0.0373   -1.2547    4.5179 C   0  0  0  0  0  0  0  0  0  0  0  0
    0.0537   -2.3102    4.2514 H   0  0  0  0  0  0  0  0  0  0  0  0
    0.9413   -0.7797    4.4158 H   0  0  0  0  0  0  0  0  0  0  0  0
   -0.4997   -1.1375    5.9162 N   0  3  0  0  0  0  0  0  0  0  0  0
   -1.3424   -0.6109    6.0706 H   0  0  0  0  0  0  0  0  0  0  0  0
    0.0883   -1.6585    6.9800 C   0  0  0  0  0  0  0  0  0  0  0  0
    1.1847   -2.3584    6.8930 N   0  0  0  0  0  0  0  0  0  0  0  0
    1.5934   -2.5065    5.9873 H   0  0  0  0  0  0  0  0  0  0  0  0
    1.6183   -2.7464    7.7104 H   0  0  0  0  0  0  0  0  0  0  0  0
   -0.4196   -1.4833    8.1668 N   0  0  0  0  0  0  0  0  0  0  0  0
   -1.2645   -0.9509    8.2844 H   0  0  0  0  0  0  0  0  0  0  0  0
    0.0296   -1.8804    8.9713 H   0  0  0  0  0  0  0  0  0  0  0  0
   -0.7782   -0.0981   -0.3448 C   0  0  0  0  0  0  0  0  0  0  0  0
   -1.4358   -0.4448   -1.3187 O   0  0  0  0  0  0  0  0  0  0  0  0
    0.5073    0.2606   -0.4187 N   0  0  0  0  0  0  0  0  0  0  0  0
    0.9604    0.5665    0.4268 H   0  0  0  0  0  0  0  0  0  0  0  0
    1.2694    0.3235   -1.6670 C   0  0  0  0  0  0  0  0  0  0  0  0
    0.8426    1.0859   -2.3222 H   0  0  0  0  0  0  0  0  0  0  0  0
    2.3117    0.5723   -1.4637 H   0  0  0  0  0  0  0  0  0  0  0  0
    1.2230   -0.6386   -2.1818 H   0  0  0  0  0  0  0  0  0  0  0  0
  5  6  2  0  0  0  0
  5  7  1  0  0  0  0
  2  3  1  0  0  0  0
  2  4  1  0  0  0  0
  2  5  1  0  0  0  0
  1  2  1  0  0  0  0
 29 30  2  0  0  0  0
 29 31  1  0  0  0  0
 26 27  1  0  0  0  0
 26 28  1  0  0  0  0
 23 24  1  0  0  0  0
 23 25  1  0  0  0  0
 22 23  1  0  0  0  0
 22 26  1  0  0  0  0
 20 21  1  0  0  0  0
 20 22  2  0  0  0  0
 17 18  1  0  0  0  0
 17 19  1  0  0  0  0
 17 20  1  0  0  0  0
 14 15  1  0  0  0  0
 14 16  1  0  0  0  0
 14 17  1  0  0  0  0
 11 12  1  0  0  0  0
 11 13  1  0  0  0  0
 11 14  1  0  0  0  0
  9 10  1  0  0  0  0
  9 11  1  0  0  0  0
  9 29  1  0  0  0  0
  7  8  1  0  0  0  0
  7  9  1  0  0  0  0
 33 34  1  0  0  0  0
 33 35  1  0  0  0  0
 33 36  1  0  0  0  0
 31 32  1  0  0  0  0
 31 33  1  0  0  0  0
M  CHG  1  20   1
M  END
$$$$
default_name
  -OEChem-01062215323D

 36 35  0     1  0  0  0  0  0999 V2000
   -4.2256   -3.6731    1.8584 H   0  0  0  0  0  0  0  0  0  0  0  0
   -4.2396   -2.6781    1.4144 C   0  0  0  0  0  0  0  0  0  0  0  0
   -4.9506   -2.0521    1.9514 H   0  0  0  0  0  0  0  0  0  0  0  0
   -4.5266   -2.7521    0.3674 H   0  0  0  0  0  0  0  0  0  0  0  0
   -2.8576   -2.0761    1.5184 C   0  0  0  0  0  0  0  0  0  0  0  0
   -1.9456   -2.7051    2.0404 O   0  0  0  0  0  0  0  0  0  0  0  0
   -2.6926   -0.8481    1.0174 N   0  0  0  0  0  0  0  0  0  0  0  0
   -3.4926   -0.3971    0.5954 H   0  0  0  0  0  0  0  0  0  0  0  0
   -1.4216   -0.1071    1.0434 C   0  0  1  0  0  0  0  0  0  0  0  0
   -1.6294    0.9219    1.3413 H   0  0  0  0  0  0  0  0  0  0  0  0
   -0.5018   -0.7530    2.0989 C   0  0  0  0  0  0  0  0  0  0  0  0
   -0.4232   -1.8210    1.8859 H   0  0  0  0  0  0  0  0  0  0  0  0
    0.4962   -0.3167    2.0176 H   0  0  0  0  0  0  0  0  0  0  0  0
   -1.0101   -0.5843    3.5382 C   0  0  0  0  0  0  0  0  0  0  0  0
   -1.0867    0.4766    3.7804 H   0  0  0  0  0  0  0  0  0  0  0  0
   -1.9934   -1.0468    3.6300 H   0  0  0  0  0  0  0  0  0  0  0  0
   -0.0373   -1.2547    4.5179 C   0  0  0  0  0  0  0  0  0  0  0  0
    0.0537   -2.3102    4.2514 H   0  0  0  0  0  0  0  0  0  0  0  0
    0.9413   -0.7797    4.4158 H   0  0  0  0  0  0  0  0  0  0  0  0
   -0.4997   -1.1375    5.9162 N   0  3  0  0  0  0  0  0  0  0  0  0
   -1.3424   -0.6109    6.0706 H   0  0  0  0  0  0  0  0  0  0  0  0
    0.0883   -1.6585    6.9800 C   0  0  0  0  0  0  0  0  0  0  0  0
    1.1847   -2.3584    6.8930 N   0  0  0  0  0  0  0  0  0  0  0  0
    1.5934   -2.5065    5.9873 H   0  0  0  0  0  0  0  0  0  0  0  0
    1.6183   -2.7464    7.7104 H   0  0  0  0  0  0  0  0  0  0  0  0
   -0.4196   -1.4833    8.1668 N   0  0  0  0  0  0  0  0  0  0  0  0
   -1.2645   -0.9509    8.2844 H   0  0  0  0  0  0  0  0  0  0  0  0
    0.0296   -1.8804    8.9713 H   0  0  0  0  0  0  0  0  0  0  0  0
   -0.7782   -0.0981   -0.3448 C   0  0  0  0  0  0  0  0  0  0  0  0
   -1.4876   -0.1725   -1.3409 O   0  0  0  0  0  0  0  0  0  0  0  0
    0.5563   -0.0453   -0.3980 N   0  0  0  0  0  0  0  0  0  0  0  0
    1.0589    0.0516    0.4691 H   0  0  0  0  0  0  0  0  0  0  0  0
    1.3262   -0.0274   -1.6429 C   0  0  0  0  0  0  0  0  0  0  0  0
    1.0980    0.8806   -2.2051 H   0  0  0  0  0  0  0  0  0  0  0  0
    2.3954   -0.0539   -1.4290 H   0  0  0  0  0  0  0  0  0  0  0  0
    1.0610   -0.8897   -2.2585 H   0  0  0  0  0  0  0  0  0  0  0  0
  5  6  2  0  0  0  0
  5  7  1  0  0  0  0
  2  3  1  0  0  0  0
  2  4  1  0  0  0  0
  2  5  1  0  0  0  0
  1  2  1  0  0  0  0
 29 30  2  0  0  0  0
 29 31  1  0  0  0  0
 26 27  1  0  0  0  0
 26 28  1  0  0  0  0
 23 24  1  0  0  0  0
 23 25  1  0  0  0  0
 22 23  1  0  0  0  0
 22 26  1  0  0  0  0
 20 21  1  0  0  0  0
 20 22  2  0  0  0  0
 17 18  1  0  0  0  0
 17 19  1  0  0  0  0
 17 20  1  0  0  0  0
 14 15  1  0  0  0  0
 14 16  1  0  0  0  0
 14 17  1  0  0  0  0
 11 12  1  0  0  0  0
 11 13  1  0  0  0  0
 11 14  1  0  0  0  0
  9 10  1  0  0  0  0
  9 11  1  0  0  0  0
  9 29  1  0  0  0  0
  7  8  1  0  0  0  0
  7  9  1  0  0  0  0
 33 34  1  0  0  0  0
 33 35  1  0  0  0  0
 33 36  1  0  0  0  0
 31 32  1  0  0  0  0
 31 33  1  0  0  0  0
M  CHG  1  20   1
M  END
$$$$
default_name
  -OEChem-01062215323D

 36 35  0     1  0  0  0  0  0999 V2000
   -4.2256   -3.6731    1.8584 H   0  0  0  0  0  0  0  0  0  0  0  0
   -4.2396   -2.6781    1.4144 C   0  0  0  0  0  0  0  0  0  0  0  0
   -4.9506   -2.0521    1.9514 H   0  0  0  0  0  0  0  0  0  0  0  0
   -4.5266   -2.7521    0.3674 H   0  0  0  0  0  0  0  0  0  0  0  0
   -2.8576   -2.0761    1.5184 C   0  0  0  0  0  0  0  0  0  0  0  0
   -1.9456   -2.7051    2.0404 O   0  0  0  0  0  0  0  0  0  0  0  0
   -2.6926   -0.8481    1.0174 N   0  0  0  0  0  0  0  0  0  0  0  0
   -3.4926   -0.3971    0.5954 H   0  0  0  0  0  0  0  0  0  0  0  0
   -1.4216   -0.1071    1.0434 C   0  0  1  0  0  0  0  0  0  0  0  0
   -1.6294    0.9219    1.3413 H   0  0  0  0  0  0  0  0  0  0  0  0
   -0.5018   -0.7530    2.0989 C   0  0  0  0  0  0  0  0  0  0  0  0
   -0.4232   -1.8210    1.8859 H   0  0  0  0  0  0  0  0  0  0  0  0
    0.4962   -0.3167    2.0176 H   0  0  0  0  0  0  0  0  0  0  0  0
   -1.0101   -0.5843    3.5382 C   0  0  0  0  0  0  0  0  0  0  0  0
   -1.0867    0.4766    3.7804 H   0  0  0  0  0  0  0  0  0  0  0  0
   -1.9934   -1.0468    3.6300 H   0  0  0  0  0  0  0  0  0  0  0  0
   -0.0373   -1.2547    4.5179 C   0  0  0  0  0  0  0  0  0  0  0  0
    0.0537   -2.3102    4.2514 H   0  0  0  0  0  0  0  0  0  0  0  0
    0.9413   -0.7797    4.4158 H   0  0  0  0  0  0  0  0  0  0  0  0
   -0.4997   -1.1375    5.9162 N   0  3  0  0  0  0  0  0  0  0  0  0
   -1.3424   -0.6109    6.0706 H   0  0  0  0  0  0  0  0  0  0  0  0
    0.0883   -1.6585    6.9800 C   0  0  0  0  0  0  0  0  0  0  0  0
    1.1847   -2.3584    6.8930 N   0  0  0  0  0  0  0  0  0  0  0  0
    1.5934   -2.5065    5.9873 H   0  0  0  0  0  0  0  0  0  0  0  0
    1.6183   -2.7464    7.7104 H   0  0  0  0  0  0  0  0  0  0  0  0
   -0.4196   -1.4833    8.1668 N   0  0  0  0  0  0  0  0  0  0  0  0
   -1.2645   -0.9509    8.2844 H   0  0  0  0  0  0  0  0  0  0  0  0
    0.0296   -1.8804    8.9713 H   0  0  0  0  0  0  0  0  0  0  0  0
   -0.7782   -0.0981   -0.3448 C   0  0  0  0  0  0  0  0  0  0  0  0
   -1.4738    0.1052   -1.3327 O   0  0  0  0  0  0  0  0  0  0  0  0
    0.5319   -0.3546   -0.4113 N   0  0  0  0  0  0  0  0  0  0  0  0
    1.0333   -0.4735    0.4538 H   0  0  0  0  0  0  0  0  0  0  0  0
    1.2986   -0.3823   -1.6580 C   0  0  0  0  0  0  0  0  0  0  0  0
    1.2966    0.6096   -2.1148 H   0  0  0  0  0  0  0  0  0  0  0  0
    2.3292   -0.6822   -1.4638 H   0  0  0  0  0  0  0  0  0  0  0  0
    0.8454   -1.0859   -2.3597 H   0  0  0  0  0  0  0  0  0  0  0  0
  5  6  2  0  0  0  0
  5  7  1  0  0  0  0
  2  3  1  0  0  0  0
  2  4  1  0  0  0  0
  2  5  1  0  0  0  0
  1  2  1  0  0  0  0
 29 30  2  0  0  0  0
 29 31  1  0  0  0  0
 26 27  1  0  0  0  0
 26 28  1  0  0  0  0
 23 24  1  0  0  0  0
 23 25  1  0  0  0  0
 22 23  1  0  0  0  0
 22 26  1  0  0  0  0
 20 21  1  0  0  0  0
 20 22  2  0  0  0  0
 17 18  1  0  0  0  0
 17 19  1  0  0  0  0
 17 20  1  0  0  0  0
 14 15  1  0  0  0  0
 14 16  1  0  0  0  0
 14 17  1  0  0  0  0
 11 12  1  0  0  0  0
 11 13  1  0  0  0  0
 11 14  1  0  0  0  0
  9 10  1  0  0  0  0
  9 11  1  0  0  0  0
  9 29  1  0  0  0  0
  7  8  1  0  0  0  0
  7  9  1  0  0  0  0
 33 34  1  0  0  0  0
 33 35  1  0  0  0  0
 33 36  1  0  0  0  0
 31 32  1  0  0  0  0
 31 33  1  0  0  0  0
M  CHG  1  20   1
M  END
$$$$
default_name
  -OEChem-01062215323D

 36 35  0     1  0  0  0  0  0999 V2000
   -4.2256   -3.6731    1.8584 H   0  0  0  0  0  0  0  0  0  0  0  0
   -4.2396   -2.6781    1.4144 C   0  0  0  0  0  0  0  0  0  0  0  0
   -4.9506   -2.0521    1.9514 H   0  0  0  0  0  0  0  0  0  0  0  0
   -4.5266   -2.7521    0.3674 H   0  0  0  0  0  0  0  0  0  0  0  0
   -2.8576   -2.0761    1.5184 C   0  0  0  0  0  0  0  0  0  0  0  0
   -1.9456   -2.7051    2.0404 O   0  0  0  0  0  0  0  0  0  0  0  0
   -2.6926   -0.8481    1.0174 N   0  0  0  0  0  0  0  0  0  0  0  0
   -3.4926   -0.3971    0.5954 H   0  0  0  0  0  0  0  0  0  0  0  0
   -1.4216   -0.1071    1.0434 C   0  0  1  0  0  0  0  0  0  0  0  0
   -1.6294    0.9219    1.3413 H   0  0  0  0  0  0  0  0  0  0  0  0
   -0.5018   -0.7530    2.0989 C   0  0  0  0  0  0  0  0  0  0  0  0
   -0.4232   -1.8210    1.8859 H   0  0  0  0  0  0  0  0  0  0  0  0
    0.4962   -0.3167    2.0176 H   0  0  0  0  0  0  0  0  0  0  0  0
   -1.0101   -0.5843    3.5382 C   0  0  0  0  0  0  0  0  0  0  0  0
   -1.0867    0.4766    3.7804 H   0  0  0  0  0  0  0  0  0  0  0  0
   -1.9934   -1.0468    3.6300 H   0  0  0  0  0  0  0  0  0  0  0  0
   -0.0373   -1.2547    4.5179 C   0  0  0  0  0  0  0  0  0  0  0  0
    0.0537   -2.3102    4.2514 H   0  0  0  0  0  0  0  0  0  0  0  0
    0.9413   -0.7797    4.4158 H   0  0  0  0  0  0  0  0  0  0  0  0
   -0.4997   -1.1375    5.9162 N   0  3  0  0  0  0  0  0  0  0  0  0
   -1.3424   -0.6109    6.0706 H   0  0  0  0  0  0  0  0  0  0  0  0
    0.0883   -1.6585    6.9800 C   0  0  0  0  0  0  0  0  0  0  0  0
    1.1847   -2.3584    6.8930 N   0  0  0  0  0  0  0  0  0  0  0  0
    1.5934   -2.5065    5.9873 H   0  0  0  0  0  0  0  0  0  0  0  0
    1.6183   -2.7464    7.7104 H   0  0  0  0  0  0  0  0  0  0  0  0
   -0.4196   -1.4833    8.1668 N   0  0  0  0  0  0  0  0  0  0  0  0
   -1.2645   -0.9509    8.2844 H   0  0  0  0  0  0  0  0  0  0  0  0
    0.0296   -1.8804    8.9713 H   0  0  0  0  0  0  0  0  0  0  0  0
   -0.7782   -0.0981   -0.3448 C   0  0  0  0  0  0  0  0  0  0  0  0
   -1.3952    0.3692   -1.2945 O   0  0  0  0  0  0  0  0  0  0  0  0
    0.4357   -0.6462   -0.4578 N   0  0  0  0  0  0  0  0  0  0  0  0
    0.8851   -0.9730    0.3819 H   0  0  0  0  0  0  0  0  0  0  0  0
    1.1887   -0.7170   -1.7111 C   0  0  0  0  0  0  0  0  0  0  0  0
    1.4250    0.2914   -2.0574 H   0  0  0  0  0  0  0  0  0  0  0  0
    2.1177   -1.2698   -1.5656 H   0  0  0  0  0  0  0  0  0  0  0  0
    0.5910   -1.2137   -2.4784 H   0  0  0  0  0  0  0  0  0  0  0  0
  5  6  2  0  0  0  0
  5  7  1  0  0  0  0
  2  3  1  0  0  0  0
  2  4  1  0  0  0  0
  2  5  1  0  0  0  0
  1  2  1  0  0  0  0
 29 30  2  0  0  0  0
 29 31  1  0  0  0  0
 26 27  1  0  0  0  0
 26 28  1  0  0  0  0
 23 24  1  0  0  0  0
 23 25  1  0  0  0  0
 22 23  1  0  0  0  0
 22 26  1  0  0  0  0
 20 21  1  0  0  0  0
 20 22  2  0  0  0  0
 17 18  1  0  0  0  0
 17 19  1  0  0  0  0
 17 20  1  0  0  0  0
 14 15  1  0  0  0  0
 14 16  1  0  0  0  0
 14 17  1  0  0  0  0
 11 12  1  0  0  0  0
 11 13  1  0  0  0  0
 11 14  1  0  0  0  0
  9 10  1  0  0  0  0
  9 11  1  0  0  0  0
  9 29  1  0  0  0  0
  7  8  1  0  0  0  0
  7  9  1  0  0  0  0
 33 34  1  0  0  0  0
 33 35  1  0  0  0  0
 33 36  1  0  0  0  0
 31 32  1  0  0  0  0
 31 33  1  0  0  0  0
M  CHG  1  20   1
M  END
$$$$
default_name
  -OEChem-01062215323D

 36 35  0     1  0  0  0  0  0999 V2000
   -4.2256   -3.6731    1.8584 H   0  0  0  0  0  0  0  0  0  0  0  0
   -4.2396   -2.6781    1.4144 C   0  0  0  0  0  0  0  0  0  0  0  0
   -4.9506   -2.0521    1.9514 H   0  0  0  0  0  0  0  0  0  0  0  0
   -4.5266   -2.7521    0.3674 H   0  0  0  0  0  0  0  0  0  0  0  0
   -2.8576   -2.0761    1.5184 C   0  0  0  0  0  0  0  0  0  0  0  0
   -1.9456   -2.7051    2.0404 O   0  0  0  0  0  0  0  0  0  0  0  0
   -2.6926   -0.8481    1.0174 N   0  0  0  0  0  0  0  0  0  0  0  0
   -3.4926   -0.3971    0.5954 H   0  0  0  0  0  0  0  0  0  0  0  0
   -1.4216   -0.1071    1.0434 C   0  0  1  0  0  0  0  0  0  0  0  0
   -1.6294    0.9219    1.3413 H   0  0  0  0  0  0  0  0  0  0  0  0
   -0.5018   -0.7530    2.0989 C   0  0  0  0  0  0  0  0  0  0  0  0
   -0.4232   -1.8210    1.8859 H   0  0  0  0  0  0  0  0  0  0  0  0
    0.4962   -0.3167    2.0176 H   0  0  0  0  0  0  0  0  0  0  0  0
   -1.0101   -0.5843    3.5382 C   0  0  0  0  0  0  0  0  0  0  0  0
   -1.0867    0.4766    3.7804 H   0  0  0  0  0  0  0  0  0  0  0  0
   -1.9934   -1.0468    3.6300 H   0  0  0  0  0  0  0  0  0  0  0  0
   -0.0373   -1.2547    4.5179 C   0  0  0  0  0  0  0  0  0  0  0  0
    0.0537   -2.3102    4.2514 H   0  0  0  0  0  0  0  0  0  0  0  0
    0.9413   -0.7797    4.4158 H   0  0  0  0  0  0  0  0  0  0  0  0
   -0.4997   -1.1375    5.9162 N   0  3  0  0  0  0  0  0  0  0  0  0
   -1.3424   -0.6109    6.0706 H   0  0  0  0  0  0  0  0  0  0  0  0
    0.0883   -1.6585    6.9800 C   0  0  0  0  0  0  0  0  0  0  0  0
    1.1847   -2.3584    6.8930 N   0  0  0  0  0  0  0  0  0  0  0  0
    1.5934   -2.5065    5.9873 H   0  0  0  0  0  0  0  0  0  0  0  0
    1.6183   -2.7464    7.7104 H   0  0  0  0  0  0  0  0  0  0  0  0
   -0.4196   -1.4833    8.1668 N   0  0  0  0  0  0  0  0  0  0  0  0
   -1.2645   -0.9509    8.2844 H   0  0  0  0  0  0  0  0  0  0  0  0
    0.0296   -1.8804    8.9713 H   0  0  0  0  0  0  0  0  0  0  0  0
   -0.7782   -0.0981   -0.3448 C   0  0  0  0  0  0  0  0  0  0  0  0
   -1.2572    0.6016   -1.2291 O   0  0  0  0  0  0  0  0  0  0  0  0
    0.2742   -0.9001   -0.5343 N   0  0  0  0  0  0  0  0  0  0  0  0
    0.6246   -1.4128    0.2584 H   0  0  0  0  0  0  0  0  0  0  0  0
    1.0038   -1.0087   -1.7986 C   0  0  0  0  0  0  0  0  0  0  0  0
    1.4744   -0.0524   -2.0368 H   0  0  0  0  0  0  0  0  0  0  0  0
    1.7752   -1.7766   -1.7276 H   0  0  0  0  0  0  0  0  0  0  0  0
    0.3150   -1.2646   -2.6067 H   0  0  0  0  0  0  0  0  0  0  0  0
  5  6  2  0  0  0  0
  5  7  1  0  0  0  0
  2  3  1  0  0  0  0
  2  4  1  0  0  0  0
  2  5  1  0  0  0  0
  1  2  1  0  0  0  0
 29 30  2  0  0  0  0
 29 31  1  0  0  0  0
 26 27  1  0  0  0  0
 26 28  1  0  0  0  0
 23 24  1  0  0  0  0
 23 25  1  0  0  0  0
 22 23  1  0  0  0  0
 22 26  1  0  0  0  0
 20 21  1  0  0  0  0
 20 22  2  0  0  0  0
 17 18  1  0  0  0  0
 17 19  1  0  0  0  0
 17 20  1  0  0  0  0
 14 15  1  0  0  0  0
 14 16  1  0  0  0  0
 14 17  1  0  0  0  0
 11 12  1  0  0  0  0
 11 13  1  0  0  0  0
 11 14  1  0  0  0  0
  9 10  1  0  0  0  0
  9 11  1  0  0  0  0
  9 29  1  0  0  0  0
  7  8  1  0  0  0  0
  7  9  1  0  0  0  0
 33 34  1  0  0  0  0
 33 35  1  0  0  0  0
 33 36  1  0  0  0  0
 31 32  1  0  0  0  0
 31 33  1  0  0  0  0
M  CHG  1  20   1
M  END
$$$$
default_name
  -OEChem-01062215323D

 36 35  0     1  0  0  0  0  0999 V2000
   -4.2256   -3.6731    1.8584 H   0  0  0  0  0  0  0  0  0  0  0  0
   -4.2396   -2.6781    1.4144 C   0  0  0  0  0  0  0  0  0  0  0  0
   -4.9506   -2.0521    1.9514 H   0  0  0  0  0  0  0  0  0  0  0  0
   -4.5266   -2.7521    0.3674 H   0  0  0  0  0  0  0  0  0  0  0  0
   -2.8576   -2.0761    1.5184 C   0  0  0  0  0  0  0  0  0  0  0  0
   -1.9456   -2.7051    2.0404 O   0  0  0  0  0  0  0  0  0  0  0  0
   -2.6926   -0.8481    1.0174 N   0  0  0  0  0  0  0  0  0  0  0  0
   -3.4926   -0.3971    0.5954 H   0  0  0  0  0  0  0  0  0  0  0  0
   -1.4216   -0.1071    1.0434 C   0  0  1  0  0  0  0  0  0  0  0  0
   -1.6294    0.9219    1.3413 H   0  0  0  0  0  0  0  0  0  0  0  0
   -0.5018   -0.7530    2.0989 C   0  0  0  0  0  0  0  0  0  0  0  0
   -0.4232   -1.8210    1.8859 H   0  0  0  0  0  0  0  0  0  0  0  0
    0.4962   -0.3167    2.0176 H   0  0  0  0  0  0  0  0  0  0  0  0
   -1.0101   -0.5843    3.5382 C   0  0  0  0  0  0  0  0  0  0  0  0
   -1.0867    0.4766    3.7804 H   0  0  0  0  0  0  0  0  0  0  0  0
   -1.9934   -1.0468    3.6300 H   0  0  0  0  0  0  0  0  0  0  0  0
   -0.0373   -1.2547    4.5179 C   0  0  0  0  0  0  0  0  0  0  0  0
    0.0537   -2.3102    4.2514 H   0  0  0  0  0  0  0  0  0  0  0  0
    0.9413   -0.7797    4.4158 H   0  0  0  0  0  0  0  0  0  0  0  0
   -0.4997   -1.1375    5.9162 N   0  3  0  0  0  0  0  0  0  0  0  0
   -1.3424   -0.6109    6.0706 H   0  0  0  0  0  0  0  0  0  0  0  0
    0.0883   -1.6585    6.9800 C   0  0  0  0  0  0  0  0  0  0  0  0
    1.1847   -2.3584    6.8930 N   0  0  0  0  0  0  0  0  0  0  0  0
    1.5934   -2.5065    5.9873 H   0  0  0  0  0  0  0  0  0  0  0  0
    1.6183   -2.7464    7.7104 H   0  0  0  0  0  0  0  0  0  0  0  0
   -0.4196   -1.4833    8.1668 N   0  0  0  0  0  0  0  0  0  0  0  0
   -1.2645   -0.9509    8.2844 H   0  0  0  0  0  0  0  0  0  0  0  0
    0.0296   -1.8804    8.9713 H   0  0  0  0  0  0  0  0  0  0  0  0
   -0.7782   -0.0981   -0.3448 C   0  0  0  0  0  0  0  0  0  0  0  0
   -1.0692    0.7866   -1.1408 O   0  0  0  0  0  0  0  0  0  0  0  0
    0.0585   -1.0992   -0.6355 N   0  0  0  0  0  0  0  0  0  0  0  0
    0.2695   -1.7631    0.0915 H   0  0  0  0  0  0  0  0  0  0  0  0
    0.7566   -1.2375   -1.9147 C   0  0  0  0  0  0  0  0  0  0  0  0
    1.4414   -0.3983   -2.0543 H   0  0  0  0  0  0  0  0  0  0  0  0
    1.3252   -2.1681   -1.9387 H   0  0  0  0  0  0  0  0  0  0  0  0
    0.0363   -1.2349   -2.7356 H   0  0  0  0  0  0  0  0  0  0  0  0
  5  6  2  0  0  0  0
  5  7  1  0  0  0  0
  2  3  1  0  0  0  0
  2  4  1  0  0  0  0
  2  5  1  0  0  0  0
  1  2  1  0  0  0  0
 29 30  2  0  0  0  0
 29 31  1  0  0  0  0
 26 27  1  0  0  0  0
 26 28  1  0  0  0  0
 23 24  1  0  0  0  0
 23 25  1  0  0  0  0
 22 23  1  0  0  0  0
 22 26  1  0  0  0  0
 20 21  1  0  0  0  0
 20 22  2  0  0  0  0
 17 18  1  0  0  0  0
 17 19  1  0  0  0  0
 17 20  1  0  0  0  0
 14 15  1  0  0  0  0
 14 16  1  0  0  0  0
 14 17  1  0  0  0  0
 11 12  1  0  0  0  0
 11 13  1  0  0  0  0
 11 14  1  0  0  0  0
  9 10  1  0  0  0  0
  9 11  1  0  0  0  0
  9 29  1  0  0  0  0
  7  8  1  0  0  0  0
  7  9  1  0  0  0  0
 33 34  1  0  0  0  0
 33 35  1  0  0  0  0
 33 36  1  0  0  0  0
 31 32  1  0  0  0  0
 31 33  1  0  0  0  0
M  CHG  1  20   1
M  END
$$$$
default_name
  -OEChem-01062215323D

 36 35  0     1  0  0  0  0  0999 V2000
   -4.2256   -3.6731    1.8584 H   0  0  0  0  0  0  0  0  0  0  0  0
   -4.2396   -2.6781    1.4144 C   0  0  0  0  0  0  0  0  0  0  0  0
   -4.9506   -2.0521    1.9514 H   0  0  0  0  0  0  0  0  0  0  0  0
   -4.5266   -2.7521    0.3674 H   0  0  0  0  0  0  0  0  0  0  0  0
   -2.8576   -2.0761    1.5184 C   0  0  0  0  0  0  0  0  0  0  0  0
   -1.9456   -2.7051    2.0404 O   0  0  0  0  0  0  0  0  0  0  0  0
   -2.6926   -0.8481    1.0174 N   0  0  0  0  0  0  0  0  0  0  0  0
   -3.4926   -0.3971    0.5954 H   0  0  0  0  0  0  0  0  0  0  0  0
   -1.4216   -0.1071    1.0434 C   0  0  1  0  0  0  0  0  0  0  0  0
   -1.6294    0.9219    1.3413 H   0  0  0  0  0  0  0  0  0  0  0  0
   -0.5018   -0.7530    2.0989 C   0  0  0  0  0  0  0  0  0  0  0  0
   -0.4232   -1.8210    1.8859 H   0  0  0  0  0  0  0  0  0  0  0  0
    0.4962   -0.3167    2.0176 H   0  0  0  0  0  0  0  0  0  0  0  0
   -1.0101   -0.5843    3.5382 C   0  0  0  0  0  0  0  0  0  0  0  0
   -1.0867    0.4766    3.7804 H   0  0  0  0  0  0  0  0  0  0  0  0
   -1.9934   -1.0468    3.6300 H   0  0  0  0  0  0  0  0  0  0  0  0
   -0.0373   -1.2547    4.5179 C   0  0  0  0  0  0  0  0  0  0  0  0
    0.0537   -2.3102    4.2514 H   0  0  0  0  0  0  0  0  0  0  0  0
    0.9413   -0.7797    4.4158 H   0  0  0  0  0  0  0  0  0  0  0  0
   -0.4997   -1.1375    5.9162 N   0  3  0  0  0  0  0  0  0  0  0  0
   -1.3424   -0.6109    6.0706 H   0  0  0  0  0  0  0  0  0  0  0  0
    0.0883   -1.6585    6.9800 C   0  0  0  0  0  0  0  0  0  0  0  0
    1.1847   -2.3584    6.8930 N   0  0  0  0  0  0  0  0  0  0  0  0
    1.5934   -2.5065    5.9873 H   0  0  0  0  0  0  0  0  0  0  0  0
    1.6183   -2.7464    7.7104 H   0  0  0  0  0  0  0  0  0  0  0  0
   -0.4196   -1.4833    8.1668 N   0  0  0  0  0  0  0  0  0  0  0  0
   -1.2645   -0.9509    8.2844 H   0  0  0  0  0  0  0  0  0  0  0  0
    0.0296   -1.8804    8.9713 H   0  0  0  0  0  0  0  0  0  0  0  0
   -0.7782   -0.0981   -0.3448 C   0  0  0  0  0  0  0  0  0  0  0  0
   -0.8441    0.9115   -1.0356 O   0  0  0  0  0  0  0  0  0  0  0  0
   -0.1968   -1.2298   -0.7547 N   0  0  0  0  0  0  0  0  0  0  0  0
   -0.1560   -1.9999   -0.1072 H   0  0  0  0  0  0  0  0  0  0  0  0
    0.4640   -1.3879   -2.0513 C   0  0  0  0  0  0  0  0  0  0  0  0
    1.3282   -0.7227   -2.1088 H   0  0  0  0  0  0  0  0  0  0  0  0
    0.7982   -2.4176   -2.1845 H   0  0  0  0  0  0  0  0  0  0  0  0
   -0.2262   -1.1267   -2.8565 H   0  0  0  0  0  0  0  0  0  0  0  0
  5  6  2  0  0  0  0
  5  7  1  0  0  0  0
  2  3  1  0  0  0  0
  2  4  1  0  0  0  0
  2  5  1  0  0  0  0
  1  2  1  0  0  0  0
 29 30  2  0  0  0  0
 29 31  1  0  0  0  0
 26 27  1  0  0  0  0
 26 28  1  0  0  0  0
 23 24  1  0  0  0  0
 23 25  1  0  0  0  0
 22 23  1  0  0  0  0
 22 26  1  0  0  0  0
 20 21  1  0  0  0  0
 20 22  2  0  0  0  0
 17 18  1  0  0  0  0
 17 19  1  0  0  0  0
 17 20  1  0  0  0  0
 14 15  1  0  0  0  0
 14 16  1  0  0  0  0
 14 17  1  0  0  0  0
 11 12  1  0  0  0  0
 11 13  1  0  0  0  0
 11 14  1  0  0  0  0
  9 10  1  0  0  0  0
  9 11  1  0  0  0  0
  9 29  1  0  0  0  0
  7  8  1  0  0  0  0
  7  9  1  0  0  0  0
 33 34  1  0  0  0  0
 33 35  1  0  0  0  0
 33 36  1  0  0  0  0
 31 32  1  0  0  0  0
 31 33  1  0  0  0  0
M  CHG  1  20   1
M  END
$$$$
default_name
  -OEChem-01062215323D

 36 35  0     1  0  0  0  0  0999 V2000
   -4.2256   -3.6731    1.8584 H   0  0  0  0  0  0  0  0  0  0  0  0
   -4.2396   -2.6781    1.4144 C   0  0  0  0  0  0  0  0  0  0  0  0
   -4.9506   -2.0521    1.9514 H   0  0  0  0  0  0  0  0  0  0  0  0
   -4.5266   -2.7521    0.3674 H   0  0  0  0  0  0  0  0  0  0  0  0
   -2.8576   -2.0761    1.5184 C   0  0  0  0  0  0  0  0  0  0  0  0
   -1.9456   -2.7051    2.0404 O   0  0  0  0  0  0  0  0  0  0  0  0
   -2.6926   -0.8481    1.0174 N   0  0  0  0  0  0  0  0  0  0  0  0
   -3.4926   -0.3971    0.5954 H   0  0  0  0  0  0  0  0  0  0  0  0
   -1.4216   -0.1071    1.0434 C   0  0  1  0  0  0  0  0  0  0  0  0
   -1.6294    0.9219    1.3413 H   0  0  0  0  0  0  0  0  0  0  0  0
   -0.5018   -0.7530    2.0989 C   0  0  0  0  0  0  0  0  0  0  0  0
   -0.4232   -1.8210    1.8859 H   0  0  0  0  0  0  0  0  0  0  0  0
    0.4962   -0.3167    2.0176 H   0  0  0  0  0  0  0  0  0  0  0  0
   -1.0101   -0.5843    3.5382 C   0  0  0  0  0  0  0  0  0  0  0  0
   -1.0867    0.4766    3.7804 H   0  0  0  0  0  0  0  0  0  0  0  0
   -1.9934   -1.0468    3.6300 H   0  0  0  0  0  0  0  0  0  0  0  0
   -0.0373   -1.2547    4.5179 C   0  0  0  0  0  0  0  0  0  0  0  0
    0.0537   -2.3102    4.2514 H   0  0  0  0  0  0  0  0  0  0  0  0
    0.9413   -0.7797    4.4158 H   0  0  0  0  0  0  0  0  0  0  0  0
   -0.4997   -1.1375    5.9162 N   0  3  0  0  0  0  0  0  0  0  0  0
   -1.3424   -0.6109    6.0706 H   0  0  0  0  0  0  0  0  0  0  0  0
    0.0883   -1.6585    6.9800 C   0  0  0  0  0  0  0  0  0  0  0  0
    1.1847   -2.3584    6.8930 N   0  0  0  0  0  0  0  0  0  0  0  0
    1.5934   -2.5065    5.9873 H   0  0  0  0  0  0  0  0  0  0  0  0
    1.6183   -2.7464    7.7104 H   0  0  0  0  0  0  0  0  0  0  0  0
   -0.4196   -1.4833    8.1668 N   0  0  0  0  0  0  0  0  0  0  0  0
   -1.2645   -0.9509    8.2844 H   0  0  0  0  0  0  0  0  0  0  0  0
    0.0296   -1.8804    8.9713 H   0  0  0  0  0  0  0  0  0  0  0  0
   -0.7782   -0.0981   -0.3448 C   0  0  0  0  0  0  0  0  0  0  0  0
   -0.5971    0.9679   -0.9208 O   0  0  0  0  0  0  0  0  0  0  0  0
   -0.4743   -1.2831   -0.8836 N   0  0  0  0  0  0  0  0  0  0  0  0
   -0.6229   -2.1070   -0.3243 H   0  0  0  0  0  0  0  0  0  0  0  0
    0.1457   -1.4495   -2.1992 C   0  0  0  0  0  0  0  0  0  0  0  0
    1.1427   -1.0036   -2.1967 H   0  0  0  0  0  0  0  0  0  0  0  0
    0.2303   -2.5081   -2.4483 H   0  0  0  0  0  0  0  0  0  0  0  0
   -0.4544   -0.9475   -2.9612 H   0  0  0  0  0  0  0  0  0  0  0  0
  5  6  2  0  0  0  0
  5  7  1  0  0  0  0
  2  3  1  0  0  0  0
  2  4  1  0  0  0  0
  2  5  1  0  0  0  0
  1  2  1  0  0  0  0
 29 30  2  0  0  0  0
 29 31  1  0  0  0  0
 26 27  1  0  0  0  0
 26 28  1  0  0  0  0
 23 24  1  0  0  0  0
 23 25  1  0  0  0  0
 22 23  1  0  0  0  0
 22 26  1  0  0  0  0
 20 21  1  0  0  0  0
 20 22  2  0  0  0  0
 17 18  1  0  0  0  0
 17 19  1  0  0  0  0
 17 20  1  0  0  0  0
 14 15  1  0  0  0  0
 14 16  1  0  0  0  0
 14 17  1  0  0  0  0
 11 12  1  0  0  0  0
 11 13  1  0  0  0  0
 11 14  1  0  0  0  0
  9 10  1  0  0  0  0
  9 11  1  0  0  0  0
  9 29  1  0  0  0  0
  7  8  1  0  0  0  0
  7  9  1  0  0  0  0
 33 34  1  0  0  0  0
 33 35  1  0  0  0  0
 33 36  1  0  0  0  0
 31 32  1  0  0  0  0
 31 33  1  0  0  0  0
M  CHG  1  20   1
M  END
$$$$
default_name
  -OEChem-01062215323D

 36 35  0     1  0  0  0  0  0999 V2000
   -4.2256   -3.6731    1.8584 H   0  0  0  0  0  0  0  0  0  0  0  0
   -4.2396   -2.6781    1.4144 C   0  0  0  0  0  0  0  0  0  0  0  0
   -4.9506   -2.0521    1.9514 H   0  0  0  0  0  0  0  0  0  0  0  0
   -4.5266   -2.7521    0.3674 H   0  0  0  0  0  0  0  0  0  0  0  0
   -2.8576   -2.0761    1.5184 C   0  0  0  0  0  0  0  0  0  0  0  0
   -1.9456   -2.7051    2.0404 O   0  0  0  0  0  0  0  0  0  0  0  0
   -2.6926   -0.8481    1.0174 N   0  0  0  0  0  0  0  0  0  0  0  0
   -3.4926   -0.3971    0.5954 H   0  0  0  0  0  0  0  0  0  0  0  0
   -1.4216   -0.1071    1.0434 C   0  0  1  0  0  0  0  0  0  0  0  0
   -1.6294    0.9219    1.3413 H   0  0  0  0  0  0  0  0  0  0  0  0
   -0.5018   -0.7530    2.0989 C   0  0  0  0  0  0  0  0  0  0  0  0
   -0.4232   -1.8210    1.8859 H   0  0  0  0  0  0  0  0  0  0  0  0
    0.4962   -0.3167    2.0176 H   0  0  0  0  0  0  0  0  0  0  0  0
   -1.0101   -0.5843    3.5382 C   0  0  0  0  0  0  0  0  0  0  0  0
   -1.0867    0.4766    3.7804 H   0  0  0  0  0  0  0  0  0  0  0  0
   -1.9934   -1.0468    3.6300 H   0  0  0  0  0  0  0  0  0  0  0  0
   -0.0373   -1.2547    4.5179 C   0  0  0  0  0  0  0  0  0  0  0  0
    0.0537   -2.3102    4.2514 H   0  0  0  0  0  0  0  0  0  0  0  0
    0.9413   -0.7797    4.4158 H   0  0  0  0  0  0  0  0  0  0  0  0
   -0.4997   -1.1375    5.9162 N   0  3  0  0  0  0  0  0  0  0  0  0
   -1.3424   -0.6109    6.0706 H   0  0  0  0  0  0  0  0  0  0  0  0
    0.0883   -1.6585    6.9800 C   0  0  0  0  0  0  0  0  0  0  0  0
    1.1847   -2.3584    6.8930 N   0  0  0  0  0  0  0  0  0  0  0  0
    1.5934   -2.5065    5.9873 H   0  0  0  0  0  0  0  0  0  0  0  0
    1.6183   -2.7464    7.7104 H   0  0  0  0  0  0  0  0  0  0  0  0
   -0.4196   -1.4833    8.1668 N   0  0  0  0  0  0  0  0  0  0  0  0
   -1.2645   -0.9509    8.2844 H   0  0  0  0  0  0  0  0  0  0  0  0
    0.0296   -1.8804    8.9713 H   0  0  0  0  0  0  0  0  0  0  0  0
   -0.7782   -0.0981   -0.3448 C   0  0  0  0  0  0  0  0  0  0  0  0
   -0.3452    0.9518   -0.8042 O   0  0  0  0  0  0  0  0  0  0  0  0
   -0.7550   -1.2553   -1.0135 N   0  0  0  0  0  0  0  0  0  0  0  0
   -1.0994   -2.0773   -0.5449 H   0  0  0  0  0  0  0  0  0  0  0  0
   -0.1764   -1.4182   -2.3482 C   0  0  0  0  0  0  0  0  0  0  0  0
    0.8973   -1.2218   -2.3118 H   0  0  0  0  0  0  0  0  0  0  0  0
   -0.3400   -2.4334   -2.7120 H   0  0  0  0  0  0  0  0  0  0  0  0
   -0.6330   -0.7094   -3.0424 H   0  0  0  0  0  0  0  0  0  0  0  0
  5  6  2  0  0  0  0
  5  7  1  0  0  0  0
  2  3  1  0  0  0  0
  2  4  1  0  0  0  0
  2  5  1  0  0  0  0
  1  2  1  0  0  0  0
 29 30  2  0  0  0  0
 29 31  1  0  0  0  0
 26 27  1  0  0  0  0
 26 28  1  0  0  0  0
 23 24  1  0  0  0  0
 23 25  1  0  0  0  0
 22 23  1  0  0  0  0
 22 26  1  0  0  0  0
 20 21  1  0  0  0  0
 20 22  2  0  0  0  0
 17 18  1  0  0  0  0
 17 19  1  0  0  0  0
 17 20  1  0  0  0  0
 14 15  1  0  0  0  0
 14 16  1  0  0  0  0
 14 17  1  0  0  0  0
 11 12  1  0  0  0  0
 11 13  1  0  0  0  0
 11 14  1  0  0  0  0
  9 10  1  0  0  0  0
  9 11  1  0  0  0  0
  9 29  1  0  0  0  0
  7  8  1  0  0  0  0
  7  9  1  0  0  0  0
 33 34  1  0  0  0  0
 33 35  1  0  0  0  0
 33 36  1  0  0  0  0
 31 32  1  0  0  0  0
 31 33  1  0  0  0  0
M  CHG  1  20   1
M  END
$$$$
default_name
  -OEChem-01062215323D

 36 35  0     1  0  0  0  0  0999 V2000
   -4.2256   -3.6731    1.8584 H   0  0  0  0  0  0  0  0  0  0  0  0
   -4.2396   -2.6781    1.4144 C   0  0  0  0  0  0  0  0  0  0  0  0
   -4.9506   -2.0521    1.9514 H   0  0  0  0  0  0  0  0  0  0  0  0
   -4.5266   -2.7521    0.3674 H   0  0  0  0  0  0  0  0  0  0  0  0
   -2.8576   -2.0761    1.5184 C   0  0  0  0  0  0  0  0  0  0  0  0
   -1.9456   -2.7051    2.0404 O   0  0  0  0  0  0  0  0  0  0  0  0
   -2.6926   -0.8481    1.0174 N   0  0  0  0  0  0  0  0  0  0  0  0
   -3.4926   -0.3971    0.5954 H   0  0  0  0  0  0  0  0  0  0  0  0
   -1.4216   -0.1071    1.0434 C   0  0  1  0  0  0  0  0  0  0  0  0
   -1.6294    0.9219    1.3413 H   0  0  0  0  0  0  0  0  0  0  0  0
   -0.5018   -0.7530    2.0989 C   0  0  0  0  0  0  0  0  0  0  0  0
   -0.4232   -1.8210    1.8859 H   0  0  0  0  0  0  0  0  0  0  0  0
    0.4962   -0.3167    2.0176 H   0  0  0  0  0  0  0  0  0  0  0  0
   -1.0101   -0.5843    3.5382 C   0  0  0  0  0  0  0  0  0  0  0  0
   -1.0867    0.4766    3.7804 H   0  0  0  0  0  0  0  0  0  0  0  0
   -1.9934   -1.0468    3.6300 H   0  0  0  0  0  0  0  0  0  0  0  0
   -0.0373   -1.2547    4.5179 C   0  0  0  0  0  0  0  0  0  0  0  0
    0.0537   -2.3102    4.2514 H   0  0  0  0  0  0  0  0  0  0  0  0
    0.9413   -0.7797    4.4158 H   0  0  0  0  0  0  0  0  0  0  0  0
   -0.4997   -1.1375    5.9162 N   0  3  0  0  0  0  0  0  0  0  0  0
   -1.3424   -0.6109    6.0706 H   0  0  0  0  0  0  0  0  0  0  0  0
    0.0883   -1.6585    6.9800 C   0  0  0  0  0  0  0  0  0  0  0  0
    1.1847   -2.3584    6.8930 N   0  0  0  0  0  0  0  0  0  0  0  0
    1.5934   -2.5065    5.9873 H   0  0  0  0  0  0  0  0  0  0  0  0
    1.6183   -2.7464    7.7104 H   0  0  0  0  0  0  0  0  0  0  0  0
   -0.4196   -1.4833    8.1668 N   0  0  0  0  0  0  0  0  0  0  0  0
   -1.2645   -0.9509    8.2844 H   0  0  0  0  0  0  0  0  0  0  0  0
    0.0296   -1.8804    8.9713 H   0  0  0  0  0  0  0  0  0  0  0  0
   -0.7782   -0.0981   -0.3448 C   0  0  0  0  0  0  0  0  0  0  0  0
   -0.1054    0.8645   -0.6936 O   0  0  0  0  0  0  0  0  0  0  0  0
   -1.0198   -1.1484   -1.1355 N   0  0  0  0  0  0  0  0  0  0  0  0
   -1.5530   -1.9126   -0.7540 H   0  0  0  0  0  0  0  0  0  0  0  0
   -0.4803   -1.2961   -2.4883 C   0  0  0  0  0  0  0  0  0  0  0  0
    0.6089   -1.3625   -2.4463 H   0  0  0  0  0  0  0  0  0  0  0  0
   -0.8737   -2.1987   -2.9578 H   0  0  0  0  0  0  0  0  0  0  0  0
   -0.7497   -0.4286   -3.0946 H   0  0  0  0  0  0  0  0  0  0  0  0
  5  6  2  0  0  0  0
  5  7  1  0  0  0  0
  2  3  1  0  0  0  0
  2  4  1  0  0  0  0
  2  5  1  0  0  0  0
  1  2  1  0  0  0  0
 29 30  2  0  0  0  0
 29 31  1  0  0  0  0
 26 27  1  0  0  0  0
 26 28  1  0  0  0  0
 23 24  1  0  0  0  0
 23 25  1  0  0  0  0
 22 23  1  0  0  0  0
 22 26  1  0  0  0  0
 20 21  1  0  0  0  0
 20 22  2  0  0  0  0
 17 18  1  0  0  0  0
 17 19  1  0  0  0  0
 17 20  1  0  0  0  0
 14 15  1  0  0  0  0
 14 16  1  0  0  0  0
 14 17  1  0  0  0  0
 11 12  1  0  0  0  0
 11 13  1  0  0  0  0
 11 14  1  0  0  0  0
  9 10  1  0  0  0  0
  9 11  1  0  0  0  0
  9 29  1  0  0  0  0
  7  8  1  0  0  0  0
  7  9  1  0  0  0  0
 33 34  1  0  0  0  0
 33 35  1  0  0  0  0
 33 36  1  0  0  0  0
 31 32  1  0  0  0  0
 31 33  1  0  0  0  0
M  CHG  1  20   1
M  END
$$$$
default_name
  -OEChem-01062215323D

 36 35  0     1  0  0  0  0  0999 V2000
   -4.2256   -3.6731    1.8584 H   0  0  0  0  0  0  0  0  0  0  0  0
   -4.2396   -2.6781    1.4144 C   0  0  0  0  0  0  0  0  0  0  0  0
   -4.9506   -2.0521    1.9514 H   0  0  0  0  0  0  0  0  0  0  0  0
   -4.5266   -2.7521    0.3674 H   0  0  0  0  0  0  0  0  0  0  0  0
   -2.8576   -2.0761    1.5184 C   0  0  0  0  0  0  0  0  0  0  0  0
   -1.9456   -2.7051    2.0404 O   0  0  0  0  0  0  0  0  0  0  0  0
   -2.6926   -0.8481    1.0174 N   0  0  0  0  0  0  0  0  0  0  0  0
   -3.4926   -0.3971    0.5954 H   0  0  0  0  0  0  0  0  0  0  0  0
   -1.4216   -0.1071    1.0434 C   0  0  1  0  0  0  0  0  0  0  0  0
   -1.6294    0.9219    1.3413 H   0  0  0  0  0  0  0  0  0  0  0  0
   -0.5018   -0.7530    2.0989 C   0  0  0  0  0  0  0  0  0  0  0  0
   -0.4232   -1.8210    1.8859 H   0  0  0  0  0  0  0  0  0  0  0  0
    0.4962   -0.3167    2.0176 H   0  0  0  0  0  0  0  0  0  0  0  0
   -1.0101   -0.5843    3.5382 C   0  0  0  0  0  0  0  0  0  0  0  0
   -1.0867    0.4766    3.7804 H   0  0  0  0  0  0  0  0  0  0  0  0
   -1.9934   -1.0468    3.6300 H   0  0  0  0  0  0  0  0  0  0  0  0
   -0.0373   -1.2547    4.5179 C   0  0  0  0  0  0  0  0  0  0  0  0
    0.0537   -2.3102    4.2514 H   0  0  0  0  0  0  0  0  0  0  0  0
    0.9413   -0.7797    4.4158 H   0  0  0  0  0  0  0  0  0  0  0  0
   -0.4997   -1.1375    5.9162 N   0  3  0  0  0  0  0  0  0  0  0  0
   -1.3424   -0.6109    6.0706 H   0  0  0  0  0  0  0  0  0  0  0  0
    0.0883   -1.6585    6.9800 C   0  0  0  0  0  0  0  0  0  0  0  0
    1.1847   -2.3584    6.8930 N   0  0  0  0  0  0  0  0  0  0  0  0
    1.5934   -2.5065    5.9873 H   0  0  0  0  0  0  0  0  0  0  0  0
    1.6183   -2.7464    7.7104 H   0  0  0  0  0  0  0  0  0  0  0  0
   -0.4196   -1.4833    8.1668 N   0  0  0  0  0  0  0  0  0  0  0  0
   -1.2645   -0.9509    8.2844 H   0  0  0  0  0  0  0  0  0  0  0  0
    0.0296   -1.8804    8.9713 H   0  0  0  0  0  0  0  0  0  0  0  0
   -0.7782   -0.0981   -0.3448 C   0  0  0  0  0  0  0  0  0  0  0  0
    0.1059    0.7118   -0.5967 O   0  0  0  0  0  0  0  0  0  0  0  0
   -1.2506   -0.9698   -1.2413 N   0  0  0  0  0  0  0  0  0  0  0  0
   -1.9528   -1.6243   -0.9374 H   0  0  0  0  0  0  0  0  0  0  0  0
   -0.7455   -1.0916   -2.6099 C   0  0  0  0  0  0  0  0  0  0  0  0
    0.2971   -1.4159   -2.5912 H   0  0  0  0  0  0  0  0  0  0  0  0
   -1.3345   -1.8199   -3.1689 H   0  0  0  0  0  0  0  0  0  0  0  0
   -0.7966   -0.1243   -3.1144 H   0  0  0  0  0  0  0  0  0  0  0  0
  5  6  2  0  0  0  0
  5  7  1  0  0  0  0
  2  3  1  0  0  0  0
  2  4  1  0  0  0  0
  2  5  1  0  0  0  0
  1  2  1  0  0  0  0
 29 30  2  0  0  0  0
 29 31  1  0  0  0  0
 26 27  1  0  0  0  0
 26 28  1  0  0  0  0
 23 24  1  0  0  0  0
 23 25  1  0  0  0  0
 22 23  1  0  0  0  0
 22 26  1  0  0  0  0
 20 21  1  0  0  0  0
 20 22  2  0  0  0  0
 17 18  1  0  0  0  0
 17 19  1  0  0  0  0
 17 20  1  0  0  0  0
 14 15  1  0  0  0  0
 14 16  1  0  0  0  0
 14 17  1  0  0  0  0
 11 12  1  0  0  0  0
 11 13  1  0  0  0  0
 11 14  1  0  0  0  0
  9 10  1  0  0  0  0
  9 11  1  0  0  0  0
  9 29  1  0  0  0  0
  7  8  1  0  0  0  0
  7  9  1  0  0  0  0
 33 34  1  0  0  0  0
 33 35  1  0  0  0  0
 33 36  1  0  0  0  0
 31 32  1  0  0  0  0
 31 33  1  0  0  0  0
M  CHG  1  20   1
M  END
$$$$
default_name
  -OEChem-01062215323D

 36 35  0     1  0  0  0  0  0999 V2000
   -4.2256   -3.6731    1.8584 H   0  0  0  0  0  0  0  0  0  0  0  0
   -4.2396   -2.6781    1.4144 C   0  0  0  0  0  0  0  0  0  0  0  0
   -4.9506   -2.0521    1.9514 H   0  0  0  0  0  0  0  0  0  0  0  0
   -4.5266   -2.7521    0.3674 H   0  0  0  0  0  0  0  0  0  0  0  0
   -2.8576   -2.0761    1.5184 C   0  0  0  0  0  0  0  0  0  0  0  0
   -1.9456   -2.7051    2.0404 O   0  0  0  0  0  0  0  0  0  0  0  0
   -2.6926   -0.8481    1.0174 N   0  0  0  0  0  0  0  0  0  0  0  0
   -3.4926   -0.3971    0.5954 H   0  0  0  0  0  0  0  0  0  0  0  0
   -1.4216   -0.1071    1.0434 C   0  0  1  0  0  0  0  0  0  0  0  0
   -1.6294    0.9219    1.3413 H   0  0  0  0  0  0  0  0  0  0  0  0
   -0.5018   -0.7530    2.0989 C   0  0  0  0  0  0  0  0  0  0  0  0
   -0.4232   -1.8210    1.8859 H   0  0  0  0  0  0  0  0  0  0  0  0
    0.4962   -0.3167    2.0176 H   0  0  0  0  0  0  0  0  0  0  0  0
   -1.0101   -0.5843    3.5382 C   0  0  0  0  0  0  0  0  0  0  0  0
   -1.0867    0.4766    3.7804 H   0  0  0  0  0  0  0  0  0  0  0  0
   -1.9934   -1.0468    3.6300 H   0  0  0  0  0  0  0  0  0  0  0  0
   -0.0373   -1.2547    4.5179 C   0  0  0  0  0  0  0  0  0  0  0  0
    0.0537   -2.3102    4.2514 H   0  0  0  0  0  0  0  0  0  0  0  0
    0.9413   -0.7797    4.4158 H   0  0  0  0  0  0  0  0  0  0  0  0
   -0.4997   -1.1375    5.9162 N   0  3  0  0  0  0  0  0  0  0  0  0
   -1.3424   -0.6109    6.0706 H   0  0  0  0  0  0  0  0  0  0  0  0
    0.0883   -1.6585    6.9800 C   0  0  0  0  0  0  0  0  0  0  0  0
    1.1847   -2.3584    6.8930 N   0  0  0  0  0  0  0  0  0  0  0  0
    1.5934   -2.5065    5.9873 H   0  0  0  0  0  0  0  0  0  0  0  0
    1.6183   -2.7464    7.7104 H   0  0  0  0  0  0  0  0  0  0  0  0
   -0.4196   -1.4833    8.1668 N   0  0  0  0  0  0  0  0  0  0  0  0
   -1.2645   -0.9509    8.2844 H   0  0  0  0  0  0  0  0  0  0  0  0
    0.0296   -1.8804    8.9713 H   0  0  0  0  0  0  0  0  0  0  0  0
   -0.7782   -0.0981   -0.3448 C   0  0  0  0  0  0  0  0  0  0  0  0
    0.2742    0.5041   -0.5201 O   0  0  0  0  0  0  0  0  0  0  0  0
   -1.4319   -0.7314   -1.3238 N   0  0  0  0  0  0  0  0  0  0  0  0
   -2.2716   -1.2320   -1.0826 H   0  0  0  0  0  0  0  0  0  0  0  0
   -0.9538   -0.8185   -2.7046 C   0  0  0  0  0  0  0  0  0  0  0  0
   -0.0168   -1.3786   -2.7364 H   0  0  0  0  0  0  0  0  0  0  0  0
   -1.6909   -1.3228   -3.3309 H   0  0  0  0  0  0  0  0  0  0  0  0
   -0.7704    0.1828   -3.1003 H   0  0  0  0  0  0  0  0  0  0  0  0
  5  6  2  0  0  0  0
  5  7  1  0  0  0  0
  2  3  1  0  0  0  0
  2  4  1  0  0  0  0
  2  5  1  0  0  0  0
  1  2  1  0  0  0  0
 29 30  2  0  0  0  0
 29 31  1  0  0  0  0
 26 27  1  0  0  0  0
 26 28  1  0  0  0  0
 23 24  1  0  0  0  0
 23 25  1  0  0  0  0
 22 23  1  0  0  0  0
 22 26  1  0  0  0  0
 20 21  1  0  0  0  0
 20 22  2  0  0  0  0
 17 18  1  0  0  0  0
 17 19  1  0  0  0  0
 17 20  1  0  0  0  0
 14 15  1  0  0  0  0
 14 16  1  0  0  0  0
 14 17  1  0  0  0  0
 11 12  1  0  0  0  0
 11 13  1  0  0  0  0
 11 14  1  0  0  0  0
  9 10  1  0  0  0  0
  9 11  1  0  0  0  0
  9 29  1  0  0  0  0
  7  8  1  0  0  0  0
  7  9  1  0  0  0  0
 33 34  1  0  0  0  0
 33 35  1  0  0  0  0
 33 36  1  0  0  0  0
 31 32  1  0  0  0  0
 31 33  1  0  0  0  0
M  CHG  1  20   1
M  END
$$$$
default_name
  -OEChem-01062215323D

 36 35  0     1  0  0  0  0  0999 V2000
   -4.2256   -3.6731    1.8584 H   0  0  0  0  0  0  0  0  0  0  0  0
   -4.2396   -2.6781    1.4144 C   0  0  0  0  0  0  0  0  0  0  0  0
   -4.9506   -2.0521    1.9514 H   0  0  0  0  0  0  0  0  0  0  0  0
   -4.5266   -2.7521    0.3674 H   0  0  0  0  0  0  0  0  0  0  0  0
   -2.8576   -2.0761    1.5184 C   0  0  0  0  0  0  0  0  0  0  0  0
   -1.9456   -2.7051    2.0404 O   0  0  0  0  0  0  0  0  0  0  0  0
   -2.6926   -0.8481    1.0174 N   0  0  0  0  0  0  0  0  0  0  0  0
   -3.4926   -0.3971    0.5954 H   0  0  0  0  0  0  0  0  0  0  0  0
   -1.4216   -0.1071    1.0434 C   0  0  1  0  0  0  0  0  0  0  0  0
   -1.6294    0.9219    1.3413 H   0  0  0  0  0  0  0  0  0  0  0  0
   -0.5018   -0.7530    2.0989 C   0  0  0  0  0  0  0  0  0  0  0  0
   -0.4232   -1.8210    1.8859 H   0  0  0  0  0  0  0  0  0  0  0  0
    0.4962   -0.3167    2.0176 H   0  0  0  0  0  0  0  0  0  0  0  0
   -1.0101   -0.5843    3.5382 C   0  0  0  0  0  0  0  0  0  0  0  0
   -1.0867    0.4766    3.7804 H   0  0  0  0  0  0  0  0  0  0  0  0
   -1.9934   -1.0468    3.6300 H   0  0  0  0  0  0  0  0  0  0  0  0
   -0.0373   -1.2547    4.5179 C   0  0  0  0  0  0  0  0  0  0  0  0
    0.0537   -2.3102    4.2514 H   0  0  0  0  0  0  0  0  0  0  0  0
    0.9413   -0.7797    4.4158 H   0  0  0  0  0  0  0  0  0  0  0  0
   -0.4997   -1.1375    5.9162 N   0  3  0  0  0  0  0  0  0  0  0  0
   -1.3424   -0.6109    6.0706 H   0  0  0  0  0  0  0  0  0  0  0  0
    0.0883   -1.6585    6.9800 C   0  0  0  0  0  0  0  0  0  0  0  0
    1.1847   -2.3584    6.8930 N   0  0  0  0  0  0  0  0  0  0  0  0
    1.5934   -2.5065    5.9873 H   0  0  0  0  0  0  0  0  0  0  0  0
    1.6183   -2.7464    7.7104 H   0  0  0  0  0  0  0  0  0  0  0  0
   -0.4196   -1.4833    8.1668 N   0  0  0  0  0  0  0  0  0  0  0  0
   -1.2645   -0.9509    8.2844 H   0  0  0  0  0  0  0  0  0  0  0  0
    0.0296   -1.8804    8.9713 H   0  0  0  0  0  0  0  0  0  0  0  0
   -0.7782   -0.0981   -0.3448 C   0  0  0  0  0  0  0  0  0  0  0  0
    0.3882    0.2556   -0.4689 O   0  0  0  0  0  0  0  0  0  0  0  0
   -1.5511   -0.4497   -1.3772 N   0  0  0  0  0  0  0  0  0  0  0  0
   -2.4876   -0.7624   -1.1797 H   0  0  0  0  0  0  0  0  0  0  0  0
   -1.0910   -0.4955   -2.7661 C   0  0  0  0  0  0  0  0  0  0  0  0
   -0.3115   -1.2530   -2.8722 H   0  0  0  0  0  0  0  0  0  0  0  0
   -1.9187   -0.7413   -3.4327 H   0  0  0  0  0  0  0  0  0  0  0  0
   -0.6730    0.4718   -3.0533 H   0  0  0  0  0  0  0  0  0  0  0  0
  5  6  2  0  0  0  0
  5  7  1  0  0  0  0
  2  3  1  0  0  0  0
  2  4  1  0  0  0  0
  2  5  1  0  0  0  0
  1  2  1  0  0  0  0
 29 30  2  0  0  0  0
 29 31  1  0  0  0  0
 26 27  1  0  0  0  0
 26 28  1  0  0  0  0
 23 24  1  0  0  0  0
 23 25  1  0  0  0  0
 22 23  1  0  0  0  0
 22 26  1  0  0  0  0
 20 21  1  0  0  0  0
 20 22  2  0  0  0  0
 17 18  1  0  0  0  0
 17 19  1  0  0  0  0
 17 20  1  0  0  0  0
 14 15  1  0  0  0  0
 14 16  1  0  0  0  0
 14 17  1  0  0  0  0
 11 12  1  0  0  0  0
 11 13  1  0  0  0  0
 11 14  1  0  0  0  0
  9 10  1  0  0  0  0
  9 11  1  0  0  0  0
  9 29  1  0  0  0  0
  7  8  1  0  0  0  0
  7  9  1  0  0  0  0
 33 34  1  0  0  0  0
 33 35  1  0  0  0  0
 33 36  1  0  0  0  0
 31 32  1  0  0  0  0
 31 33  1  0  0  0  0
M  CHG  1  20   1
M  END
$$$$
default_name
  -OEChem-01062215323D

 36 35  0     1  0  0  0  0  0999 V2000
   -4.2256   -3.6731    1.8584 H   0  0  0  0  0  0  0  0  0  0  0  0
   -4.2396   -2.6781    1.4144 C   0  0  0  0  0  0  0  0  0  0  0  0
   -4.9506   -2.0521    1.9514 H   0  0  0  0  0  0  0  0  0  0  0  0
   -4.5266   -2.7521    0.3674 H   0  0  0  0  0  0  0  0  0  0  0  0
   -2.8576   -2.0761    1.5184 C   0  0  0  0  0  0  0  0  0  0  0  0
   -1.9456   -2.7051    2.0404 O   0  0  0  0  0  0  0  0  0  0  0  0
   -2.6926   -0.8481    1.0174 N   0  0  0  0  0  0  0  0  0  0  0  0
   -3.4926   -0.3971    0.5954 H   0  0  0  0  0  0  0  0  0  0  0  0
   -1.4216   -0.1071    1.0434 C   0  0  1  0  0  0  0  0  0  0  0  0
   -1.6294    0.9219    1.3413 H   0  0  0  0  0  0  0  0  0  0  0  0
   -0.5018   -0.7530    2.0989 C   0  0  0  0  0  0  0  0  0  0  0  0
   -0.4232   -1.8210    1.8859 H   0  0  0  0  0  0  0  0  0  0  0  0
    0.4962   -0.3167    2.0176 H   0  0  0  0  0  0  0  0  0  0  0  0
   -1.0101   -0.5843    3.5382 C   0  0  0  0  0  0  0  0  0  0  0  0
   -1.0867    0.4766    3.7804 H   0  0  0  0  0  0  0  0  0  0  0  0
   -1.9934   -1.0468    3.6300 H   0  0  0  0  0  0  0  0  0  0  0  0
   -0.0373   -1.2547    4.5179 C   0  0  0  0  0  0  0  0  0  0  0  0
    0.0537   -2.3102    4.2514 H   0  0  0  0  0  0  0  0  0  0  0  0
    0.9413   -0.7797    4.4158 H   0  0  0  0  0  0  0  0  0  0  0  0
   -0.4997   -1.1375    5.9162 N   0  3  0  0  0  0  0  0  0  0  0  0
   -1.3424   -0.6109    6.0706 H   0  0  0  0  0  0  0  0  0  0  0  0
    0.0883   -1.6585    6.9800 C   0  0  0  0  0  0  0  0  0  0  0  0
    1.1847   -2.3584    6.8930 N   0  0  0  0  0  0  0  0  0  0  0  0
    1.5934   -2.5065    5.9873 H   0  0  0  0  0  0  0  0  0  0  0  0
    1.6183   -2.7464    7.7104 H   0  0  0  0  0  0  0  0  0  0  0  0
   -0.4196   -1.4833    8.1668 N   0  0  0  0  0  0  0  0  0  0  0  0
   -1.2645   -0.9509    8.2844 H   0  0  0  0  0  0  0  0  0  0  0  0
    0.0296   -1.8804    8.9713 H   0  0  0  0  0  0  0  0  0  0  0  0
   -0.7782   -0.0981   -0.3448 C   0  0  0  0  0  0  0  0  0  0  0  0
    0.4400   -0.0167   -0.4466 O   0  0  0  0  0  0  0  0  0  0  0  0
   -1.6001   -0.1438   -1.3979 N   0  0  0  0  0  0  0  0  0  0  0  0
   -2.5861   -0.2475   -1.2220 H   0  0  0  0  0  0  0  0  0  0  0  0
   -1.1478   -0.1446   -2.7902 C   0  0  0  0  0  0  0  0  0  0  0  0
   -0.5669   -1.0477   -2.9892 H   0  0  0  0  0  0  0  0  0  0  0  0
   -2.0024   -0.1151   -3.4674 H   0  0  0  0  0  0  0  0  0  0  0  0
   -0.5110    0.7229   -2.9766 H   0  0  0  0  0  0  0  0  0  0  0  0
  5  6  2  0  0  0  0
  5  7  1  0  0  0  0
  2  3  1  0  0  0  0
  2  4  1  0  0  0  0
  2  5  1  0  0  0  0
  1  2  1  0  0  0  0
 29 30  2  0  0  0  0
 29 31  1  0  0  0  0
 26 27  1  0  0  0  0
 26 28  1  0  0  0  0
 23 24  1  0  0  0  0
 23 25  1  0  0  0  0
 22 23  1  0  0  0  0
 22 26  1  0  0  0  0
 20 21  1  0  0  0  0
 20 22  2  0  0  0  0
 17 18  1  0  0  0  0
 17 19  1  0  0  0  0
 17 20  1  0  0  0  0
 14 15  1  0  0  0  0
 14 16  1  0  0  0  0
 14 17  1  0  0  0  0
 11 12  1  0  0  0  0
 11 13  1  0  0  0  0
 11 14  1  0  0  0  0
  9 10  1  0  0  0  0
  9 11  1  0  0  0  0
  9 29  1  0  0  0  0
  7  8  1  0  0  0  0
  7  9  1  0  0  0  0
 33 34  1  0  0  0  0
 33 35  1  0  0  0  0
 33 36  1  0  0  0  0
 31 32  1  0  0  0  0
 31 33  1  0  0  0  0
M  CHG  1  20   1
M  END
$$$$
default_name
  -OEChem-01062215323D

 36 35  0     1  0  0  0  0  0999 V2000
   -4.2256   -3.6731    1.8584 H   0  0  0  0  0  0  0  0  0  0  0  0
   -4.2396   -2.6781    1.4144 C   0  0  0  0  0  0  0  0  0  0  0  0
   -4.9506   -2.0521    1.9514 H   0  0  0  0  0  0  0  0  0  0  0  0
   -4.5266   -2.7521    0.3674 H   0  0  0  0  0  0  0  0  0  0  0  0
   -2.8576   -2.0761    1.5184 C   0  0  0  0  0  0  0  0  0  0  0  0
   -1.9456   -2.7051    2.0404 O   0  0  0  0  0  0  0  0  0  0  0  0
   -2.6926   -0.8481    1.0174 N   0  0  0  0  0  0  0  0  0  0  0  0
   -3.4926   -0.3971    0.5954 H   0  0  0  0  0  0  0  0  0  0  0  0
   -1.4216   -0.1071    1.0434 C   0  0  1  0  0  0  0  0  0  0  0  0
   -1.6294    0.9219    1.3413 H   0  0  0  0  0  0  0  0  0  0  0  0
   -0.5018   -0.7530    2.0989 C   0  0  0  0  0  0  0  0  0  0  0  0
   -0.4232   -1.8210    1.8859 H   0  0  0  0  0  0  0  0  0  0  0  0
    0.4962   -0.3167    2.0176 H   0  0  0  0  0  0  0  0  0  0  0  0
   -1.0101   -0.5843    3.5382 C   0  0  0  0  0  0  0  0  0  0  0  0
   -1.0867    0.4766    3.7804 H   0  0  0  0  0  0  0  0  0  0  0  0
   -1.9934   -1.0468    3.6300 H   0  0  0  0  0  0  0  0  0  0  0  0
   -0.0373   -1.2547    4.5179 C   0  0  0  0  0  0  0  0  0  0  0  0
    0.0537   -2.3102    4.2514 H   0  0  0  0  0  0  0  0  0  0  0  0
    0.9413   -0.7797    4.4158 H   0  0  0  0  0  0  0  0  0  0  0  0
   -0.4997   -1.1375    5.9162 N   0  3  0  0  0  0  0  0  0  0  0  0
   -1.3424   -0.6109    6.0706 H   0  0  0  0  0  0  0  0  0  0  0  0
    0.0883   -1.6585    6.9800 C   0  0  0  0  0  0  0  0  0  0  0  0
    1.1847   -2.3584    6.8930 N   0  0  0  0  0  0  0  0  0  0  0  0
    1.5934   -2.5065    5.9873 H   0  0  0  0  0  0  0  0  0  0  0  0
    1.6183   -2.7464    7.7104 H   0  0  0  0  0  0  0  0  0  0  0  0
   -0.4196   -1.4833    8.1668 N   0  0  0  0  0  0  0  0  0  0  0  0
   -1.2645   -0.9509    8.2844 H   0  0  0  0  0  0  0  0  0  0  0  0
    0.0296   -1.8804    8.9713 H   0  0  0  0  0  0  0  0  0  0  0  0
   -0.7782   -0.0981   -0.3448 C   0  0  0  0  0  0  0  0  0  0  0  0
    0.4261   -0.2944   -0.4548 O   0  0  0  0  0  0  0  0  0  0  0  0
   -1.5757    0.1655   -1.3846 N   0  0  0  0  0  0  0  0  0  0  0  0
   -2.5604    0.2776   -1.2067 H   0  0  0  0  0  0  0  0  0  0  0  0
   -1.1203    0.2103   -2.7751 C   0  0  0  0  0  0  0  0  0  0  0  0
   -0.7655   -0.7767   -3.0795 H   0  0  0  0  0  0  0  0  0  0  0  0
   -1.9362    0.5132   -3.4326 H   0  0  0  0  0  0  0  0  0  0  0  0
   -0.2954    0.9191   -2.8754 H   0  0  0  0  0  0  0  0  0  0  0  0
  5  6  2  0  0  0  0
  5  7  1  0  0  0  0
  2  3  1  0  0  0  0
  2  4  1  0  0  0  0
  2  5  1  0  0  0  0
  1  2  1  0  0  0  0
 29 30  2  0  0  0  0
 29 31  1  0  0  0  0
 26 27  1  0  0  0  0
 26 28  1  0  0  0  0
 23 24  1  0  0  0  0
 23 25  1  0  0  0  0
 22 23  1  0  0  0  0
 22 26  1  0  0  0  0
 20 21  1  0  0  0  0
 20 22  2  0  0  0  0
 17 18  1  0  0  0  0
 17 19  1  0  0  0  0
 17 20  1  0  0  0  0
 14 15  1  0  0  0  0
 14 16  1  0  0  0  0
 14 17  1  0  0  0  0
 11 12  1  0  0  0  0
 11 13  1  0  0  0  0
 11 14  1  0  0  0  0
  9 10  1  0  0  0  0
  9 11  1  0  0  0  0
  9 29  1  0  0  0  0
  7  8  1  0  0  0  0
  7  9  1  0  0  0  0
 33 34  1  0  0  0  0
 33 35  1  0  0  0  0
 33 36  1  0  0  0  0
 31 32  1  0  0  0  0
 31 33  1  0  0  0  0
M  CHG  1  20   1
M  END
$$$$
default_name
  -OEChem-01062215323D

 36 35  0     1  0  0  0  0  0999 V2000
   -4.2256   -3.6731    1.8584 H   0  0  0  0  0  0  0  0  0  0  0  0
   -4.2396   -2.6781    1.4144 C   0  0  0  0  0  0  0  0  0  0  0  0
   -4.9506   -2.0521    1.9514 H   0  0  0  0  0  0  0  0  0  0  0  0
   -4.5266   -2.7521    0.3674 H   0  0  0  0  0  0  0  0  0  0  0  0
   -2.8576   -2.0761    1.5184 C   0  0  0  0  0  0  0  0  0  0  0  0
   -1.9456   -2.7051    2.0404 O   0  0  0  0  0  0  0  0  0  0  0  0
   -2.6926   -0.8481    1.0174 N   0  0  0  0  0  0  0  0  0  0  0  0
   -3.4926   -0.3971    0.5954 H   0  0  0  0  0  0  0  0  0  0  0  0
   -1.4216   -0.1071    1.0434 C   0  0  1  0  0  0  0  0  0  0  0  0
   -1.6294    0.9219    1.3413 H   0  0  0  0  0  0  0  0  0  0  0  0
   -0.5018   -0.7530    2.0989 C   0  0  0  0  0  0  0  0  0  0  0  0
   -0.4232   -1.8210    1.8859 H   0  0  0  0  0  0  0  0  0  0  0  0
    0.4962   -0.3167    2.0176 H   0  0  0  0  0  0  0  0  0  0  0  0
   -1.0101   -0.5843    3.5382 C   0  0  0  0  0  0  0  0  0  0  0  0
   -1.0867    0.4766    3.7804 H   0  0  0  0  0  0  0  0  0  0  0  0
   -1.9934   -1.0468    3.6300 H   0  0  0  0  0  0  0  0  0  0  0  0
   -0.0373   -1.2547    4.5179 C   0  0  0  0  0  0  0  0  0  0  0  0
    0.0537   -2.3102    4.2514 H   0  0  0  0  0  0  0  0  0  0  0  0
    0.9413   -0.7797    4.4158 H   0  0  0  0  0  0  0  0  0  0  0  0
   -0.4997   -1.1375    5.9162 N   0  3  0  0  0  0  0  0  0  0  0  0
   -1.3424   -0.6109    6.0706 H   0  0  0  0  0  0  0  0  0  0  0  0
    0.0883   -1.6585    6.9800 C   0  0  0  0  0  0  0  0  0  0  0  0
    1.1847   -2.3584    6.8930 N   0  0  0  0  0  0  0  0  0  0  0  0
    1.5934   -2.5065    5.9873 H   0  0  0  0  0  0  0  0  0  0  0  0
    1.6183   -2.7464    7.7104 H   0  0  0  0  0  0  0  0  0  0  0  0
   -0.4196   -1.4833    8.1668 N   0  0  0  0  0  0  0  0  0  0  0  0
   -1.2645   -0.9509    8.2844 H   0  0  0  0  0  0  0  0  0  0  0  0
    0.0296   -1.8804    8.9713 H   0  0  0  0  0  0  0  0  0  0  0  0
   -0.7782   -0.0981   -0.3448 C   0  0  0  0  0  0  0  0  0  0  0  0
    0.3475   -0.5584   -0.4930 O   0  0  0  0  0  0  0  0  0  0  0  0
   -1.4795    0.4571   -1.3381 N   0  0  0  0  0  0  0  0  0  0  0  0
   -2.4123    0.7771   -1.1348 H   0  0  0  0  0  0  0  0  0  0  0  0
   -1.0104    0.5450   -2.7220 C   0  0  0  0  0  0  0  0  0  0  0  0
   -0.8939   -0.4585   -3.1369 H   0  0  0  0  0  0  0  0  0  0  0  0
   -1.7246    1.1008   -3.3308 H   0  0  0  0  0  0  0  0  0  0  0  0
   -0.0410    1.0469   -2.7566 H   0  0  0  0  0  0  0  0  0  0  0  0
  5  6  2  0  0  0  0
  5  7  1  0  0  0  0
  2  3  1  0  0  0  0
  2  4  1  0  0  0  0
  2  5  1  0  0  0  0
  1  2  1  0  0  0  0
 29 30  2  0  0  0  0
 29 31  1  0  0  0  0
 26 27  1  0  0  0  0
 26 28  1  0  0  0  0
 23 24  1  0  0  0  0
 23 25  1  0  0  0  0
 22 23  1  0  0  0  0
 22 26  1  0  0  0  0
 20 21  1  0  0  0  0
 20 22  2  0  0  0  0
 17 18  1  0  0  0  0
 17 19  1  0  0  0  0
 17 20  1  0  0  0  0
 14 15  1  0  0  0  0
 14 16  1  0  0  0  0
 14 17  1  0  0  0  0
 11 12  1  0  0  0  0
 11 13  1  0  0  0  0
 11 14  1  0  0  0  0
  9 10  1  0  0  0  0
  9 11  1  0  0  0  0
  9 29  1  0  0  0  0
  7  8  1  0  0  0  0
  7  9  1  0  0  0  0
 33 34  1  0  0  0  0
 33 35  1  0  0  0  0
 33 36  1  0  0  0  0
 31 32  1  0  0  0  0
 31 33  1  0  0  0  0
M  CHG  1  20   1
M  END
$$$$
default_name
  -OEChem-01062215323D

 36 35  0     1  0  0  0  0  0999 V2000
   -4.2256   -3.6731    1.8584 H   0  0  0  0  0  0  0  0  0  0  0  0
   -4.2396   -2.6781    1.4144 C   0  0  0  0  0  0  0  0  0  0  0  0
   -4.9506   -2.0521    1.9514 H   0  0  0  0  0  0  0  0  0  0  0  0
   -4.5266   -2.7521    0.3674 H   0  0  0  0  0  0  0  0  0  0  0  0
   -2.8576   -2.0761    1.5184 C   0  0  0  0  0  0  0  0  0  0  0  0
   -1.9456   -2.7051    2.0404 O   0  0  0  0  0  0  0  0  0  0  0  0
   -2.6926   -0.8481    1.0174 N   0  0  0  0  0  0  0  0  0  0  0  0
   -3.4926   -0.3971    0.5954 H   0  0  0  0  0  0  0  0  0  0  0  0
   -1.4216   -0.1071    1.0434 C   0  0  1  0  0  0  0  0  0  0  0  0
   -1.6294    0.9219    1.3413 H   0  0  0  0  0  0  0  0  0  0  0  0
   -0.5018   -0.7530    2.0989 C   0  0  0  0  0  0  0  0  0  0  0  0
   -0.4232   -1.8210    1.8859 H   0  0  0  0  0  0  0  0  0  0  0  0
    0.4962   -0.3167    2.0176 H   0  0  0  0  0  0  0  0  0  0  0  0
   -1.0101   -0.5843    3.5382 C   0  0  0  0  0  0  0  0  0  0  0  0
   -1.0867    0.4766    3.7804 H   0  0  0  0  0  0  0  0  0  0  0  0
   -1.9934   -1.0468    3.6300 H   0  0  0  0  0  0  0  0  0  0  0  0
   -0.0373   -1.2547    4.5179 C   0  0  0  0  0  0  0  0  0  0  0  0
    0.0537   -2.3102    4.2514 H   0  0  0  0  0  0  0  0  0  0  0  0
    0.9413   -0.7797    4.4158 H   0  0  0  0  0  0  0  0  0  0  0  0
   -0.4997   -1.1375    5.9162 N   0  3  0  0  0  0  0  0  0  0  0  0
   -1.3424   -0.6109    6.0706 H   0  0  0  0  0  0  0  0  0  0  0  0
    0.0883   -1.6585    6.9800 C   0  0  0  0  0  0  0  0  0  0  0  0
    1.1847   -2.3584    6.8930 N   0  0  0  0  0  0  0  0  0  0  0  0
    1.5934   -2.5065    5.9873 H   0  0  0  0  0  0  0  0  0  0  0  0
    1.6183   -2.7464    7.7104 H   0  0  0  0  0  0  0  0  0  0  0  0
   -0.4196   -1.4833    8.1668 N   0  0  0  0  0  0  0  0  0  0  0  0
   -1.2645   -0.9509    8.2844 H   0  0  0  0  0  0  0  0  0  0  0  0
    0.0296   -1.8804    8.9713 H   0  0  0  0  0  0  0  0  0  0  0  0
   -0.7782   -0.0981   -0.3448 C   0  0  0  0  0  0  0  0  0  0  0  0
    0.2095   -0.7908   -0.5584 O   0  0  0  0  0  0  0  0  0  0  0  0
   -1.3180    0.7110   -1.2617 N   0  0  0  0  0  0  0  0  0  0  0  0
   -2.1518    1.2169   -1.0112 H   0  0  0  0  0  0  0  0  0  0  0  0
   -0.8255    0.8367   -2.6344 C   0  0  0  0  0  0  0  0  0  0  0  0
   -0.9433   -0.1147   -3.1576 H   0  0  0  0  0  0  0  0  0  0  0  0
   -1.3822    1.6076   -3.1688 H   0  0  0  0  0  0  0  0  0  0  0  0
    0.2350    1.0977   -2.6284 H   0  0  0  0  0  0  0  0  0  0  0  0
  5  6  2  0  0  0  0
  5  7  1  0  0  0  0
  2  3  1  0  0  0  0
  2  4  1  0  0  0  0
  2  5  1  0  0  0  0
  1  2  1  0  0  0  0
 29 30  2  0  0  0  0
 29 31  1  0  0  0  0
 26 27  1  0  0  0  0
 26 28  1  0  0  0  0
 23 24  1  0  0  0  0
 23 25  1  0  0  0  0
 22 23  1  0  0  0  0
 22 26  1  0  0  0  0
 20 21  1  0  0  0  0
 20 22  2  0  0  0  0
 17 18  1  0  0  0  0
 17 19  1  0  0  0  0
 17 20  1  0  0  0  0
 14 15  1  0  0  0  0
 14 16  1  0  0  0  0
 14 17  1  0  0  0  0
 11 12  1  0  0  0  0
 11 13  1  0  0  0  0
 11 14  1  0  0  0  0
  9 10  1  0  0  0  0
  9 11  1  0  0  0  0
  9 29  1  0  0  0  0
  7  8  1  0  0  0  0
  7  9  1  0  0  0  0
 33 34  1  0  0  0  0
 33 35  1  0  0  0  0
 33 36  1  0  0  0  0
 31 32  1  0  0  0  0
 31 33  1  0  0  0  0
M  CHG  1  20   1
M  END
$$$$
default_name
  -OEChem-01062215323D

 36 35  0     1  0  0  0  0  0999 V2000
   -4.2256   -3.6731    1.8584 H   0  0  0  0  0  0  0  0  0  0  0  0
   -4.2396   -2.6781    1.4144 C   0  0  0  0  0  0  0  0  0  0  0  0
   -4.9506   -2.0521    1.9514 H   0  0  0  0  0  0  0  0  0  0  0  0
   -4.5266   -2.7521    0.3674 H   0  0  0  0  0  0  0  0  0  0  0  0
   -2.8576   -2.0761    1.5184 C   0  0  0  0  0  0  0  0  0  0  0  0
   -1.9456   -2.7051    2.0404 O   0  0  0  0  0  0  0  0  0  0  0  0
   -2.6926   -0.8481    1.0174 N   0  0  0  0  0  0  0  0  0  0  0  0
   -3.4926   -0.3971    0.5954 H   0  0  0  0  0  0  0  0  0  0  0  0
   -1.4216   -0.1071    1.0434 C   0  0  1  0  0  0  0  0  0  0  0  0
   -1.6294    0.9219    1.3413 H   0  0  0  0  0  0  0  0  0  0  0  0
   -0.5018   -0.7530    2.0989 C   0  0  0  0  0  0  0  0  0  0  0  0
   -0.4232   -1.8210    1.8859 H   0  0  0  0  0  0  0  0  0  0  0  0
    0.4962   -0.3167    2.0176 H   0  0  0  0  0  0  0  0  0  0  0  0
   -1.0101   -0.5843    3.5382 C   0  0  0  0  0  0  0  0  0  0  0  0
   -1.0867    0.4766    3.7804 H   0  0  0  0  0  0  0  0  0  0  0  0
   -1.9934   -1.0468    3.6300 H   0  0  0  0  0  0  0  0  0  0  0  0
   -0.0373   -1.2547    4.5179 C   0  0  0  0  0  0  0  0  0  0  0  0
    0.0537   -2.3102    4.2514 H   0  0  0  0  0  0  0  0  0  0  0  0
    0.9413   -0.7797    4.4158 H   0  0  0  0  0  0  0  0  0  0  0  0
   -0.4997   -1.1375    5.9162 N   0  3  0  0  0  0  0  0  0  0  0  0
   -1.3424   -0.6109    6.0706 H   0  0  0  0  0  0  0  0  0  0  0  0
    0.0883   -1.6585    6.9800 C   0  0  0  0  0  0  0  0  0  0  0  0
    1.1847   -2.3584    6.8930 N   0  0  0  0  0  0  0  0  0  0  0  0
    1.5934   -2.5065    5.9873 H   0  0  0  0  0  0  0  0  0  0  0  0
    1.6183   -2.7464    7.7104 H   0  0  0  0  0  0  0  0  0  0  0  0
   -0.4196   -1.4833    8.1668 N   0  0  0  0  0  0  0  0  0  0  0  0
   -1.2645   -0.9509    8.2844 H   0  0  0  0  0  0  0  0  0  0  0  0
    0.0296   -1.8804    8.9713 H   0  0  0  0  0  0  0  0  0  0  0  0
   -0.7782   -0.0981   -0.3448 C   0  0  0  0  0  0  0  0  0  0  0  0
    0.0215   -0.9758   -0.6467 O   0  0  0  0  0  0  0  0  0  0  0  0
   -1.1022    0.9101   -1.1604 N   0  0  0  0  0  0  0  0  0  0  0  0
   -1.7966    1.5672   -0.8444 H   0  0  0  0  0  0  0  0  0  0  0  0
   -0.5783    1.0655   -2.5184 C   0  0  0  0  0  0  0  0  0  0  0  0
   -0.9103    0.2312   -3.1400 H   0  0  0  0  0  0  0  0  0  0  0  0
   -0.9322    1.9990   -2.9577 H   0  0  0  0  0  0  0  0  0  0  0  0
    0.5137    1.0681   -2.4995 H   0  0  0  0  0  0  0  0  0  0  0  0
  5  6  2  0  0  0  0
  5  7  1  0  0  0  0
  2  3  1  0  0  0  0
  2  4  1  0  0  0  0
  2  5  1  0  0  0  0
  1  2  1  0  0  0  0
 29 30  2  0  0  0  0
 29 31  1  0  0  0  0
 26 27  1  0  0  0  0
 26 28  1  0  0  0  0
 23 24  1  0  0  0  0
 23 25  1  0  0  0  0
 22 23  1  0  0  0  0
 22 26  1  0  0  0  0
 20 21  1  0  0  0  0
 20 22  2  0  0  0  0
 17 18  1  0  0  0  0
 17 19  1  0  0  0  0
 17 20  1  0  0  0  0
 14 15  1  0  0  0  0
 14 16  1  0  0  0  0
 14 17  1  0  0  0  0
 11 12  1  0  0  0  0
 11 13  1  0  0  0  0
 11 14  1  0  0  0  0
  9 10  1  0  0  0  0
  9 11  1  0  0  0  0
  9 29  1  0  0  0  0
  7  8  1  0  0  0  0
  7  9  1  0  0  0  0
 33 34  1  0  0  0  0
 33 35  1  0  0  0  0
 33 36  1  0  0  0  0
 31 32  1  0  0  0  0
 31 33  1  0  0  0  0
M  CHG  1  20   1
M  END
$$$$
default_name
  -OEChem-01062215323D

 36 35  0     1  0  0  0  0  0999 V2000
   -4.2256   -3.6731    1.8584 H   0  0  0  0  0  0  0  0  0  0  0  0
   -4.2396   -2.6781    1.4144 C   0  0  0  0  0  0  0  0  0  0  0  0
   -4.9506   -2.0521    1.9514 H   0  0  0  0  0  0  0  0  0  0  0  0
   -4.5266   -2.7521    0.3674 H   0  0  0  0  0  0  0  0  0  0  0  0
   -2.8576   -2.0761    1.5184 C   0  0  0  0  0  0  0  0  0  0  0  0
   -1.9456   -2.7051    2.0404 O   0  0  0  0  0  0  0  0  0  0  0  0
   -2.6926   -0.8481    1.0174 N   0  0  0  0  0  0  0  0  0  0  0  0
   -3.4926   -0.3971    0.5954 H   0  0  0  0  0  0  0  0  0  0  0  0
   -1.4216   -0.1071    1.0434 C   0  0  1  0  0  0  0  0  0  0  0  0
   -1.6294    0.9219    1.3413 H   0  0  0  0  0  0  0  0  0  0  0  0
   -0.5018   -0.7530    2.0989 C   0  0  0  0  0  0  0  0  0  0  0  0
   -0.4232   -1.8210    1.8859 H   0  0  0  0  0  0  0  0  0  0  0  0
    0.4962   -0.3167    2.0176 H   0  0  0  0  0  0  0  0  0  0  0  0
   -1.0101   -0.5843    3.5382 C   0  0  0  0  0  0  0  0  0  0  0  0
   -1.0867    0.4766    3.7804 H   0  0  0  0  0  0  0  0  0  0  0  0
   -1.9934   -1.0468    3.6300 H   0  0  0  0  0  0  0  0  0  0  0  0
   -0.0373   -1.2547    4.5179 C   0  0  0  0  0  0  0  0  0  0  0  0
    0.0537   -2.3102    4.2514 H   0  0  0  0  0  0  0  0  0  0  0  0
    0.9413   -0.7797    4.4158 H   0  0  0  0  0  0  0  0  0  0  0  0
   -0.4997   -1.1375    5.9162 N   0  3  0  0  0  0  0  0  0  0  0  0
   -1.3424   -0.6109    6.0706 H   0  0  0  0  0  0  0  0  0  0  0  0
    0.0883   -1.6585    6.9800 C   0  0  0  0  0  0  0  0  0  0  0  0
    1.1847   -2.3584    6.8930 N   0  0  0  0  0  0  0  0  0  0  0  0
    1.5934   -2.5065    5.9873 H   0  0  0  0  0  0  0  0  0  0  0  0
    1.6183   -2.7464    7.7104 H   0  0  0  0  0  0  0  0  0  0  0  0
   -0.4196   -1.4833    8.1668 N   0  0  0  0  0  0  0  0  0  0  0  0
   -1.2645   -0.9509    8.2844 H   0  0  0  0  0  0  0  0  0  0  0  0
    0.0296   -1.8804    8.9713 H   0  0  0  0  0  0  0  0  0  0  0  0
   -0.7782   -0.0981   -0.3448 C   0  0  0  0  0  0  0  0  0  0  0  0
   -0.2036   -1.1007   -0.7519 O   0  0  0  0  0  0  0  0  0  0  0  0
   -0.8469    1.0407   -1.0412 N   0  0  0  0  0  0  0  0  0  0  0  0
   -1.3711    1.8040   -0.6456 H   0  0  0  0  0  0  0  0  0  0  0  0
   -0.2856    1.2158   -2.3818 C   0  0  0  0  0  0  0  0  0  0  0  0
   -0.7971    0.5557   -3.0855 H   0  0  0  0  0  0  0  0  0  0  0  0
   -0.4052    2.2485   -2.7119 H   0  0  0  0  0  0  0  0  0  0  0  0
    0.7761    0.9599   -2.3785 H   0  0  0  0  0  0  0  0  0  0  0  0
  5  6  2  0  0  0  0
  5  7  1  0  0  0  0
  2  3  1  0  0  0  0
  2  4  1  0  0  0  0
  2  5  1  0  0  0  0
  1  2  1  0  0  0  0
 29 30  2  0  0  0  0
 29 31  1  0  0  0  0
 26 27  1  0  0  0  0
 26 28  1  0  0  0  0
 23 24  1  0  0  0  0
 23 25  1  0  0  0  0
 22 23  1  0  0  0  0
 22 26  1  0  0  0  0
 20 21  1  0  0  0  0
 20 22  2  0  0  0  0
 17 18  1  0  0  0  0
 17 19  1  0  0  0  0
 17 20  1  0  0  0  0
 14 15  1  0  0  0  0
 14 16  1  0  0  0  0
 14 17  1  0  0  0  0
 11 12  1  0  0  0  0
 11 13  1  0  0  0  0
 11 14  1  0  0  0  0
  9 10  1  0  0  0  0
  9 11  1  0  0  0  0
  9 29  1  0  0  0  0
  7  8  1  0  0  0  0
  7  9  1  0  0  0  0
 33 34  1  0  0  0  0
 33 35  1  0  0  0  0
 33 36  1  0  0  0  0
 31 32  1  0  0  0  0
 31 33  1  0  0  0  0
M  CHG  1  20   1
M  END
$$$$
default_name
  -OEChem-01062215323D

 36 35  0     1  0  0  0  0  0999 V2000
   -4.2256   -3.6731    1.8584 H   0  0  0  0  0  0  0  0  0  0  0  0
   -4.2396   -2.6781    1.4144 C   0  0  0  0  0  0  0  0  0  0  0  0
   -4.9506   -2.0521    1.9514 H   0  0  0  0  0  0  0  0  0  0  0  0
   -4.5266   -2.7521    0.3674 H   0  0  0  0  0  0  0  0  0  0  0  0
   -2.8576   -2.0761    1.5184 C   0  0  0  0  0  0  0  0  0  0  0  0
   -1.9456   -2.7051    2.0404 O   0  0  0  0  0  0  0  0  0  0  0  0
   -2.6926   -0.8481    1.0174 N   0  0  0  0  0  0  0  0  0  0  0  0
   -3.4926   -0.3971    0.5954 H   0  0  0  0  0  0  0  0  0  0  0  0
   -1.4216   -0.1071    1.0434 C   0  0  1  0  0  0  0  0  0  0  0  0
   -1.6294    0.9219    1.3413 H   0  0  0  0  0  0  0  0  0  0  0  0
   -0.5018   -0.7530    2.0989 C   0  0  0  0  0  0  0  0  0  0  0  0
   -0.4232   -1.8210    1.8859 H   0  0  0  0  0  0  0  0  0  0  0  0
    0.4962   -0.3167    2.0176 H   0  0  0  0  0  0  0  0  0  0  0  0
   -1.0101   -0.5843    3.5382 C   0  0  0  0  0  0  0  0  0  0  0  0
   -1.0867    0.4766    3.7804 H   0  0  0  0  0  0  0  0  0  0  0  0
   -1.9934   -1.0468    3.6300 H   0  0  0  0  0  0  0  0  0  0  0  0
   -0.0373   -1.2547    4.5179 C   0  0  0  0  0  0  0  0  0  0  0  0
    0.0537   -2.3102    4.2514 H   0  0  0  0  0  0  0  0  0  0  0  0
    0.9413   -0.7797    4.4158 H   0  0  0  0  0  0  0  0  0  0  0  0
   -0.4997   -1.1375    5.9162 N   0  3  0  0  0  0  0  0  0  0  0  0
   -1.3424   -0.6109    6.0706 H   0  0  0  0  0  0  0  0  0  0  0  0
    0.0883   -1.6585    6.9800 C   0  0  0  0  0  0  0  0  0  0  0  0
    1.1847   -2.3584    6.8930 N   0  0  0  0  0  0  0  0  0  0  0  0
    1.5934   -2.5065    5.9873 H   0  0  0  0  0  0  0  0  0  0  0  0
    1.6183   -2.7464    7.7104 H   0  0  0  0  0  0  0  0  0  0  0  0
   -0.4196   -1.4833    8.1668 N   0  0  0  0  0  0  0  0  0  0  0  0
   -1.2645   -0.9509    8.2844 H   0  0  0  0  0  0  0  0  0  0  0  0
    0.0296   -1.8804    8.9713 H   0  0  0  0  0  0  0  0  0  0  0  0
   -0.7782   -0.0981   -0.3448 C   0  0  0  0  0  0  0  0  0  0  0  0
   -0.4505   -1.1571   -0.8667 O   0  0  0  0  0  0  0  0  0  0  0  0
   -0.5695    1.0939   -0.9123 N   0  0  0  0  0  0  0  0  0  0  0  0
   -0.9042    1.9111   -0.4286 H   0  0  0  0  0  0  0  0  0  0  0  0
    0.0326    1.2775   -2.2339 C   0  0  0  0  0  0  0  0  0  0  0  0
   -0.6116    0.8366   -2.9977 H   0  0  0  0  0  0  0  0  0  0  0  0
    0.1628    2.3390   -2.4481 H   0  0  0  0  0  0  0  0  0  0  0  0
    1.0044    0.7807   -2.2739 H   0  0  0  0  0  0  0  0  0  0  0  0
  5  6  2  0  0  0  0
  5  7  1  0  0  0  0
  2  3  1  0  0  0  0
  2  4  1  0  0  0  0
  2  5  1  0  0  0  0
  1  2  1  0  0  0  0
 29 30  2  0  0  0  0
 29 31  1  0  0  0  0
 26 27  1  0  0  0  0
 26 28  1  0  0  0  0
 23 24  1  0  0  0  0
 23 25  1  0  0  0  0
 22 23  1  0  0  0  0
 22 26  1  0  0  0  0
 20 21  1  0  0  0  0
 20 22  2  0  0  0  0
 17 18  1  0  0  0  0
 17 19  1  0  0  0  0
 17 20  1  0  0  0  0
 14 15  1  0  0  0  0
 14 16  1  0  0  0  0
 14 17  1  0  0  0  0
 11 12  1  0  0  0  0
 11 13  1  0  0  0  0
 11 14  1  0  0  0  0
  9 10  1  0  0  0  0
  9 11  1  0  0  0  0
  9 29  1  0  0  0  0
  7  8  1  0  0  0  0
  7  9  1  0  0  0  0
 33 34  1  0  0  0  0
 33 35  1  0  0  0  0
 33 36  1  0  0  0  0
 31 32  1  0  0  0  0
 31 33  1  0  0  0  0
M  CHG  1  20   1
M  END
$$$$
default_name
  -OEChem-01062215323D

 36 35  0     1  0  0  0  0  0999 V2000
   -4.2256   -3.6731    1.8584 H   0  0  0  0  0  0  0  0  0  0  0  0
   -4.2396   -2.6781    1.4144 C   0  0  0  0  0  0  0  0  0  0  0  0
   -4.9506   -2.0521    1.9514 H   0  0  0  0  0  0  0  0  0  0  0  0
   -4.5266   -2.7521    0.3674 H   0  0  0  0  0  0  0  0  0  0  0  0
   -2.8576   -2.0761    1.5184 C   0  0  0  0  0  0  0  0  0  0  0  0
   -1.9456   -2.7051    2.0404 O   0  0  0  0  0  0  0  0  0  0  0  0
   -2.6926   -0.8481    1.0174 N   0  0  0  0  0  0  0  0  0  0  0  0
   -3.4926   -0.3971    0.5954 H   0  0  0  0  0  0  0  0  0  0  0  0
   -1.4216   -0.1071    1.0434 C   0  0  1  0  0  0  0  0  0  0  0  0
   -1.6294    0.9219    1.3413 H   0  0  0  0  0  0  0  0  0  0  0  0
   -0.5018   -0.7530    2.0989 C   0  0  0  0  0  0  0  0  0  0  0  0
   -0.4232   -1.8210    1.8859 H   0  0  0  0  0  0  0  0  0  0  0  0
    0.4962   -0.3167    2.0176 H   0  0  0  0  0  0  0  0  0  0  0  0
   -1.0101   -0.5843    3.5382 C   0  0  0  0  0  0  0  0  0  0  0  0
   -1.0867    0.4766    3.7804 H   0  0  0  0  0  0  0  0  0  0  0  0
   -1.9934   -1.0468    3.6300 H   0  0  0  0  0  0  0  0  0  0  0  0
   -0.0373   -1.2547    4.5179 C   0  0  0  0  0  0  0  0  0  0  0  0
    0.0537   -2.3102    4.2514 H   0  0  0  0  0  0  0  0  0  0  0  0
    0.9413   -0.7797    4.4158 H   0  0  0  0  0  0  0  0  0  0  0  0
   -0.4997   -1.1375    5.9162 N   0  3  0  0  0  0  0  0  0  0  0  0
   -1.3424   -0.6109    6.0706 H   0  0  0  0  0  0  0  0  0  0  0  0
    0.0883   -1.6585    6.9800 C   0  0  0  0  0  0  0  0  0  0  0  0
    1.1847   -2.3584    6.8930 N   0  0  0  0  0  0  0  0  0  0  0  0
    1.5934   -2.5065    5.9873 H   0  0  0  0  0  0  0  0  0  0  0  0
    1.6183   -2.7464    7.7104 H   0  0  0  0  0  0  0  0  0  0  0  0
   -0.4196   -1.4833    8.1668 N   0  0  0  0  0  0  0  0  0  0  0  0
   -1.2645   -0.9509    8.2844 H   0  0  0  0  0  0  0  0  0  0  0  0
    0.0296   -1.8804    8.9713 H   0  0  0  0  0  0  0  0  0  0  0  0
   -0.7782   -0.0981   -0.3448 C   0  0  0  0  0  0  0  0  0  0  0  0
   -0.7025   -1.1410   -0.9833 O   0  0  0  0  0  0  0  0  0  0  0  0
   -0.2888    1.0662   -0.7824 N   0  0  0  0  0  0  0  0  0  0  0  0
   -0.4277    1.8814   -0.2080 H   0  0  0  0  0  0  0  0  0  0  0  0
    0.3547    1.2462   -2.0849 C   0  0  0  0  0  0  0  0  0  0  0  0
   -0.3662    1.0548   -2.8826 H   0  0  0  0  0  0  0  0  0  0  0  0
    0.7330    2.2644   -2.1844 H   0  0  0  0  0  0  0  0  0  0  0  0
    1.1830    0.5425   -2.1927 H   0  0  0  0  0  0  0  0  0  0  0  0
  5  6  2  0  0  0  0
  5  7  1  0  0  0  0
  2  3  1  0  0  0  0
  2  4  1  0  0  0  0
  2  5  1  0  0  0  0
  1  2  1  0  0  0  0
 29 30  2  0  0  0  0
 29 31  1  0  0  0  0
 26 27  1  0  0  0  0
 26 28  1  0  0  0  0
 23 24  1  0  0  0  0
 23 25  1  0  0  0  0
 22 23  1  0  0  0  0
 22 26  1  0  0  0  0
 20 21  1  0  0  0  0
 20 22  2  0  0  0  0
 17 18  1  0  0  0  0
 17 19  1  0  0  0  0
 17 20  1  0  0  0  0
 14 15  1  0  0  0  0
 14 16  1  0  0  0  0
 14 17  1  0  0  0  0
 11 12  1  0  0  0  0
 11 13  1  0  0  0  0
 11 14  1  0  0  0  0
  9 10  1  0  0  0  0
  9 11  1  0  0  0  0
  9 29  1  0  0  0  0
  7  8  1  0  0  0  0
  7  9  1  0  0  0  0
 33 34  1  0  0  0  0
 33 35  1  0  0  0  0
 33 36  1  0  0  0  0
 31 32  1  0  0  0  0
 31 33  1  0  0  0  0
M  CHG  1  20   1
M  END
$$$$
default_name
  -OEChem-01062215323D

 36 35  0     1  0  0  0  0  0999 V2000
   -4.2256   -3.6731    1.8584 H   0  0  0  0  0  0  0  0  0  0  0  0
   -4.2396   -2.6781    1.4144 C   0  0  0  0  0  0  0  0  0  0  0  0
   -4.9506   -2.0521    1.9514 H   0  0  0  0  0  0  0  0  0  0  0  0
   -4.5266   -2.7521    0.3674 H   0  0  0  0  0  0  0  0  0  0  0  0
   -2.8576   -2.0761    1.5184 C   0  0  0  0  0  0  0  0  0  0  0  0
   -1.9456   -2.7051    2.0404 O   0  0  0  0  0  0  0  0  0  0  0  0
   -2.6926   -0.8481    1.0174 N   0  0  0  0  0  0  0  0  0  0  0  0
   -3.4926   -0.3971    0.5954 H   0  0  0  0  0  0  0  0  0  0  0  0
   -1.4216   -0.1071    1.0434 C   0  0  1  0  0  0  0  0  0  0  0  0
   -1.6294    0.9219    1.3413 H   0  0  0  0  0  0  0  0  0  0  0  0
   -0.5018   -0.7530    2.0989 C   0  0  0  0  0  0  0  0  0  0  0  0
   -0.4232   -1.8210    1.8859 H   0  0  0  0  0  0  0  0  0  0  0  0
    0.4962   -0.3167    2.0176 H   0  0  0  0  0  0  0  0  0  0  0  0
   -1.0101   -0.5843    3.5382 C   0  0  0  0  0  0  0  0  0  0  0  0
   -1.0867    0.4766    3.7804 H   0  0  0  0  0  0  0  0  0  0  0  0
   -1.9934   -1.0468    3.6300 H   0  0  0  0  0  0  0  0  0  0  0  0
   -0.0373   -1.2547    4.5179 C   0  0  0  0  0  0  0  0  0  0  0  0
    0.0537   -2.3102    4.2514 H   0  0  0  0  0  0  0  0  0  0  0  0
    0.9413   -0.7797    4.4158 H   0  0  0  0  0  0  0  0  0  0  0  0
   -0.4997   -1.1375    5.9162 N   0  3  0  0  0  0  0  0  0  0  0  0
   -1.3424   -0.6109    6.0706 H   0  0  0  0  0  0  0  0  0  0  0  0
    0.0883   -1.6585    6.9800 C   0  0  0  0  0  0  0  0  0  0  0  0
    1.1847   -2.3584    6.8930 N   0  0  0  0  0  0  0  0  0  0  0  0
    1.5934   -2.5065    5.9873 H   0  0  0  0  0  0  0  0  0  0  0  0
    1.6183   -2.7464    7.7104 H   0  0  0  0  0  0  0  0  0  0  0  0
   -0.4196   -1.4833    8.1668 N   0  0  0  0  0  0  0  0  0  0  0  0
   -1.2645   -0.9509    8.2844 H   0  0  0  0  0  0  0  0  0  0  0  0
    0.0296   -1.8804    8.9713 H   0  0  0  0  0  0  0  0  0  0  0  0
   -0.7782   -0.0981   -0.3448 C   0  0  0  0  0  0  0  0  0  0  0  0
   -0.9423   -1.0537   -1.0939 O   0  0  0  0  0  0  0  0  0  0  0  0
   -0.0240    0.9593   -0.6604 N   0  0  0  0  0  0  0  0  0  0  0  0
    0.0259    1.7168    0.0012 H   0  0  0  0  0  0  0  0  0  0  0  0
    0.6587    1.1241   -1.9448 C   0  0  0  0  0  0  0  0  0  0  0  0
   -0.0778    1.1954   -2.7480 H   0  0  0  0  0  0  0  0  0  0  0  0
    1.2667    2.0297   -1.9385 H   0  0  0  0  0  0  0  0  0  0  0  0
    1.2997    0.2618   -2.1404 H   0  0  0  0  0  0  0  0  0  0  0  0
  5  6  2  0  0  0  0
  5  7  1  0  0  0  0
  2  3  1  0  0  0  0
  2  4  1  0  0  0  0
  2  5  1  0  0  0  0
  1  2  1  0  0  0  0
 29 30  2  0  0  0  0
 29 31  1  0  0  0  0
 26 27  1  0  0  0  0
 26 28  1  0  0  0  0
 23 24  1  0  0  0  0
 23 25  1  0  0  0  0
 22 23  1  0  0  0  0
 22 26  1  0  0  0  0
 20 21  1  0  0  0  0
 20 22  2  0  0  0  0
 17 18  1  0  0  0  0
 17 19  1  0  0  0  0
 17 20  1  0  0  0  0
 14 15  1  0  0  0  0
 14 16  1  0  0  0  0
 14 17  1  0  0  0  0
 11 12  1  0  0  0  0
 11 13  1  0  0  0  0
 11 14  1  0  0  0  0
  9 10  1  0  0  0  0
  9 11  1  0  0  0  0
  9 29  1  0  0  0  0
  7  8  1  0  0  0  0
  7  9  1  0  0  0  0
 33 34  1  0  0  0  0
 33 35  1  0  0  0  0
 33 36  1  0  0  0  0
 31 32  1  0  0  0  0
 31 33  1  0  0  0  0
M  CHG  1  20   1
M  END
$$$$
default_name
  -OEChem-01062215323D

 36 35  0     1  0  0  0  0  0999 V2000
   -4.2256   -3.6731    1.8584 H   0  0  0  0  0  0  0  0  0  0  0  0
   -4.2396   -2.6781    1.4144 C   0  0  0  0  0  0  0  0  0  0  0  0
   -4.9506   -2.0521    1.9514 H   0  0  0  0  0  0  0  0  0  0  0  0
   -4.5266   -2.7521    0.3674 H   0  0  0  0  0  0  0  0  0  0  0  0
   -2.8576   -2.0761    1.5184 C   0  0  0  0  0  0  0  0  0  0  0  0
   -1.9456   -2.7051    2.0404 O   0  0  0  0  0  0  0  0  0  0  0  0
   -2.6926   -0.8481    1.0174 N   0  0  0  0  0  0  0  0  0  0  0  0
   -3.4926   -0.3971    0.5954 H   0  0  0  0  0  0  0  0  0  0  0  0
   -1.4216   -0.1071    1.0434 C   0  0  1  0  0  0  0  0  0  0  0  0
   -1.6294    0.9219    1.3413 H   0  0  0  0  0  0  0  0  0  0  0  0
   -0.5018   -0.7530    2.0989 C   0  0  0  0  0  0  0  0  0  0  0  0
   -0.4232   -1.8210    1.8859 H   0  0  0  0  0  0  0  0  0  0  0  0
    0.4962   -0.3167    2.0176 H   0  0  0  0  0  0  0  0  0  0  0  0
   -1.0101   -0.5843    3.5382 C   0  0  0  0  0  0  0  0  0  0  0  0
   -1.0867    0.4766    3.7804 H   0  0  0  0  0  0  0  0  0  0  0  0
   -1.9934   -1.0468    3.6300 H   0  0  0  0  0  0  0  0  0  0  0  0
   -0.0373   -1.2547    4.5179 C   0  0  0  0  0  0  0  0  0  0  0  0
    0.0537   -2.3102    4.2514 H   0  0  0  0  0  0  0  0  0  0  0  0
    0.9413   -0.7797    4.4158 H   0  0  0  0  0  0  0  0  0  0  0  0
   -0.4997   -1.1375    5.9162 N   0  3  0  0  0  0  0  0  0  0  0  0
   -1.3424   -0.6109    6.0706 H   0  0  0  0  0  0  0  0  0  0  0  0
    0.0883   -1.6585    6.9800 C   0  0  0  0  0  0  0  0  0  0  0  0
    1.1847   -2.3584    6.8930 N   0  0  0  0  0  0  0  0  0  0  0  0
    1.5934   -2.5065    5.9873 H   0  0  0  0  0  0  0  0  0  0  0  0
    1.6183   -2.7464    7.7104 H   0  0  0  0  0  0  0  0  0  0  0  0
   -0.4196   -1.4833    8.1668 N   0  0  0  0  0  0  0  0  0  0  0  0
   -1.2645   -0.9509    8.2844 H   0  0  0  0  0  0  0  0  0  0  0  0
    0.0296   -1.8804    8.9713 H   0  0  0  0  0  0  0  0  0  0  0  0
   -0.7782   -0.0981   -0.3448 C   0  0  0  0  0  0  0  0  0  0  0  0
   -1.1535   -0.9009   -1.1908 O   0  0  0  0  0  0  0  0  0  0  0  0
    0.2069    0.7807   -0.5546 N   0  0  0  0  0  0  0  0  0  0  0  0
    0.4257    1.4284    0.1846 H   0  0  0  0  0  0  0  0  0  0  0  0
    0.9239    0.9196   -1.8232 C   0  0  0  0  0  0  0  0  0  0  0  0
    0.2340    1.2488   -2.6032 H   0  0  0  0  0  0  0  0  0  0  0  0
    1.7275    1.6508   -1.7275 H   0  0  0  0  0  0  0  0  0  0  0  0
    1.3466   -0.0426   -2.1207 H   0  0  0  0  0  0  0  0  0  0  0  0
  5  6  2  0  0  0  0
  5  7  1  0  0  0  0
  2  3  1  0  0  0  0
  2  4  1  0  0  0  0
  2  5  1  0  0  0  0
  1  2  1  0  0  0  0
 29 30  2  0  0  0  0
 29 31  1  0  0  0  0
 26 27  1  0  0  0  0
 26 28  1  0  0  0  0
 23 24  1  0  0  0  0
 23 25  1  0  0  0  0
 22 23  1  0  0  0  0
 22 26  1  0  0  0  0
 20 21  1  0  0  0  0
 20 22  2  0  0  0  0
 17 18  1  0  0  0  0
 17 19  1  0  0  0  0
 17 20  1  0  0  0  0
 14 15  1  0  0  0  0
 14 16  1  0  0  0  0
 14 17  1  0  0  0  0
 11 12  1  0  0  0  0
 11 13  1  0  0  0  0
 11 14  1  0  0  0  0
  9 10  1  0  0  0  0
  9 11  1  0  0  0  0
  9 29  1  0  0  0  0
  7  8  1  0  0  0  0
  7  9  1  0  0  0  0
 33 34  1  0  0  0  0
 33 35  1  0  0  0  0
 33 36  1  0  0  0  0
 31 32  1  0  0  0  0
 31 33  1  0  0  0  0
M  CHG  1  20   1
M  END
$$$$
default_name
  -OEChem-01062215323D

 36 35  0     1  0  0  0  0  0999 V2000
   -4.2256   -3.6731    1.8584 H   0  0  0  0  0  0  0  0  0  0  0  0
   -4.2396   -2.6781    1.4144 C   0  0  0  0  0  0  0  0  0  0  0  0
   -4.9506   -2.0521    1.9514 H   0  0  0  0  0  0  0  0  0  0  0  0
   -4.5266   -2.7521    0.3674 H   0  0  0  0  0  0  0  0  0  0  0  0
   -2.8576   -2.0761    1.5184 C   0  0  0  0  0  0  0  0  0  0  0  0
   -1.9456   -2.7051    2.0404 O   0  0  0  0  0  0  0  0  0  0  0  0
   -2.6926   -0.8481    1.0174 N   0  0  0  0  0  0  0  0  0  0  0  0
   -3.4926   -0.3971    0.5954 H   0  0  0  0  0  0  0  0  0  0  0  0
   -1.4216   -0.1071    1.0434 C   0  0  1  0  0  0  0  0  0  0  0  0
   -1.5781    0.8252    1.5885 H   0  0  0  0  0  0  0  0  0  0  0  0
   -0.3782   -0.9544    1.7990 C   0  0  0  0  0  0  0  0  0  0  0  0
   -0.3391   -1.9461    1.3439 H   0  0  0  0  0  0  0  0  0  0  0  0
    0.6049   -0.4917    1.6886 H   0  0  0  0  0  0  0  0  0  0  0  0
   -0.6921   -1.1212    3.2930 C   0  0  0  0  0  0  0  0  0  0  0  0
   -0.7254   -0.1428    3.7744 H   0  0  0  0  0  0  0  0  0  0  0  0
   -1.6596   -1.6114    3.4058 H   0  0  0  0  0  0  0  0  0  0  0  0
    0.3936   -1.9743    3.9629 C   0  0  0  0  0  0  0  0  0  0  0  0
    0.4382   -2.9418    3.4575 H   0  0  0  0  0  0  0  0  0  0  0  0
    1.3552   -1.4697    3.8437 H   0  0  0  0  0  0  0  0  0  0  0  0
    0.1194   -2.1813    5.3998 N   0  3  0  0  0  0  0  0  0  0  0  0
   -0.6904   -1.7189    5.7763 H   0  0  0  0  0  0  0  0  0  0  0  0
    0.8362   -2.9152    6.2345 C   0  0  0  0  0  0  0  0  0  0  0  0
    1.9045   -3.5565    5.8515 N   0  0  0  0  0  0  0  0  0  0  0  0
    2.1897   -3.4908    4.8904 H   0  0  0  0  0  0  0  0  0  0  0  0
    2.4374   -4.1088    6.4979 H   0  0  0  0  0  0  0  0  0  0  0  0
    0.4897   -3.0192    7.4861 N   0  0  0  0  0  0  0  0  0  0  0  0
   -0.3270   -2.5430    7.8284 H   0  0  0  0  0  0  0  0  0  0  0  0
    1.0363   -3.5771    8.1159 H   0  0  0  0  0  0  0  0  0  0  0  0
   -0.9654    0.2240   -0.3790 C   0  0  0  0  0  0  0  0  0  0  0  0
   -1.6312   -0.1605   -1.3329 O   0  0  0  0  0  0  0  0  0  0  0  0
    0.1808    0.8993   -0.5100 N   0  0  0  0  0  0  0  0  0  0  0  0
    0.6440    1.2084    0.3288 H   0  0  0  0  0  0  0  0  0  0  0  0
    0.7551    1.2957   -1.7968 C   0  0  0  0  0  0  0  0  0  0  0  0
    0.0862    1.9979   -2.2991 H   0  0  0  0  0  0  0  0  0  0  0  0
    1.7251    1.7722   -1.6494 H   0  0  0  0  0  0  0  0  0  0  0  0
    0.8783    0.4193   -2.4368 H   0  0  0  0  0  0  0  0  0  0  0  0
  5  6  2  0  0  0  0
  5  7  1  0  0  0  0
  2  3  1  0  0  0  0
  2  4  1  0  0  0  0
  2  5  1  0  0  0  0
  1  2  1  0  0  0  0
 29 30  2  0  0  0  0
 29 31  1  0  0  0  0
 26 27  1  0  0  0  0
 26 28  1  0  0  0  0
 23 24  1  0  0  0  0
 23 25  1  0  0  0  0
 22 23  1  0  0  0  0
 22 26  1  0  0  0  0
 20 21  1  0  0  0  0
 20 22  2  0  0  0  0
 17 18  1  0  0  0  0
 17 19  1  0  0  0  0
 17 20  1  0  0  0  0
 14 15  1  0  0  0  0
 14 16  1  0  0  0  0
 14 17  1  0  0  0  0
 11 12  1  0  0  0  0
 11 13  1  0  0  0  0
 11 14  1  0  0  0  0
  9 10  1  0  0  0  0
  9 11  1  0  0  0  0
  9 29  1  0  0  0  0
  7  8  1  0  0  0  0
  7  9  1  0  0  0  0
 33 34  1  0  0  0  0
 33 35  1  0  0  0  0
 33 36  1  0  0  0  0
 31 32  1  0  0  0  0
 31 33  1  0  0  0  0
M  CHG  1  20   1
M  END
$$$$
default_name
  -OEChem-01062215323D

 36 35  0     1  0  0  0  0  0999 V2000
   -4.2256   -3.6731    1.8584 H   0  0  0  0  0  0  0  0  0  0  0  0
   -4.2396   -2.6781    1.4144 C   0  0  0  0  0  0  0  0  0  0  0  0
   -4.9506   -2.0521    1.9514 H   0  0  0  0  0  0  0  0  0  0  0  0
   -4.5266   -2.7521    0.3674 H   0  0  0  0  0  0  0  0  0  0  0  0
   -2.8576   -2.0761    1.5184 C   0  0  0  0  0  0  0  0  0  0  0  0
   -1.9456   -2.7051    2.0404 O   0  0  0  0  0  0  0  0  0  0  0  0
   -2.6926   -0.8481    1.0174 N   0  0  0  0  0  0  0  0  0  0  0  0
   -3.4926   -0.3971    0.5954 H   0  0  0  0  0  0  0  0  0  0  0  0
   -1.4216   -0.1071    1.0434 C   0  0  1  0  0  0  0  0  0  0  0  0
   -1.5781    0.8252    1.5885 H   0  0  0  0  0  0  0  0  0  0  0  0
   -0.3782   -0.9544    1.7990 C   0  0  0  0  0  0  0  0  0  0  0  0
   -0.3391   -1.9461    1.3439 H   0  0  0  0  0  0  0  0  0  0  0  0
    0.6049   -0.4917    1.6886 H   0  0  0  0  0  0  0  0  0  0  0  0
   -0.6921   -1.1212    3.2930 C   0  0  0  0  0  0  0  0  0  0  0  0
   -0.7254   -0.1428    3.7744 H   0  0  0  0  0  0  0  0  0  0  0  0
   -1.6596   -1.6114    3.4058 H   0  0  0  0  0  0  0  0  0  0  0  0
    0.3936   -1.9743    3.9629 C   0  0  0  0  0  0  0  0  0  0  0  0
    0.4382   -2.9418    3.4575 H   0  0  0  0  0  0  0  0  0  0  0  0
    1.3552   -1.4697    3.8437 H   0  0  0  0  0  0  0  0  0  0  0  0
    0.1194   -2.1813    5.3998 N   0  3  0  0  0  0  0  0  0  0  0  0
   -0.6904   -1.7189    5.7763 H   0  0  0  0  0  0  0  0  0  0  0  0
    0.8362   -2.9152    6.2345 C   0  0  0  0  0  0  0  0  0  0  0  0
    1.9045   -3.5565    5.8515 N   0  0  0  0  0  0  0  0  0  0  0  0
    2.1897   -3.4908    4.8904 H   0  0  0  0  0  0  0  0  0  0  0  0
    2.4374   -4.1088    6.4979 H   0  0  0  0  0  0  0  0  0  0  0  0
    0.4897   -3.0192    7.4861 N   0  0  0  0  0  0  0  0  0  0  0  0
   -0.3270   -2.5430    7.8284 H   0  0  0  0  0  0  0  0  0  0  0  0
    1.0363   -3.5771    8.1159 H   0  0  0  0  0  0  0  0  0  0  0  0
   -0.9654    0.2240   -0.3790 C   0  0  0  0  0  0  0  0  0  0  0  0
   -1.7483    0.0909   -1.3119 O   0  0  0  0  0  0  0  0  0  0  0  0
    0.3030    0.6151   -0.5370 N   0  0  0  0  0  0  0  0  0  0  0  0
    0.8660    0.7332    0.2894 H   0  0  0  0  0  0  0  0  0  0  0  0
    0.8958    0.9699   -1.8276 C   0  0  0  0  0  0  0  0  0  0  0  0
    0.3948    1.8509   -2.2344 H   0  0  0  0  0  0  0  0  0  0  0  0
    1.9583    1.1872   -1.7109 H   0  0  0  0  0  0  0  0  0  0  0  0
    0.7726    0.1463   -2.5342 H   0  0  0  0  0  0  0  0  0  0  0  0
  5  6  2  0  0  0  0
  5  7  1  0  0  0  0
  2  3  1  0  0  0  0
  2  4  1  0  0  0  0
  2  5  1  0  0  0  0
  1  2  1  0  0  0  0
 29 30  2  0  0  0  0
 29 31  1  0  0  0  0
 26 27  1  0  0  0  0
 26 28  1  0  0  0  0
 23 24  1  0  0  0  0
 23 25  1  0  0  0  0
 22 23  1  0  0  0  0
 22 26  1  0  0  0  0
 20 21  1  0  0  0  0
 20 22  2  0  0  0  0
 17 18  1  0  0  0  0
 17 19  1  0  0  0  0
 17 20  1  0  0  0  0
 14 15  1  0  0  0  0
 14 16  1  0  0  0  0
 14 17  1  0  0  0  0
 11 12  1  0  0  0  0
 11 13  1  0  0  0  0
 11 14  1  0  0  0  0
  9 10  1  0  0  0  0
  9 11  1  0  0  0  0
  9 29  1  0  0  0  0
  7  8  1  0  0  0  0
  7  9  1  0  0  0  0
 33 34  1  0  0  0  0
 33 35  1  0  0  0  0
 33 36  1  0  0  0  0
 31 32  1  0  0  0  0
 31 33  1  0  0  0  0
M  CHG  1  20   1
M  END
$$$$
default_name
  -OEChem-01062215323D

 36 35  0     1  0  0  0  0  0999 V2000
   -4.2256   -3.6731    1.8584 H   0  0  0  0  0  0  0  0  0  0  0  0
   -4.2396   -2.6781    1.4144 C   0  0  0  0  0  0  0  0  0  0  0  0
   -4.9506   -2.0521    1.9514 H   0  0  0  0  0  0  0  0  0  0  0  0
   -4.5266   -2.7521    0.3674 H   0  0  0  0  0  0  0  0  0  0  0  0
   -2.8576   -2.0761    1.5184 C   0  0  0  0  0  0  0  0  0  0  0  0
   -1.9456   -2.7051    2.0404 O   0  0  0  0  0  0  0  0  0  0  0  0
   -2.6926   -0.8481    1.0174 N   0  0  0  0  0  0  0  0  0  0  0  0
   -3.4926   -0.3971    0.5954 H   0  0  0  0  0  0  0  0  0  0  0  0
   -1.4216   -0.1071    1.0434 C   0  0  1  0  0  0  0  0  0  0  0  0
   -1.5781    0.8252    1.5885 H   0  0  0  0  0  0  0  0  0  0  0  0
   -0.3782   -0.9544    1.7990 C   0  0  0  0  0  0  0  0  0  0  0  0
   -0.3391   -1.9461    1.3439 H   0  0  0  0  0  0  0  0  0  0  0  0
    0.6049   -0.4917    1.6886 H   0  0  0  0  0  0  0  0  0  0  0  0
   -0.6921   -1.1212    3.2930 C   0  0  0  0  0  0  0  0  0  0  0  0
   -0.7254   -0.1428    3.7744 H   0  0  0  0  0  0  0  0  0  0  0  0
   -1.6596   -1.6114    3.4058 H   0  0  0  0  0  0  0  0  0  0  0  0
    0.3936   -1.9743    3.9629 C   0  0  0  0  0  0  0  0  0  0  0  0
    0.4382   -2.9418    3.4575 H   0  0  0  0  0  0  0  0  0  0  0  0
    1.3552   -1.4697    3.8437 H   0  0  0  0  0  0  0  0  0  0  0  0
    0.1194   -2.1813    5.3998 N   0  3  0  0  0  0  0  0  0  0  0  0
   -0.6904   -1.7189    5.7763 H   0  0  0  0  0  0  0  0  0  0  0  0
    0.8362   -2.9152    6.2345 C   0  0  0  0  0  0  0  0  0  0  0  0
    1.9045   -3.5565    5.8515 N   0  0  0  0  0  0  0  0  0  0  0  0
    2.1897   -3.4908    4.8904 H   0  0  0  0  0  0  0  0  0  0  0  0
    2.4374   -4.1088    6.4979 H   0  0  0  0  0  0  0  0  0  0  0  0
    0.4897   -3.0192    7.4861 N   0  0  0  0  0  0  0  0  0  0  0  0
   -0.3270   -2.5430    7.8284 H   0  0  0  0  0  0  0  0  0  0  0  0
    1.0363   -3.5771    8.1159 H   0  0  0  0  0  0  0  0  0  0  0  0
   -0.9654    0.2240   -0.3790 C   0  0  0  0  0  0  0  0  0  0  0  0
   -1.7998    0.3603   -1.2657 O   0  0  0  0  0  0  0  0  0  0  0  0
    0.3513    0.3133   -0.5918 N   0  0  0  0  0  0  0  0  0  0  0  0
    0.9640    0.2239    0.2022 H   0  0  0  0  0  0  0  0  0  0  0  0
    0.9517    0.6236   -1.8903 C   0  0  0  0  0  0  0  0  0  0  0  0
    0.6612    1.6297   -2.2004 H   0  0  0  0  0  0  0  0  0  0  0  0
    2.0394    0.5708   -1.8284 H   0  0  0  0  0  0  0  0  0  0  0  0
    0.5994   -0.0845   -2.6435 H   0  0  0  0  0  0  0  0  0  0  0  0
  5  6  2  0  0  0  0
  5  7  1  0  0  0  0
  2  3  1  0  0  0  0
  2  4  1  0  0  0  0
  2  5  1  0  0  0  0
  1  2  1  0  0  0  0
 29 30  2  0  0  0  0
 29 31  1  0  0  0  0
 26 27  1  0  0  0  0
 26 28  1  0  0  0  0
 23 24  1  0  0  0  0
 23 25  1  0  0  0  0
 22 23  1  0  0  0  0
 22 26  1  0  0  0  0
 20 21  1  0  0  0  0
 20 22  2  0  0  0  0
 17 18  1  0  0  0  0
 17 19  1  0  0  0  0
 17 20  1  0  0  0  0
 14 15  1  0  0  0  0
 14 16  1  0  0  0  0
 14 17  1  0  0  0  0
 11 12  1  0  0  0  0
 11 13  1  0  0  0  0
 11 14  1  0  0  0  0
  9 10  1  0  0  0  0
  9 11  1  0  0  0  0
  9 29  1  0  0  0  0
  7  8  1  0  0  0  0
  7  9  1  0  0  0  0
 33 34  1  0  0  0  0
 33 35  1  0  0  0  0
 33 36  1  0  0  0  0
 31 32  1  0  0  0  0
 31 33  1  0  0  0  0
M  CHG  1  20   1
M  END
$$$$
default_name
  -OEChem-01062215323D

 36 35  0     1  0  0  0  0  0999 V2000
   -4.2256   -3.6731    1.8584 H   0  0  0  0  0  0  0  0  0  0  0  0
   -4.2396   -2.6781    1.4144 C   0  0  0  0  0  0  0  0  0  0  0  0
   -4.9506   -2.0521    1.9514 H   0  0  0  0  0  0  0  0  0  0  0  0
   -4.5266   -2.7521    0.3674 H   0  0  0  0  0  0  0  0  0  0  0  0
   -2.8576   -2.0761    1.5184 C   0  0  0  0  0  0  0  0  0  0  0  0
   -1.9456   -2.7051    2.0404 O   0  0  0  0  0  0  0  0  0  0  0  0
   -2.6926   -0.8481    1.0174 N   0  0  0  0  0  0  0  0  0  0  0  0
   -3.4926   -0.3971    0.5954 H   0  0  0  0  0  0  0  0  0  0  0  0
   -1.4216   -0.1071    1.0434 C   0  0  1  0  0  0  0  0  0  0  0  0
   -1.5781    0.8252    1.5885 H   0  0  0  0  0  0  0  0  0  0  0  0
   -0.3782   -0.9544    1.7990 C   0  0  0  0  0  0  0  0  0  0  0  0
   -0.3391   -1.9461    1.3439 H   0  0  0  0  0  0  0  0  0  0  0  0
    0.6049   -0.4917    1.6886 H   0  0  0  0  0  0  0  0  0  0  0  0
   -0.6921   -1.1212    3.2930 C   0  0  0  0  0  0  0  0  0  0  0  0
   -0.7254   -0.1428    3.7744 H   0  0  0  0  0  0  0  0  0  0  0  0
   -1.6596   -1.6114    3.4058 H   0  0  0  0  0  0  0  0  0  0  0  0
    0.3936   -1.9743    3.9629 C   0  0  0  0  0  0  0  0  0  0  0  0
    0.4382   -2.9418    3.4575 H   0  0  0  0  0  0  0  0  0  0  0  0
    1.3552   -1.4697    3.8437 H   0  0  0  0  0  0  0  0  0  0  0  0
    0.1194   -2.1813    5.3998 N   0  3  0  0  0  0  0  0  0  0  0  0
   -0.6904   -1.7189    5.7763 H   0  0  0  0  0  0  0  0  0  0  0  0
    0.8362   -2.9152    6.2345 C   0  0  0  0  0  0  0  0  0  0  0  0
    1.9045   -3.5565    5.8515 N   0  0  0  0  0  0  0  0  0  0  0  0
    2.1897   -3.4908    4.8904 H   0  0  0  0  0  0  0  0  0  0  0  0
    2.4374   -4.1088    6.4979 H   0  0  0  0  0  0  0  0  0  0  0  0
    0.4897   -3.0192    7.4861 N   0  0  0  0  0  0  0  0  0  0  0  0
   -0.3270   -2.5430    7.8284 H   0  0  0  0  0  0  0  0  0  0  0  0
    1.0363   -3.5771    8.1159 H   0  0  0  0  0  0  0  0  0  0  0  0
   -0.9654    0.2240   -0.3790 C   0  0  0  0  0  0  0  0  0  0  0  0
   -1.7821    0.6293   -1.1974 O   0  0  0  0  0  0  0  0  0  0  0  0
    0.3221    0.0144   -0.6707 N   0  0  0  0  0  0  0  0  0  0  0  0
    0.9311   -0.2849    0.0732 H   0  0  0  0  0  0  0  0  0  0  0  0
    0.9188    0.2806   -1.9807 C   0  0  0  0  0  0  0  0  0  0  0  0
    0.8672    1.3492   -2.1997 H   0  0  0  0  0  0  0  0  0  0  0  0
    1.9628   -0.0351   -1.9940 H   0  0  0  0  0  0  0  0  0  0  0  0
    0.3705   -0.2573   -2.7572 H   0  0  0  0  0  0  0  0  0  0  0  0
  5  6  2  0  0  0  0
  5  7  1  0  0  0  0
  2  3  1  0  0  0  0
  2  4  1  0  0  0  0
  2  5  1  0  0  0  0
  1  2  1  0  0  0  0
 29 30  2  0  0  0  0
 29 31  1  0  0  0  0
 26 27  1  0  0  0  0
 26 28  1  0  0  0  0
 23 24  1  0  0  0  0
 23 25  1  0  0  0  0
 22 23  1  0  0  0  0
 22 26  1  0  0  0  0
 20 21  1  0  0  0  0
 20 22  2  0  0  0  0
 17 18  1  0  0  0  0
 17 19  1  0  0  0  0
 17 20  1  0  0  0  0
 14 15  1  0  0  0  0
 14 16  1  0  0  0  0
 14 17  1  0  0  0  0
 11 12  1  0  0  0  0
 11 13  1  0  0  0  0
 11 14  1  0  0  0  0
  9 10  1  0  0  0  0
  9 11  1  0  0  0  0
  9 29  1  0  0  0  0
  7  8  1  0  0  0  0
  7  9  1  0  0  0  0
 33 34  1  0  0  0  0
 33 35  1  0  0  0  0
 33 36  1  0  0  0  0
 31 32  1  0  0  0  0
 31 33  1  0  0  0  0
M  CHG  1  20   1
M  END
$$$$
default_name
  -OEChem-01062215323D

 36 35  0     1  0  0  0  0  0999 V2000
   -4.2256   -3.6731    1.8584 H   0  0  0  0  0  0  0  0  0  0  0  0
   -4.2396   -2.6781    1.4144 C   0  0  0  0  0  0  0  0  0  0  0  0
   -4.9506   -2.0521    1.9514 H   0  0  0  0  0  0  0  0  0  0  0  0
   -4.5266   -2.7521    0.3674 H   0  0  0  0  0  0  0  0  0  0  0  0
   -2.8576   -2.0761    1.5184 C   0  0  0  0  0  0  0  0  0  0  0  0
   -1.9456   -2.7051    2.0404 O   0  0  0  0  0  0  0  0  0  0  0  0
   -2.6926   -0.8481    1.0174 N   0  0  0  0  0  0  0  0  0  0  0  0
   -3.4926   -0.3971    0.5954 H   0  0  0  0  0  0  0  0  0  0  0  0
   -1.4216   -0.1071    1.0434 C   0  0  1  0  0  0  0  0  0  0  0  0
   -1.5781    0.8252    1.5885 H   0  0  0  0  0  0  0  0  0  0  0  0
   -0.3782   -0.9544    1.7990 C   0  0  0  0  0  0  0  0  0  0  0  0
   -0.3391   -1.9461    1.3439 H   0  0  0  0  0  0  0  0  0  0  0  0
    0.6049   -0.4917    1.6886 H   0  0  0  0  0  0  0  0  0  0  0  0
   -0.6921   -1.1212    3.2930 C   0  0  0  0  0  0  0  0  0  0  0  0
   -0.7254   -0.1428    3.7744 H   0  0  0  0  0  0  0  0  0  0  0  0
   -1.6596   -1.6114    3.4058 H   0  0  0  0  0  0  0  0  0  0  0  0
    0.3936   -1.9743    3.9629 C   0  0  0  0  0  0  0  0  0  0  0  0
    0.4382   -2.9418    3.4575 H   0  0  0  0  0  0  0  0  0  0  0  0
    1.3552   -1.4697    3.8437 H   0  0  0  0  0  0  0  0  0  0  0  0
    0.1194   -2.1813    5.3998 N   0  3  0  0  0  0  0  0  0  0  0  0
   -0.6904   -1.7189    5.7763 H   0  0  0  0  0  0  0  0  0  0  0  0
    0.8362   -2.9152    6.2345 C   0  0  0  0  0  0  0  0  0  0  0  0
    1.9045   -3.5565    5.8515 N   0  0  0  0  0  0  0  0  0  0  0  0
    2.1897   -3.4908    4.8904 H   0  0  0  0  0  0  0  0  0  0  0  0
    2.4374   -4.1088    6.4979 H   0  0  0  0  0  0  0  0  0  0  0  0
    0.4897   -3.0192    7.4861 N   0  0  0  0  0  0  0  0  0  0  0  0
   -0.3270   -2.5430    7.8284 H   0  0  0  0  0  0  0  0  0  0  0  0
    1.0363   -3.5771    8.1159 H   0  0  0  0  0  0  0  0  0  0  0  0
   -0.9654    0.2240   -0.3790 C   0  0  0  0  0  0  0  0  0  0  0  0
   -1.6964    0.8796   -1.1117 O   0  0  0  0  0  0  0  0  0  0  0  0
    0.2177   -0.2613   -0.7684 N   0  0  0  0  0  0  0  0  0  0  0  0
    0.7697   -0.7585   -0.0888 H   0  0  0  0  0  0  0  0  0  0  0  0
    0.7994   -0.0359   -2.0926 C   0  0  0  0  0  0  0  0  0  0  0  0
    0.9987    1.0288   -2.2321 H   0  0  0  0  0  0  0  0  0  0  0  0
    1.7337   -0.5891   -2.1964 H   0  0  0  0  0  0  0  0  0  0  0  0
    0.1014   -0.3603   -2.8675 H   0  0  0  0  0  0  0  0  0  0  0  0
  5  6  2  0  0  0  0
  5  7  1  0  0  0  0
  2  3  1  0  0  0  0
  2  4  1  0  0  0  0
  2  5  1  0  0  0  0
  1  2  1  0  0  0  0
 29 30  2  0  0  0  0
 29 31  1  0  0  0  0
 26 27  1  0  0  0  0
 26 28  1  0  0  0  0
 23 24  1  0  0  0  0
 23 25  1  0  0  0  0
 22 23  1  0  0  0  0
 22 26  1  0  0  0  0
 20 21  1  0  0  0  0
 20 22  2  0  0  0  0
 17 18  1  0  0  0  0
 17 19  1  0  0  0  0
 17 20  1  0  0  0  0
 14 15  1  0  0  0  0
 14 16  1  0  0  0  0
 14 17  1  0  0  0  0
 11 12  1  0  0  0  0
 11 13  1  0  0  0  0
 11 14  1  0  0  0  0
  9 10  1  0  0  0  0
  9 11  1  0  0  0  0
  9 29  1  0  0  0  0
  7  8  1  0  0  0  0
  7  9  1  0  0  0  0
 33 34  1  0  0  0  0
 33 35  1  0  0  0  0
 33 36  1  0  0  0  0
 31 32  1  0  0  0  0
 31 33  1  0  0  0  0
M  CHG  1  20   1
M  END
$$$$
default_name
  -OEChem-01062215323D

 36 35  0     1  0  0  0  0  0999 V2000
   -4.2256   -3.6731    1.8584 H   0  0  0  0  0  0  0  0  0  0  0  0
   -4.2396   -2.6781    1.4144 C   0  0  0  0  0  0  0  0  0  0  0  0
   -4.9506   -2.0521    1.9514 H   0  0  0  0  0  0  0  0  0  0  0  0
   -4.5266   -2.7521    0.3674 H   0  0  0  0  0  0  0  0  0  0  0  0
   -2.8576   -2.0761    1.5184 C   0  0  0  0  0  0  0  0  0  0  0  0
   -1.9456   -2.7051    2.0404 O   0  0  0  0  0  0  0  0  0  0  0  0
   -2.6926   -0.8481    1.0174 N   0  0  0  0  0  0  0  0  0  0  0  0
   -3.4926   -0.3971    0.5954 H   0  0  0  0  0  0  0  0  0  0  0  0
   -1.4216   -0.1071    1.0434 C   0  0  1  0  0  0  0  0  0  0  0  0
   -1.5781    0.8252    1.5885 H   0  0  0  0  0  0  0  0  0  0  0  0
   -0.3782   -0.9544    1.7990 C   0  0  0  0  0  0  0  0  0  0  0  0
   -0.3391   -1.9461    1.3439 H   0  0  0  0  0  0  0  0  0  0  0  0
    0.6049   -0.4917    1.6886 H   0  0  0  0  0  0  0  0  0  0  0  0
   -0.6921   -1.1212    3.2930 C   0  0  0  0  0  0  0  0  0  0  0  0
   -0.7254   -0.1428    3.7744 H   0  0  0  0  0  0  0  0  0  0  0  0
   -1.6596   -1.6114    3.4058 H   0  0  0  0  0  0  0  0  0  0  0  0
    0.3936   -1.9743    3.9629 C   0  0  0  0  0  0  0  0  0  0  0  0
    0.4382   -2.9418    3.4575 H   0  0  0  0  0  0  0  0  0  0  0  0
    1.3552   -1.4697    3.8437 H   0  0  0  0  0  0  0  0  0  0  0  0
    0.1194   -2.1813    5.3998 N   0  3  0  0  0  0  0  0  0  0  0  0
   -0.6904   -1.7189    5.7763 H   0  0  0  0  0  0  0  0  0  0  0  0
    0.8362   -2.9152    6.2345 C   0  0  0  0  0  0  0  0  0  0  0  0
    1.9045   -3.5565    5.8515 N   0  0  0  0  0  0  0  0  0  0  0  0
    2.1897   -3.4908    4.8904 H   0  0  0  0  0  0  0  0  0  0  0  0
    2.4374   -4.1088    6.4979 H   0  0  0  0  0  0  0  0  0  0  0  0
    0.4897   -3.0192    7.4861 N   0  0  0  0  0  0  0  0  0  0  0  0
   -0.3270   -2.5430    7.8284 H   0  0  0  0  0  0  0  0  0  0  0  0
    1.0363   -3.5771    8.1159 H   0  0  0  0  0  0  0  0  0  0  0  0
   -0.9654    0.2240   -0.3790 C   0  0  0  0  0  0  0  0  0  0  0  0
   -1.5487    1.0942   -1.0144 O   0  0  0  0  0  0  0  0  0  0  0  0
    0.0450   -0.4948   -0.8782 N   0  0  0  0  0  0  0  0  0  0  0  0
    0.4908   -1.1647   -0.2728 H   0  0  0  0  0  0  0  0  0  0  0  0
    0.6017   -0.3042   -2.2185 C   0  0  0  0  0  0  0  0  0  0  0  0
    1.0468    0.6901   -2.2955 H   0  0  0  0  0  0  0  0  0  0  0  0
    1.3679   -1.0535   -2.4219 H   0  0  0  0  0  0  0  0  0  0  0  0
   -0.1895   -0.3865   -2.9669 H   0  0  0  0  0  0  0  0  0  0  0  0
  5  6  2  0  0  0  0
  5  7  1  0  0  0  0
  2  3  1  0  0  0  0
  2  4  1  0  0  0  0
  2  5  1  0  0  0  0
  1  2  1  0  0  0  0
 29 30  2  0  0  0  0
 29 31  1  0  0  0  0
 26 27  1  0  0  0  0
 26 28  1  0  0  0  0
 23 24  1  0  0  0  0
 23 25  1  0  0  0  0
 22 23  1  0  0  0  0
 22 26  1  0  0  0  0
 20 21  1  0  0  0  0
 20 22  2  0  0  0  0
 17 18  1  0  0  0  0
 17 19  1  0  0  0  0
 17 20  1  0  0  0  0
 14 15  1  0  0  0  0
 14 16  1  0  0  0  0
 14 17  1  0  0  0  0
 11 12  1  0  0  0  0
 11 13  1  0  0  0  0
 11 14  1  0  0  0  0
  9 10  1  0  0  0  0
  9 11  1  0  0  0  0
  9 29  1  0  0  0  0
  7  8  1  0  0  0  0
  7  9  1  0  0  0  0
 33 34  1  0  0  0  0
 33 35  1  0  0  0  0
 33 36  1  0  0  0  0
 31 32  1  0  0  0  0
 31 33  1  0  0  0  0
M  CHG  1  20   1
M  END
$$$$
default_name
  -OEChem-01062215323D

 36 35  0     1  0  0  0  0  0999 V2000
   -4.2256   -3.6731    1.8584 H   0  0  0  0  0  0  0  0  0  0  0  0
   -4.2396   -2.6781    1.4144 C   0  0  0  0  0  0  0  0  0  0  0  0
   -4.9506   -2.0521    1.9514 H   0  0  0  0  0  0  0  0  0  0  0  0
   -4.5266   -2.7521    0.3674 H   0  0  0  0  0  0  0  0  0  0  0  0
   -2.8576   -2.0761    1.5184 C   0  0  0  0  0  0  0  0  0  0  0  0
   -1.9456   -2.7051    2.0404 O   0  0  0  0  0  0  0  0  0  0  0  0
   -2.6926   -0.8481    1.0174 N   0  0  0  0  0  0  0  0  0  0  0  0
   -3.4926   -0.3971    0.5954 H   0  0  0  0  0  0  0  0  0  0  0  0
   -1.4216   -0.1071    1.0434 C   0  0  1  0  0  0  0  0  0  0  0  0
   -1.5781    0.8252    1.5885 H   0  0  0  0  0  0  0  0  0  0  0  0
   -0.3782   -0.9544    1.7990 C   0  0  0  0  0  0  0  0  0  0  0  0
   -0.3391   -1.9461    1.3439 H   0  0  0  0  0  0  0  0  0  0  0  0
    0.6049   -0.4917    1.6886 H   0  0  0  0  0  0  0  0  0  0  0  0
   -0.6921   -1.1212    3.2930 C   0  0  0  0  0  0  0  0  0  0  0  0
   -0.7254   -0.1428    3.7744 H   0  0  0  0  0  0  0  0  0  0  0  0
   -1.6596   -1.6114    3.4058 H   0  0  0  0  0  0  0  0  0  0  0  0
    0.3936   -1.9743    3.9629 C   0  0  0  0  0  0  0  0  0  0  0  0
    0.4382   -2.9418    3.4575 H   0  0  0  0  0  0  0  0  0  0  0  0
    1.3552   -1.4697    3.8437 H   0  0  0  0  0  0  0  0  0  0  0  0
    0.1194   -2.1813    5.3998 N   0  3  0  0  0  0  0  0  0  0  0  0
   -0.6904   -1.7189    5.7763 H   0  0  0  0  0  0  0  0  0  0  0  0
    0.8362   -2.9152    6.2345 C   0  0  0  0  0  0  0  0  0  0  0  0
    1.9045   -3.5565    5.8515 N   0  0  0  0  0  0  0  0  0  0  0  0
    2.1897   -3.4908    4.8904 H   0  0  0  0  0  0  0  0  0  0  0  0
    2.4374   -4.1088    6.4979 H   0  0  0  0  0  0  0  0  0  0  0  0
    0.4897   -3.0192    7.4861 N   0  0  0  0  0  0  0  0  0  0  0  0
   -0.3270   -2.5430    7.8284 H   0  0  0  0  0  0  0  0  0  0  0  0
    1.0363   -3.5771    8.1159 H   0  0  0  0  0  0  0  0  0  0  0  0
   -0.9654    0.2240   -0.3790 C   0  0  0  0  0  0  0  0  0  0  0  0
   -1.3489    1.2584   -0.9121 O   0  0  0  0  0  0  0  0  0  0  0  0
   -0.1842   -0.6704   -0.9926 N   0  0  0  0  0  0  0  0  0  0  0  0
    0.1133   -1.4756   -0.4663 H   0  0  0  0  0  0  0  0  0  0  0  0
    0.3391   -0.5061   -2.3497 C   0  0  0  0  0  0  0  0  0  0  0  0
    1.0083    0.3562   -2.3856 H   0  0  0  0  0  0  0  0  0  0  0  0
    0.8901   -1.3966   -2.6550 H   0  0  0  0  0  0  0  0  0  0  0  0
   -0.4824   -0.3342   -3.0486 H   0  0  0  0  0  0  0  0  0  0  0  0
  5  6  2  0  0  0  0
  5  7  1  0  0  0  0
  2  3  1  0  0  0  0
  2  4  1  0  0  0  0
  2  5  1  0  0  0  0
  1  2  1  0  0  0  0
 29 30  2  0  0  0  0
 29 31  1  0  0  0  0
 26 27  1  0  0  0  0
 26 28  1  0  0  0  0
 23 24  1  0  0  0  0
 23 25  1  0  0  0  0
 22 23  1  0  0  0  0
 22 26  1  0  0  0  0
 20 21  1  0  0  0  0
 20 22  2  0  0  0  0
 17 18  1  0  0  0  0
 17 19  1  0  0  0  0
 17 20  1  0  0  0  0
 14 15  1  0  0  0  0
 14 16  1  0  0  0  0
 14 17  1  0  0  0  0
 11 12  1  0  0  0  0
 11 13  1  0  0  0  0
 11 14  1  0  0  0  0
  9 10  1  0  0  0  0
  9 11  1  0  0  0  0
  9 29  1  0  0  0  0
  7  8  1  0  0  0  0
  7  9  1  0  0  0  0
 33 34  1  0  0  0  0
 33 35  1  0  0  0  0
 33 36  1  0  0  0  0
 31 32  1  0  0  0  0
 31 33  1  0  0  0  0
M  CHG  1  20   1
M  END
$$$$
default_name
  -OEChem-01062215323D

 36 35  0     1  0  0  0  0  0999 V2000
   -4.2256   -3.6731    1.8584 H   0  0  0  0  0  0  0  0  0  0  0  0
   -4.2396   -2.6781    1.4144 C   0  0  0  0  0  0  0  0  0  0  0  0
   -4.9506   -2.0521    1.9514 H   0  0  0  0  0  0  0  0  0  0  0  0
   -4.5266   -2.7521    0.3674 H   0  0  0  0  0  0  0  0  0  0  0  0
   -2.8576   -2.0761    1.5184 C   0  0  0  0  0  0  0  0  0  0  0  0
   -1.9456   -2.7051    2.0404 O   0  0  0  0  0  0  0  0  0  0  0  0
   -2.6926   -0.8481    1.0174 N   0  0  0  0  0  0  0  0  0  0  0  0
   -3.4926   -0.3971    0.5954 H   0  0  0  0  0  0  0  0  0  0  0  0
   -1.4216   -0.1071    1.0434 C   0  0  1  0  0  0  0  0  0  0  0  0
   -1.5781    0.8252    1.5885 H   0  0  0  0  0  0  0  0  0  0  0  0
   -0.3782   -0.9544    1.7990 C   0  0  0  0  0  0  0  0  0  0  0  0
   -0.3391   -1.9461    1.3439 H   0  0  0  0  0  0  0  0  0  0  0  0
    0.6049   -0.4917    1.6886 H   0  0  0  0  0  0  0  0  0  0  0  0
   -0.6921   -1.1212    3.2930 C   0  0  0  0  0  0  0  0  0  0  0  0
   -0.7254   -0.1428    3.7744 H   0  0  0  0  0  0  0  0  0  0  0  0
   -1.6596   -1.6114    3.4058 H   0  0  0  0  0  0  0  0  0  0  0  0
    0.3936   -1.9743    3.9629 C   0  0  0  0  0  0  0  0  0  0  0  0
    0.4382   -2.9418    3.4575 H   0  0  0  0  0  0  0  0  0  0  0  0
    1.3552   -1.4697    3.8437 H   0  0  0  0  0  0  0  0  0  0  0  0
    0.1194   -2.1813    5.3998 N   0  3  0  0  0  0  0  0  0  0  0  0
   -0.6904   -1.7189    5.7763 H   0  0  0  0  0  0  0  0  0  0  0  0
    0.8362   -2.9152    6.2345 C   0  0  0  0  0  0  0  0  0  0  0  0
    1.9045   -3.5565    5.8515 N   0  0  0  0  0  0  0  0  0  0  0  0
    2.1897   -3.4908    4.8904 H   0  0  0  0  0  0  0  0  0  0  0  0
    2.4374   -4.1088    6.4979 H   0  0  0  0  0  0  0  0  0  0  0  0
    0.4897   -3.0192    7.4861 N   0  0  0  0  0  0  0  0  0  0  0  0
   -0.3270   -2.5430    7.8284 H   0  0  0  0  0  0  0  0  0  0  0  0
    1.0363   -3.5771    8.1159 H   0  0  0  0  0  0  0  0  0  0  0  0
   -0.9654    0.2240   -0.3790 C   0  0  0  0  0  0  0  0  0  0  0  0
   -1.1107    1.3610   -0.8118 O   0  0  0  0  0  0  0  0  0  0  0  0
   -0.4542   -0.7761   -1.1037 N   0  0  0  0  0  0  0  0  0  0  0  0
   -0.3369   -1.6703   -0.6560 H   0  0  0  0  0  0  0  0  0  0  0  0
    0.0296   -0.6278   -2.4774 C   0  0  0  0  0  0  0  0  0  0  0  0
    0.8856    0.0500   -2.4962 H   0  0  0  0  0  0  0  0  0  0  0  0
    0.3330   -1.5951   -2.8799 H   0  0  0  0  0  0  0  0  0  0  0  0
   -0.7573   -0.2069   -3.1071 H   0  0  0  0  0  0  0  0  0  0  0  0
  5  6  2  0  0  0  0
  5  7  1  0  0  0  0
  2  3  1  0  0  0  0
  2  4  1  0  0  0  0
  2  5  1  0  0  0  0
  1  2  1  0  0  0  0
 29 30  2  0  0  0  0
 29 31  1  0  0  0  0
 26 27  1  0  0  0  0
 26 28  1  0  0  0  0
 23 24  1  0  0  0  0
 23 25  1  0  0  0  0
 22 23  1  0  0  0  0
 22 26  1  0  0  0  0
 20 21  1  0  0  0  0
 20 22  2  0  0  0  0
 17 18  1  0  0  0  0
 17 19  1  0  0  0  0
 17 20  1  0  0  0  0
 14 15  1  0  0  0  0
 14 16  1  0  0  0  0
 14 17  1  0  0  0  0
 11 12  1  0  0  0  0
 11 13  1  0  0  0  0
 11 14  1  0  0  0  0
  9 10  1  0  0  0  0
  9 11  1  0  0  0  0
  9 29  1  0  0  0  0
  7  8  1  0  0  0  0
  7  9  1  0  0  0  0
 33 34  1  0  0  0  0
 33 35  1  0  0  0  0
 33 36  1  0  0  0  0
 31 32  1  0  0  0  0
 31 33  1  0  0  0  0
M  CHG  1  20   1
M  END
$$$$
default_name
  -OEChem-01062215323D

 36 35  0     1  0  0  0  0  0999 V2000
   -4.2256   -3.6731    1.8584 H   0  0  0  0  0  0  0  0  0  0  0  0
   -4.2396   -2.6781    1.4144 C   0  0  0  0  0  0  0  0  0  0  0  0
   -4.9506   -2.0521    1.9514 H   0  0  0  0  0  0  0  0  0  0  0  0
   -4.5266   -2.7521    0.3674 H   0  0  0  0  0  0  0  0  0  0  0  0
   -2.8576   -2.0761    1.5184 C   0  0  0  0  0  0  0  0  0  0  0  0
   -1.9456   -2.7051    2.0404 O   0  0  0  0  0  0  0  0  0  0  0  0
   -2.6926   -0.8481    1.0174 N   0  0  0  0  0  0  0  0  0  0  0  0
   -3.4926   -0.3971    0.5954 H   0  0  0  0  0  0  0  0  0  0  0  0
   -1.4216   -0.1071    1.0434 C   0  0  1  0  0  0  0  0  0  0  0  0
   -1.5781    0.8252    1.5885 H   0  0  0  0  0  0  0  0  0  0  0  0
   -0.3782   -0.9544    1.7990 C   0  0  0  0  0  0  0  0  0  0  0  0
   -0.3391   -1.9461    1.3439 H   0  0  0  0  0  0  0  0  0  0  0  0
    0.6049   -0.4917    1.6886 H   0  0  0  0  0  0  0  0  0  0  0  0
   -0.6921   -1.1212    3.2930 C   0  0  0  0  0  0  0  0  0  0  0  0
   -0.7254   -0.1428    3.7744 H   0  0  0  0  0  0  0  0  0  0  0  0
   -1.6596   -1.6114    3.4058 H   0  0  0  0  0  0  0  0  0  0  0  0
    0.3936   -1.9743    3.9629 C   0  0  0  0  0  0  0  0  0  0  0  0
    0.4382   -2.9418    3.4575 H   0  0  0  0  0  0  0  0  0  0  0  0
    1.3552   -1.4697    3.8437 H   0  0  0  0  0  0  0  0  0  0  0  0
    0.1194   -2.1813    5.3998 N   0  3  0  0  0  0  0  0  0  0  0  0
   -0.6904   -1.7189    5.7763 H   0  0  0  0  0  0  0  0  0  0  0  0
    0.8362   -2.9152    6.2345 C   0  0  0  0  0  0  0  0  0  0  0  0
    1.9045   -3.5565    5.8515 N   0  0  0  0  0  0  0  0  0  0  0  0
    2.1897   -3.4908    4.8904 H   0  0  0  0  0  0  0  0  0  0  0  0
    2.4374   -4.1088    6.4979 H   0  0  0  0  0  0  0  0  0  0  0  0
    0.4897   -3.0192    7.4861 N   0  0  0  0  0  0  0  0  0  0  0  0
   -0.3270   -2.5430    7.8284 H   0  0  0  0  0  0  0  0  0  0  0  0
    1.0363   -3.5771    8.1159 H   0  0  0  0  0  0  0  0  0  0  0  0
   -0.9654    0.2240   -0.3790 C   0  0  0  0  0  0  0  0  0  0  0  0
   -0.8503    1.3951   -0.7203 O   0  0  0  0  0  0  0  0  0  0  0  0
   -0.7467   -0.8045   -1.2042 N   0  0  0  0  0  0  0  0  0  0  0  0
   -0.8293   -1.7353   -0.8290 H   0  0  0  0  0  0  0  0  0  0  0  0
   -0.3059   -0.6610   -2.5927 C   0  0  0  0  0  0  0  0  0  0  0  0
    0.6873   -0.2077   -2.6199 H   0  0  0  0  0  0  0  0  0  0  0  0
   -0.2655   -1.6354   -3.0812 H   0  0  0  0  0  0  0  0  0  0  0  0
   -0.9955   -0.0133   -3.1384 H   0  0  0  0  0  0  0  0  0  0  0  0
  5  6  2  0  0  0  0
  5  7  1  0  0  0  0
  2  3  1  0  0  0  0
  2  4  1  0  0  0  0
  2  5  1  0  0  0  0
  1  2  1  0  0  0  0
 29 30  2  0  0  0  0
 29 31  1  0  0  0  0
 26 27  1  0  0  0  0
 26 28  1  0  0  0  0
 23 24  1  0  0  0  0
 23 25  1  0  0  0  0
 22 23  1  0  0  0  0
 22 26  1  0  0  0  0
 20 21  1  0  0  0  0
 20 22  2  0  0  0  0
 17 18  1  0  0  0  0
 17 19  1  0  0  0  0
 17 20  1  0  0  0  0
 14 15  1  0  0  0  0
 14 16  1  0  0  0  0
 14 17  1  0  0  0  0
 11 12  1  0  0  0  0
 11 13  1  0  0  0  0
 11 14  1  0  0  0  0
  9 10  1  0  0  0  0
  9 11  1  0  0  0  0
  9 29  1  0  0  0  0
  7  8  1  0  0  0  0
  7  9  1  0  0  0  0
 33 34  1  0  0  0  0
 33 35  1  0  0  0  0
 33 36  1  0  0  0  0
 31 32  1  0  0  0  0
 31 33  1  0  0  0  0
M  CHG  1  20   1
M  END
$$$$
default_name
  -OEChem-01062215323D

 36 35  0     1  0  0  0  0  0999 V2000
   -4.2256   -3.6731    1.8584 H   0  0  0  0  0  0  0  0  0  0  0  0
   -4.2396   -2.6781    1.4144 C   0  0  0  0  0  0  0  0  0  0  0  0
   -4.9506   -2.0521    1.9514 H   0  0  0  0  0  0  0  0  0  0  0  0
   -4.5266   -2.7521    0.3674 H   0  0  0  0  0  0  0  0  0  0  0  0
   -2.8576   -2.0761    1.5184 C   0  0  0  0  0  0  0  0  0  0  0  0
   -1.9456   -2.7051    2.0404 O   0  0  0  0  0  0  0  0  0  0  0  0
   -2.6926   -0.8481    1.0174 N   0  0  0  0  0  0  0  0  0  0  0  0
   -3.4926   -0.3971    0.5954 H   0  0  0  0  0  0  0  0  0  0  0  0
   -1.4216   -0.1071    1.0434 C   0  0  1  0  0  0  0  0  0  0  0  0
   -1.5781    0.8252    1.5885 H   0  0  0  0  0  0  0  0  0  0  0  0
   -0.3782   -0.9544    1.7990 C   0  0  0  0  0  0  0  0  0  0  0  0
   -0.3391   -1.9461    1.3439 H   0  0  0  0  0  0  0  0  0  0  0  0
    0.6049   -0.4917    1.6886 H   0  0  0  0  0  0  0  0  0  0  0  0
   -0.6921   -1.1212    3.2930 C   0  0  0  0  0  0  0  0  0  0  0  0
   -0.7254   -0.1428    3.7744 H   0  0  0  0  0  0  0  0  0  0  0  0
   -1.6596   -1.6114    3.4058 H   0  0  0  0  0  0  0  0  0  0  0  0
    0.3936   -1.9743    3.9629 C   0  0  0  0  0  0  0  0  0  0  0  0
    0.4382   -2.9418    3.4575 H   0  0  0  0  0  0  0  0  0  0  0  0
    1.3552   -1.4697    3.8437 H   0  0  0  0  0  0  0  0  0  0  0  0
    0.1194   -2.1813    5.3998 N   0  3  0  0  0  0  0  0  0  0  0  0
   -0.6904   -1.7189    5.7763 H   0  0  0  0  0  0  0  0  0  0  0  0
    0.8362   -2.9152    6.2345 C   0  0  0  0  0  0  0  0  0  0  0  0
    1.9045   -3.5565    5.8515 N   0  0  0  0  0  0  0  0  0  0  0  0
    2.1897   -3.4908    4.8904 H   0  0  0  0  0  0  0  0  0  0  0  0
    2.4374   -4.1088    6.4979 H   0  0  0  0  0  0  0  0  0  0  0  0
    0.4897   -3.0192    7.4861 N   0  0  0  0  0  0  0  0  0  0  0  0
   -0.3270   -2.5430    7.8284 H   0  0  0  0  0  0  0  0  0  0  0  0
    1.0363   -3.5771    8.1159 H   0  0  0  0  0  0  0  0  0  0  0  0
   -0.9654    0.2240   -0.3790 C   0  0  0  0  0  0  0  0  0  0  0  0
   -0.5854    1.3583   -0.6439 O   0  0  0  0  0  0  0  0  0  0  0  0
   -1.0417   -0.7539   -1.2870 N   0  0  0  0  0  0  0  0  0  0  0  0
   -1.3302   -1.6663   -0.9736 H   0  0  0  0  0  0  0  0  0  0  0  0
   -0.6444   -0.6035   -2.6878 C   0  0  0  0  0  0  0  0  0  0  0  0
    0.4268   -0.3994   -2.7480 H   0  0  0  0  0  0  0  0  0  0  0  0
   -0.8646   -1.5148   -3.2453 H   0  0  0  0  0  0  0  0  0  0  0  0
   -1.1807    0.2334   -3.1404 H   0  0  0  0  0  0  0  0  0  0  0  0
  5  6  2  0  0  0  0
  5  7  1  0  0  0  0
  2  3  1  0  0  0  0
  2  4  1  0  0  0  0
  2  5  1  0  0  0  0
  1  2  1  0  0  0  0
 29 30  2  0  0  0  0
 29 31  1  0  0  0  0
 26 27  1  0  0  0  0
 26 28  1  0  0  0  0
 23 24  1  0  0  0  0
 23 25  1  0  0  0  0
 22 23  1  0  0  0  0
 22 26  1  0  0  0  0
 20 21  1  0  0  0  0
 20 22  2  0  0  0  0
 17 18  1  0  0  0  0
 17 19  1  0  0  0  0
 17 20  1  0  0  0  0
 14 15  1  0  0  0  0
 14 16  1  0  0  0  0
 14 17  1  0  0  0  0
 11 12  1  0  0  0  0
 11 13  1  0  0  0  0
 11 14  1  0  0  0  0
  9 10  1  0  0  0  0
  9 11  1  0  0  0  0
  9 29  1  0  0  0  0
  7  8  1  0  0  0  0
  7  9  1  0  0  0  0
 33 34  1  0  0  0  0
 33 35  1  0  0  0  0
 33 36  1  0  0  0  0
 31 32  1  0  0  0  0
 31 33  1  0  0  0  0
M  CHG  1  20   1
M  END
$$$$
default_name
  -OEChem-01062215323D

 36 35  0     1  0  0  0  0  0999 V2000
   -4.2256   -3.6731    1.8584 H   0  0  0  0  0  0  0  0  0  0  0  0
   -4.2396   -2.6781    1.4144 C   0  0  0  0  0  0  0  0  0  0  0  0
   -4.9506   -2.0521    1.9514 H   0  0  0  0  0  0  0  0  0  0  0  0
   -4.5266   -2.7521    0.3674 H   0  0  0  0  0  0  0  0  0  0  0  0
   -2.8576   -2.0761    1.5184 C   0  0  0  0  0  0  0  0  0  0  0  0
   -1.9456   -2.7051    2.0404 O   0  0  0  0  0  0  0  0  0  0  0  0
   -2.6926   -0.8481    1.0174 N   0  0  0  0  0  0  0  0  0  0  0  0
   -3.4926   -0.3971    0.5954 H   0  0  0  0  0  0  0  0  0  0  0  0
   -1.4216   -0.1071    1.0434 C   0  0  1  0  0  0  0  0  0  0  0  0
   -1.5781    0.8252    1.5885 H   0  0  0  0  0  0  0  0  0  0  0  0
   -0.3782   -0.9544    1.7990 C   0  0  0  0  0  0  0  0  0  0  0  0
   -0.3391   -1.9461    1.3439 H   0  0  0  0  0  0  0  0  0  0  0  0
    0.6049   -0.4917    1.6886 H   0  0  0  0  0  0  0  0  0  0  0  0
   -0.6921   -1.1212    3.2930 C   0  0  0  0  0  0  0  0  0  0  0  0
   -0.7254   -0.1428    3.7744 H   0  0  0  0  0  0  0  0  0  0  0  0
   -1.6596   -1.6114    3.4058 H   0  0  0  0  0  0  0  0  0  0  0  0
    0.3936   -1.9743    3.9629 C   0  0  0  0  0  0  0  0  0  0  0  0
    0.4382   -2.9418    3.4575 H   0  0  0  0  0  0  0  0  0  0  0  0
    1.3552   -1.4697    3.8437 H   0  0  0  0  0  0  0  0  0  0  0  0
    0.1194   -2.1813    5.3998 N   0  3  0  0  0  0  0  0  0  0  0  0
   -0.6904   -1.7189    5.7763 H   0  0  0  0  0  0  0  0  0  0  0  0
    0.8362   -2.9152    6.2345 C   0  0  0  0  0  0  0  0  0  0  0  0
    1.9045   -3.5565    5.8515 N   0  0  0  0  0  0  0  0  0  0  0  0
    2.1897   -3.4908    4.8904 H   0  0  0  0  0  0  0  0  0  0  0  0
    2.4374   -4.1088    6.4979 H   0  0  0  0  0  0  0  0  0  0  0  0
    0.4897   -3.0192    7.4861 N   0  0  0  0  0  0  0  0  0  0  0  0
   -0.3270   -2.5430    7.8284 H   0  0  0  0  0  0  0  0  0  0  0  0
    1.0363   -3.5771    8.1159 H   0  0  0  0  0  0  0  0  0  0  0  0
   -0.9654    0.2240   -0.3790 C   0  0  0  0  0  0  0  0  0  0  0  0
   -0.3341    1.2531   -0.5878 O   0  0  0  0  0  0  0  0  0  0  0  0
   -1.3190   -0.6277   -1.3466 N   0  0  0  0  0  0  0  0  0  0  0  0
   -1.8056   -1.4680   -1.0799 H   0  0  0  0  0  0  0  0  0  0  0  0
   -0.9628   -0.4592   -2.7564 C   0  0  0  0  0  0  0  0  0  0  0  0
    0.1218   -0.5120   -2.8721 H   0  0  0  0  0  0  0  0  0  0  0  0
   -1.4235   -1.2415   -3.3609 H   0  0  0  0  0  0  0  0  0  0  0  0
   -1.3003    0.5165   -3.1129 H   0  0  0  0  0  0  0  0  0  0  0  0
  5  6  2  0  0  0  0
  5  7  1  0  0  0  0
  2  3  1  0  0  0  0
  2  4  1  0  0  0  0
  2  5  1  0  0  0  0
  1  2  1  0  0  0  0
 29 30  2  0  0  0  0
 29 31  1  0  0  0  0
 26 27  1  0  0  0  0
 26 28  1  0  0  0  0
 23 24  1  0  0  0  0
 23 25  1  0  0  0  0
 22 23  1  0  0  0  0
 22 26  1  0  0  0  0
 20 21  1  0  0  0  0
 20 22  2  0  0  0  0
 17 18  1  0  0  0  0
 17 19  1  0  0  0  0
 17 20  1  0  0  0  0
 14 15  1  0  0  0  0
 14 16  1  0  0  0  0
 14 17  1  0  0  0  0
 11 12  1  0  0  0  0
 11 13  1  0  0  0  0
 11 14  1  0  0  0  0
  9 10  1  0  0  0  0
  9 11  1  0  0  0  0
  9 29  1  0  0  0  0
  7  8  1  0  0  0  0
  7  9  1  0  0  0  0
 33 34  1  0  0  0  0
 33 35  1  0  0  0  0
 33 36  1  0  0  0  0
 31 32  1  0  0  0  0
 31 33  1  0  0  0  0
M  CHG  1  20   1
M  END
$$$$
default_name
  -OEChem-01062215323D

 36 35  0     1  0  0  0  0  0999 V2000
   -4.2256   -3.6731    1.8584 H   0  0  0  0  0  0  0  0  0  0  0  0
   -4.2396   -2.6781    1.4144 C   0  0  0  0  0  0  0  0  0  0  0  0
   -4.9506   -2.0521    1.9514 H   0  0  0  0  0  0  0  0  0  0  0  0
   -4.5266   -2.7521    0.3674 H   0  0  0  0  0  0  0  0  0  0  0  0
   -2.8576   -2.0761    1.5184 C   0  0  0  0  0  0  0  0  0  0  0  0
   -1.9456   -2.7051    2.0404 O   0  0  0  0  0  0  0  0  0  0  0  0
   -2.6926   -0.8481    1.0174 N   0  0  0  0  0  0  0  0  0  0  0  0
   -3.4926   -0.3971    0.5954 H   0  0  0  0  0  0  0  0  0  0  0  0
   -1.4216   -0.1071    1.0434 C   0  0  1  0  0  0  0  0  0  0  0  0
   -1.5781    0.8252    1.5885 H   0  0  0  0  0  0  0  0  0  0  0  0
   -0.3782   -0.9544    1.7990 C   0  0  0  0  0  0  0  0  0  0  0  0
   -0.3391   -1.9461    1.3439 H   0  0  0  0  0  0  0  0  0  0  0  0
    0.6049   -0.4917    1.6886 H   0  0  0  0  0  0  0  0  0  0  0  0
   -0.6921   -1.1212    3.2930 C   0  0  0  0  0  0  0  0  0  0  0  0
   -0.7254   -0.1428    3.7744 H   0  0  0  0  0  0  0  0  0  0  0  0
   -1.6596   -1.6114    3.4058 H   0  0  0  0  0  0  0  0  0  0  0  0
    0.3936   -1.9743    3.9629 C   0  0  0  0  0  0  0  0  0  0  0  0
    0.4382   -2.9418    3.4575 H   0  0  0  0  0  0  0  0  0  0  0  0
    1.3552   -1.4697    3.8437 H   0  0  0  0  0  0  0  0  0  0  0  0
    0.1194   -2.1813    5.3998 N   0  3  0  0  0  0  0  0  0  0  0  0
   -0.6904   -1.7189    5.7763 H   0  0  0  0  0  0  0  0  0  0  0  0
    0.8362   -2.9152    6.2345 C   0  0  0  0  0  0  0  0  0  0  0  0
    1.9045   -3.5565    5.8515 N   0  0  0  0  0  0  0  0  0  0  0  0
    2.1897   -3.4908    4.8904 H   0  0  0  0  0  0  0  0  0  0  0  0
    2.4374   -4.1088    6.4979 H   0  0  0  0  0  0  0  0  0  0  0  0
    0.4897   -3.0192    7.4861 N   0  0  0  0  0  0  0  0  0  0  0  0
   -0.3270   -2.5430    7.8284 H   0  0  0  0  0  0  0  0  0  0  0  0
    1.0363   -3.5771    8.1159 H   0  0  0  0  0  0  0  0  0  0  0  0
   -0.9654    0.2240   -0.3790 C   0  0  0  0  0  0  0  0  0  0  0  0
   -0.1136    1.0867   -0.5558 O   0  0  0  0  0  0  0  0  0  0  0  0
   -1.5599   -0.4344   -1.3788 N   0  0  0  0  0  0  0  0  0  0  0  0
   -2.2230   -1.1538   -1.1406 H   0  0  0  0  0  0  0  0  0  0  0  0
   -1.2395   -0.2378   -2.7936 C   0  0  0  0  0  0  0  0  0  0  0  0
   -0.2068   -0.5379   -2.9835 H   0  0  0  0  0  0  0  0  0  0  0  0
   -1.9040   -0.8342   -3.4202 H   0  0  0  0  0  0  0  0  0  0  0  0
   -1.3463    0.8165   -3.0577 H   0  0  0  0  0  0  0  0  0  0  0  0
  5  6  2  0  0  0  0
  5  7  1  0  0  0  0
  2  3  1  0  0  0  0
  2  4  1  0  0  0  0
  2  5  1  0  0  0  0
  1  2  1  0  0  0  0
 29 30  2  0  0  0  0
 29 31  1  0  0  0  0
 26 27  1  0  0  0  0
 26 28  1  0  0  0  0
 23 24  1  0  0  0  0
 23 25  1  0  0  0  0
 22 23  1  0  0  0  0
 22 26  1  0  0  0  0
 20 21  1  0  0  0  0
 20 22  2  0  0  0  0
 17 18  1  0  0  0  0
 17 19  1  0  0  0  0
 17 20  1  0  0  0  0
 14 15  1  0  0  0  0
 14 16  1  0  0  0  0
 14 17  1  0  0  0  0
 11 12  1  0  0  0  0
 11 13  1  0  0  0  0
 11 14  1  0  0  0  0
  9 10  1  0  0  0  0
  9 11  1  0  0  0  0
  9 29  1  0  0  0  0
  7  8  1  0  0  0  0
  7  9  1  0  0  0  0
 33 34  1  0  0  0  0
 33 35  1  0  0  0  0
 33 36  1  0  0  0  0
 31 32  1  0  0  0  0
 31 33  1  0  0  0  0
M  CHG  1  20   1
M  END
$$$$
default_name
  -OEChem-01062215323D

 36 35  0     1  0  0  0  0  0999 V2000
   -4.2256   -3.6731    1.8584 H   0  0  0  0  0  0  0  0  0  0  0  0
   -4.2396   -2.6781    1.4144 C   0  0  0  0  0  0  0  0  0  0  0  0
   -4.9506   -2.0521    1.9514 H   0  0  0  0  0  0  0  0  0  0  0  0
   -4.5266   -2.7521    0.3674 H   0  0  0  0  0  0  0  0  0  0  0  0
   -2.8576   -2.0761    1.5184 C   0  0  0  0  0  0  0  0  0  0  0  0
   -1.9456   -2.7051    2.0404 O   0  0  0  0  0  0  0  0  0  0  0  0
   -2.6926   -0.8481    1.0174 N   0  0  0  0  0  0  0  0  0  0  0  0
   -3.4926   -0.3971    0.5954 H   0  0  0  0  0  0  0  0  0  0  0  0
   -1.4216   -0.1071    1.0434 C   0  0  1  0  0  0  0  0  0  0  0  0
   -1.5781    0.8252    1.5885 H   0  0  0  0  0  0  0  0  0  0  0  0
   -0.3782   -0.9544    1.7990 C   0  0  0  0  0  0  0  0  0  0  0  0
   -0.3391   -1.9461    1.3439 H   0  0  0  0  0  0  0  0  0  0  0  0
    0.6049   -0.4917    1.6886 H   0  0  0  0  0  0  0  0  0  0  0  0
   -0.6921   -1.1212    3.2930 C   0  0  0  0  0  0  0  0  0  0  0  0
   -0.7254   -0.1428    3.7744 H   0  0  0  0  0  0  0  0  0  0  0  0
   -1.6596   -1.6114    3.4058 H   0  0  0  0  0  0  0  0  0  0  0  0
    0.3936   -1.9743    3.9629 C   0  0  0  0  0  0  0  0  0  0  0  0
    0.4382   -2.9418    3.4575 H   0  0  0  0  0  0  0  0  0  0  0  0
    1.3552   -1.4697    3.8437 H   0  0  0  0  0  0  0  0  0  0  0  0
    0.1194   -2.1813    5.3998 N   0  3  0  0  0  0  0  0  0  0  0  0
   -0.6904   -1.7189    5.7763 H   0  0  0  0  0  0  0  0  0  0  0  0
    0.8362   -2.9152    6.2345 C   0  0  0  0  0  0  0  0  0  0  0  0
    1.9045   -3.5565    5.8515 N   0  0  0  0  0  0  0  0  0  0  0  0
    2.1897   -3.4908    4.8904 H   0  0  0  0  0  0  0  0  0  0  0  0
    2.4374   -4.1088    6.4979 H   0  0  0  0  0  0  0  0  0  0  0  0
    0.4897   -3.0192    7.4861 N   0  0  0  0  0  0  0  0  0  0  0  0
   -0.3270   -2.5430    7.8284 H   0  0  0  0  0  0  0  0  0  0  0  0
    1.0363   -3.5771    8.1159 H   0  0  0  0  0  0  0  0  0  0  0  0
   -0.9654    0.2240   -0.3790 C   0  0  0  0  0  0  0  0  0  0  0  0
    0.0612    0.8705   -0.5501 O   0  0  0  0  0  0  0  0  0  0  0  0
   -1.7479   -0.1873   -1.3816 N   0  0  0  0  0  0  0  0  0  0  0  0
   -2.5540   -0.7452   -1.1516 H   0  0  0  0  0  0  0  0  0  0  0  0
   -1.4556    0.0454   -2.7969 C   0  0  0  0  0  0  0  0  0  0  0  0
   -0.5366   -0.4751   -3.0746 H   0  0  0  0  0  0  0  0  0  0  0  0
   -2.2734   -0.3205   -3.4190 H   0  0  0  0  0  0  0  0  0  0  0  0
   -1.3153    1.1132   -2.9787 H   0  0  0  0  0  0  0  0  0  0  0  0
  5  6  2  0  0  0  0
  5  7  1  0  0  0  0
  2  3  1  0  0  0  0
  2  4  1  0  0  0  0
  2  5  1  0  0  0  0
  1  2  1  0  0  0  0
 29 30  2  0  0  0  0
 29 31  1  0  0  0  0
 26 27  1  0  0  0  0
 26 28  1  0  0  0  0
 23 24  1  0  0  0  0
 23 25  1  0  0  0  0
 22 23  1  0  0  0  0
 22 26  1  0  0  0  0
 20 21  1  0  0  0  0
 20 22  2  0  0  0  0
 17 18  1  0  0  0  0
 17 19  1  0  0  0  0
 17 20  1  0  0  0  0
 14 15  1  0  0  0  0
 14 16  1  0  0  0  0
 14 17  1  0  0  0  0
 11 12  1  0  0  0  0
 11 13  1  0  0  0  0
 11 14  1  0  0  0  0
  9 10  1  0  0  0  0
  9 11  1  0  0  0  0
  9 29  1  0  0  0  0
  7  8  1  0  0  0  0
  7  9  1  0  0  0  0
 33 34  1  0  0  0  0
 33 35  1  0  0  0  0
 33 36  1  0  0  0  0
 31 32  1  0  0  0  0
 31 33  1  0  0  0  0
M  CHG  1  20   1
M  END
$$$$
default_name
  -OEChem-01062215323D

 36 35  0     1  0  0  0  0  0999 V2000
   -4.2256   -3.6731    1.8584 H   0  0  0  0  0  0  0  0  0  0  0  0
   -4.2396   -2.6781    1.4144 C   0  0  0  0  0  0  0  0  0  0  0  0
   -4.9506   -2.0521    1.9514 H   0  0  0  0  0  0  0  0  0  0  0  0
   -4.5266   -2.7521    0.3674 H   0  0  0  0  0  0  0  0  0  0  0  0
   -2.8576   -2.0761    1.5184 C   0  0  0  0  0  0  0  0  0  0  0  0
   -1.9456   -2.7051    2.0404 O   0  0  0  0  0  0  0  0  0  0  0  0
   -2.6926   -0.8481    1.0174 N   0  0  0  0  0  0  0  0  0  0  0  0
   -3.4926   -0.3971    0.5954 H   0  0  0  0  0  0  0  0  0  0  0  0
   -1.4216   -0.1071    1.0434 C   0  0  1  0  0  0  0  0  0  0  0  0
   -1.5781    0.8252    1.5885 H   0  0  0  0  0  0  0  0  0  0  0  0
   -0.3782   -0.9544    1.7990 C   0  0  0  0  0  0  0  0  0  0  0  0
   -0.3391   -1.9461    1.3439 H   0  0  0  0  0  0  0  0  0  0  0  0
    0.6049   -0.4917    1.6886 H   0  0  0  0  0  0  0  0  0  0  0  0
   -0.6921   -1.1212    3.2930 C   0  0  0  0  0  0  0  0  0  0  0  0
   -0.7254   -0.1428    3.7744 H   0  0  0  0  0  0  0  0  0  0  0  0
   -1.6596   -1.6114    3.4058 H   0  0  0  0  0  0  0  0  0  0  0  0
    0.3936   -1.9743    3.9629 C   0  0  0  0  0  0  0  0  0  0  0  0
    0.4382   -2.9418    3.4575 H   0  0  0  0  0  0  0  0  0  0  0  0
    1.3552   -1.4697    3.8437 H   0  0  0  0  0  0  0  0  0  0  0  0
    0.1194   -2.1813    5.3998 N   0  3  0  0  0  0  0  0  0  0  0  0
   -0.6904   -1.7189    5.7763 H   0  0  0  0  0  0  0  0  0  0  0  0
    0.8362   -2.9152    6.2345 C   0  0  0  0  0  0  0  0  0  0  0  0
    1.9045   -3.5565    5.8515 N   0  0  0  0  0  0  0  0  0  0  0  0
    2.1897   -3.4908    4.8904 H   0  0  0  0  0  0  0  0  0  0  0  0
    2.4374   -4.1088    6.4979 H   0  0  0  0  0  0  0  0  0  0  0  0
    0.4897   -3.0192    7.4861 N   0  0  0  0  0  0  0  0  0  0  0  0
   -0.3270   -2.5430    7.8284 H   0  0  0  0  0  0  0  0  0  0  0  0
    1.0363   -3.5771    8.1159 H   0  0  0  0  0  0  0  0  0  0  0  0
   -0.9654    0.2240   -0.3790 C   0  0  0  0  0  0  0  0  0  0  0  0
    0.1784    0.6191   -0.5711 O   0  0  0  0  0  0  0  0  0  0  0  0
   -1.8702    0.0969   -1.3546 N   0  0  0  0  0  0  0  0  0  0  0  0
   -2.7760   -0.2701   -1.1122 H   0  0  0  0  0  0  0  0  0  0  0  0
   -1.5964    0.3713   -2.7662 C   0  0  0  0  0  0  0  0  0  0  0  0
   -0.8453   -0.3282   -3.1394 H   0  0  0  0  0  0  0  0  0  0  0  0
   -2.5066    0.2645   -3.3576 H   0  0  0  0  0  0  0  0  0  0  0  0
   -1.2096    1.3862   -2.8813 H   0  0  0  0  0  0  0  0  0  0  0  0
  5  6  2  0  0  0  0
  5  7  1  0  0  0  0
  2  3  1  0  0  0  0
  2  4  1  0  0  0  0
  2  5  1  0  0  0  0
  1  2  1  0  0  0  0
 29 30  2  0  0  0  0
 29 31  1  0  0  0  0
 26 27  1  0  0  0  0
 26 28  1  0  0  0  0
 23 24  1  0  0  0  0
 23 25  1  0  0  0  0
 22 23  1  0  0  0  0
 22 26  1  0  0  0  0
 20 21  1  0  0  0  0
 20 22  2  0  0  0  0
 17 18  1  0  0  0  0
 17 19  1  0  0  0  0
 17 20  1  0  0  0  0
 14 15  1  0  0  0  0
 14 16  1  0  0  0  0
 14 17  1  0  0  0  0
 11 12  1  0  0  0  0
 11 13  1  0  0  0  0
 11 14  1  0  0  0  0
  9 10  1  0  0  0  0
  9 11  1  0  0  0  0
  9 29  1  0  0  0  0
  7  8  1  0  0  0  0
  7  9  1  0  0  0  0
 33 34  1  0  0  0  0
 33 35  1  0  0  0  0
 33 36  1  0  0  0  0
 31 32  1  0  0  0  0
 31 33  1  0  0  0  0
M  CHG  1  20   1
M  END
$$$$
default_name
  -OEChem-01062215323D

 36 35  0     1  0  0  0  0  0999 V2000
   -4.2256   -3.6731    1.8584 H   0  0  0  0  0  0  0  0  0  0  0  0
   -4.2396   -2.6781    1.4144 C   0  0  0  0  0  0  0  0  0  0  0  0
   -4.9506   -2.0521    1.9514 H   0  0  0  0  0  0  0  0  0  0  0  0
   -4.5266   -2.7521    0.3674 H   0  0  0  0  0  0  0  0  0  0  0  0
   -2.8576   -2.0761    1.5184 C   0  0  0  0  0  0  0  0  0  0  0  0
   -1.9456   -2.7051    2.0404 O   0  0  0  0  0  0  0  0  0  0  0  0
   -2.6926   -0.8481    1.0174 N   0  0  0  0  0  0  0  0  0  0  0  0
   -3.4926   -0.3971    0.5954 H   0  0  0  0  0  0  0  0  0  0  0  0
   -1.4216   -0.1071    1.0434 C   0  0  1  0  0  0  0  0  0  0  0  0
   -1.5781    0.8252    1.5885 H   0  0  0  0  0  0  0  0  0  0  0  0
   -0.3782   -0.9544    1.7990 C   0  0  0  0  0  0  0  0  0  0  0  0
   -0.3391   -1.9461    1.3439 H   0  0  0  0  0  0  0  0  0  0  0  0
    0.6049   -0.4917    1.6886 H   0  0  0  0  0  0  0  0  0  0  0  0
   -0.6921   -1.1212    3.2930 C   0  0  0  0  0  0  0  0  0  0  0  0
   -0.7254   -0.1428    3.7744 H   0  0  0  0  0  0  0  0  0  0  0  0
   -1.6596   -1.6114    3.4058 H   0  0  0  0  0  0  0  0  0  0  0  0
    0.3936   -1.9743    3.9629 C   0  0  0  0  0  0  0  0  0  0  0  0
    0.4382   -2.9418    3.4575 H   0  0  0  0  0  0  0  0  0  0  0  0
    1.3552   -1.4697    3.8437 H   0  0  0  0  0  0  0  0  0  0  0  0
    0.1194   -2.1813    5.3998 N   0  3  0  0  0  0  0  0  0  0  0  0
   -0.6904   -1.7189    5.7763 H   0  0  0  0  0  0  0  0  0  0  0  0
    0.8362   -2.9152    6.2345 C   0  0  0  0  0  0  0  0  0  0  0  0
    1.9045   -3.5565    5.8515 N   0  0  0  0  0  0  0  0  0  0  0  0
    2.1897   -3.4908    4.8904 H   0  0  0  0  0  0  0  0  0  0  0  0
    2.4374   -4.1088    6.4979 H   0  0  0  0  0  0  0  0  0  0  0  0
    0.4897   -3.0192    7.4861 N   0  0  0  0  0  0  0  0  0  0  0  0
   -0.3270   -2.5430    7.8284 H   0  0  0  0  0  0  0  0  0  0  0  0
    1.0363   -3.5771    8.1159 H   0  0  0  0  0  0  0  0  0  0  0  0
   -0.9654    0.2240   -0.3790 C   0  0  0  0  0  0  0  0  0  0  0  0
    0.2298    0.3498   -0.6173 O   0  0  0  0  0  0  0  0  0  0  0  0
   -1.9184    0.3987   -1.2998 N   0  0  0  0  0  0  0  0  0  0  0  0
   -2.8739    0.2393   -1.0250 H   0  0  0  0  0  0  0  0  0  0  0  0
   -1.6522    0.7175   -2.7035 C   0  0  0  0  0  0  0  0  0  0  0  0
   -1.1116   -0.1069   -3.1733 H   0  0  0  0  0  0  0  0  0  0  0  0
   -2.5877    0.8809   -3.2401 H   0  0  0  0  0  0  0  0  0  0  0  0
   -1.0364    1.6169   -2.7720 H   0  0  0  0  0  0  0  0  0  0  0  0
  5  6  2  0  0  0  0
  5  7  1  0  0  0  0
  2  3  1  0  0  0  0
  2  4  1  0  0  0  0
  2  5  1  0  0  0  0
  1  2  1  0  0  0  0
 29 30  2  0  0  0  0
 29 31  1  0  0  0  0
 26 27  1  0  0  0  0
 26 28  1  0  0  0  0
 23 24  1  0  0  0  0
 23 25  1  0  0  0  0
 22 23  1  0  0  0  0
 22 26  1  0  0  0  0
 20 21  1  0  0  0  0
 20 22  2  0  0  0  0
 17 18  1  0  0  0  0
 17 19  1  0  0  0  0
 17 20  1  0  0  0  0
 14 15  1  0  0  0  0
 14 16  1  0  0  0  0
 14 17  1  0  0  0  0
 11 12  1  0  0  0  0
 11 13  1  0  0  0  0
 11 14  1  0  0  0  0
  9 10  1  0  0  0  0
  9 11  1  0  0  0  0
  9 29  1  0  0  0  0
  7  8  1  0  0  0  0
  7  9  1  0  0  0  0
 33 34  1  0  0  0  0
 33 35  1  0  0  0  0
 33 36  1  0  0  0  0
 31 32  1  0  0  0  0
 31 33  1  0  0  0  0
M  CHG  1  20   1
M  END
$$$$
default_name
  -OEChem-01062215323D

 36 35  0     1  0  0  0  0  0999 V2000
   -4.2256   -3.6731    1.8584 H   0  0  0  0  0  0  0  0  0  0  0  0
   -4.2396   -2.6781    1.4144 C   0  0  0  0  0  0  0  0  0  0  0  0
   -4.9506   -2.0521    1.9514 H   0  0  0  0  0  0  0  0  0  0  0  0
   -4.5266   -2.7521    0.3674 H   0  0  0  0  0  0  0  0  0  0  0  0
   -2.8576   -2.0761    1.5184 C   0  0  0  0  0  0  0  0  0  0  0  0
   -1.9456   -2.7051    2.0404 O   0  0  0  0  0  0  0  0  0  0  0  0
   -2.6926   -0.8481    1.0174 N   0  0  0  0  0  0  0  0  0  0  0  0
   -3.4926   -0.3971    0.5954 H   0  0  0  0  0  0  0  0  0  0  0  0
   -1.4216   -0.1071    1.0434 C   0  0  1  0  0  0  0  0  0  0  0  0
   -1.5781    0.8252    1.5885 H   0  0  0  0  0  0  0  0  0  0  0  0
   -0.3782   -0.9544    1.7990 C   0  0  0  0  0  0  0  0  0  0  0  0
   -0.3391   -1.9461    1.3439 H   0  0  0  0  0  0  0  0  0  0  0  0
    0.6049   -0.4917    1.6886 H   0  0  0  0  0  0  0  0  0  0  0  0
   -0.6921   -1.1212    3.2930 C   0  0  0  0  0  0  0  0  0  0  0  0
   -0.7254   -0.1428    3.7744 H   0  0  0  0  0  0  0  0  0  0  0  0
   -1.6596   -1.6114    3.4058 H   0  0  0  0  0  0  0  0  0  0  0  0
    0.3936   -1.9743    3.9629 C   0  0  0  0  0  0  0  0  0  0  0  0
    0.4382   -2.9418    3.4575 H   0  0  0  0  0  0  0  0  0  0  0  0
    1.3552   -1.4697    3.8437 H   0  0  0  0  0  0  0  0  0  0  0  0
    0.1194   -2.1813    5.3998 N   0  3  0  0  0  0  0  0  0  0  0  0
   -0.6904   -1.7189    5.7763 H   0  0  0  0  0  0  0  0  0  0  0  0
    0.8362   -2.9152    6.2345 C   0  0  0  0  0  0  0  0  0  0  0  0
    1.9045   -3.5565    5.8515 N   0  0  0  0  0  0  0  0  0  0  0  0
    2.1897   -3.4908    4.8904 H   0  0  0  0  0  0  0  0  0  0  0  0
    2.4374   -4.1088    6.4979 H   0  0  0  0  0  0  0  0  0  0  0  0
    0.4897   -3.0192    7.4861 N   0  0  0  0  0  0  0  0  0  0  0  0
   -0.3270   -2.5430    7.8284 H   0  0  0  0  0  0  0  0  0  0  0  0
    1.0363   -3.5771    8.1159 H   0  0  0  0  0  0  0  0  0  0  0  0
   -0.9654    0.2240   -0.3790 C   0  0  0  0  0  0  0  0  0  0  0  0
    0.2122    0.0807   -0.6856 O   0  0  0  0  0  0  0  0  0  0  0  0
   -1.8893    0.6976   -1.2209 N   0  0  0  0  0  0  0  0  0  0  0  0
   -2.8410    0.7481   -0.8960 H   0  0  0  0  0  0  0  0  0  0  0  0
   -1.6193    1.0605   -2.6131 C   0  0  0  0  0  0  0  0  0  0  0  0
   -1.3176    0.1735   -3.1741 H   0  0  0  0  0  0  0  0  0  0  0  0
   -2.5111    1.4867   -3.0745 H   0  0  0  0  0  0  0  0  0  0  0  0
   -0.8075    1.7897   -2.6584 H   0  0  0  0  0  0  0  0  0  0  0  0
  5  6  2  0  0  0  0
  5  7  1  0  0  0  0
  2  3  1  0  0  0  0
  2  4  1  0  0  0  0
  2  5  1  0  0  0  0
  1  2  1  0  0  0  0
 29 30  2  0  0  0  0
 29 31  1  0  0  0  0
 26 27  1  0  0  0  0
 26 28  1  0  0  0  0
 23 24  1  0  0  0  0
 23 25  1  0  0  0  0
 22 23  1  0  0  0  0
 22 26  1  0  0  0  0
 20 21  1  0  0  0  0
 20 22  2  0  0  0  0
 17 18  1  0  0  0  0
 17 19  1  0  0  0  0
 17 20  1  0  0  0  0
 14 15  1  0  0  0  0
 14 16  1  0  0  0  0
 14 17  1  0  0  0  0
 11 12  1  0  0  0  0
 11 13  1  0  0  0  0
 11 14  1  0  0  0  0
  9 10  1  0  0  0  0
  9 11  1  0  0  0  0
  9 29  1  0  0  0  0
  7  8  1  0  0  0  0
  7  9  1  0  0  0  0
 33 34  1  0  0  0  0
 33 35  1  0  0  0  0
 33 36  1  0  0  0  0
 31 32  1  0  0  0  0
 31 33  1  0  0  0  0
M  CHG  1  20   1
M  END
$$$$
default_name
  -OEChem-01062215323D

 36 35  0     1  0  0  0  0  0999 V2000
   -4.2256   -3.6731    1.8584 H   0  0  0  0  0  0  0  0  0  0  0  0
   -4.2396   -2.6781    1.4144 C   0  0  0  0  0  0  0  0  0  0  0  0
   -4.9506   -2.0521    1.9514 H   0  0  0  0  0  0  0  0  0  0  0  0
   -4.5266   -2.7521    0.3674 H   0  0  0  0  0  0  0  0  0  0  0  0
   -2.8576   -2.0761    1.5184 C   0  0  0  0  0  0  0  0  0  0  0  0
   -1.9456   -2.7051    2.0404 O   0  0  0  0  0  0  0  0  0  0  0  0
   -2.6926   -0.8481    1.0174 N   0  0  0  0  0  0  0  0  0  0  0  0
   -3.4926   -0.3971    0.5954 H   0  0  0  0  0  0  0  0  0  0  0  0
   -1.4216   -0.1071    1.0434 C   0  0  1  0  0  0  0  0  0  0  0  0
   -1.5781    0.8252    1.5885 H   0  0  0  0  0  0  0  0  0  0  0  0
   -0.3782   -0.9544    1.7990 C   0  0  0  0  0  0  0  0  0  0  0  0
   -0.3391   -1.9461    1.3439 H   0  0  0  0  0  0  0  0  0  0  0  0
    0.6049   -0.4917    1.6886 H   0  0  0  0  0  0  0  0  0  0  0  0
   -0.6921   -1.1212    3.2930 C   0  0  0  0  0  0  0  0  0  0  0  0
   -0.7254   -0.1428    3.7744 H   0  0  0  0  0  0  0  0  0  0  0  0
   -1.6596   -1.6114    3.4058 H   0  0  0  0  0  0  0  0  0  0  0  0
    0.3936   -1.9743    3.9629 C   0  0  0  0  0  0  0  0  0  0  0  0
    0.4382   -2.9418    3.4575 H   0  0  0  0  0  0  0  0  0  0  0  0
    1.3552   -1.4697    3.8437 H   0  0  0  0  0  0  0  0  0  0  0  0
    0.1194   -2.1813    5.3998 N   0  3  0  0  0  0  0  0  0  0  0  0
   -0.6904   -1.7189    5.7763 H   0  0  0  0  0  0  0  0  0  0  0  0
    0.8362   -2.9152    6.2345 C   0  0  0  0  0  0  0  0  0  0  0  0
    1.9045   -3.5565    5.8515 N   0  0  0  0  0  0  0  0  0  0  0  0
    2.1897   -3.4908    4.8904 H   0  0  0  0  0  0  0  0  0  0  0  0
    2.4374   -4.1088    6.4979 H   0  0  0  0  0  0  0  0  0  0  0  0
    0.4897   -3.0192    7.4861 N   0  0  0  0  0  0  0  0  0  0  0  0
   -0.3270   -2.5430    7.8284 H   0  0  0  0  0  0  0  0  0  0  0  0
    1.0363   -3.5771    8.1159 H   0  0  0  0  0  0  0  0  0  0  0  0
   -0.9654    0.2240   -0.3790 C   0  0  0  0  0  0  0  0  0  0  0  0
    0.1265   -0.1696   -0.7713 O   0  0  0  0  0  0  0  0  0  0  0  0
   -1.7848    0.9733   -1.1232 N   0  0  0  0  0  0  0  0  0  0  0  0
   -2.6797    1.2217   -0.7340 H   0  0  0  0  0  0  0  0  0  0  0  0
   -1.5000    1.3770   -2.5011 C   0  0  0  0  0  0  0  0  0  0  0  0
   -1.4491    0.4940   -3.1417 H   0  0  0  0  0  0  0  0  0  0  0  0
   -2.2820    2.0407   -2.8721 H   0  0  0  0  0  0  0  0  0  0  0  0
   -0.5384    1.8927   -2.5481 H   0  0  0  0  0  0  0  0  0  0  0  0
  5  6  2  0  0  0  0
  5  7  1  0  0  0  0
  2  3  1  0  0  0  0
  2  4  1  0  0  0  0
  2  5  1  0  0  0  0
  1  2  1  0  0  0  0
 29 30  2  0  0  0  0
 29 31  1  0  0  0  0
 26 27  1  0  0  0  0
 26 28  1  0  0  0  0
 23 24  1  0  0  0  0
 23 25  1  0  0  0  0
 22 23  1  0  0  0  0
 22 26  1  0  0  0  0
 20 21  1  0  0  0  0
 20 22  2  0  0  0  0
 17 18  1  0  0  0  0
 17 19  1  0  0  0  0
 17 20  1  0  0  0  0
 14 15  1  0  0  0  0
 14 16  1  0  0  0  0
 14 17  1  0  0  0  0
 11 12  1  0  0  0  0
 11 13  1  0  0  0  0
 11 14  1  0  0  0  0
  9 10  1  0  0  0  0
  9 11  1  0  0  0  0
  9 29  1  0  0  0  0
  7  8  1  0  0  0  0
  7  9  1  0  0  0  0
 33 34  1  0  0  0  0
 33 35  1  0  0  0  0
 33 36  1  0  0  0  0
 31 32  1  0  0  0  0
 31 33  1  0  0  0  0
M  CHG  1  20   1
M  END
$$$$
default_name
  -OEChem-01062215323D

 36 35  0     1  0  0  0  0  0999 V2000
   -4.2256   -3.6731    1.8584 H   0  0  0  0  0  0  0  0  0  0  0  0
   -4.2396   -2.6781    1.4144 C   0  0  0  0  0  0  0  0  0  0  0  0
   -4.9506   -2.0521    1.9514 H   0  0  0  0  0  0  0  0  0  0  0  0
   -4.5266   -2.7521    0.3674 H   0  0  0  0  0  0  0  0  0  0  0  0
   -2.8576   -2.0761    1.5184 C   0  0  0  0  0  0  0  0  0  0  0  0
   -1.9456   -2.7051    2.0404 O   0  0  0  0  0  0  0  0  0  0  0  0
   -2.6926   -0.8481    1.0174 N   0  0  0  0  0  0  0  0  0  0  0  0
   -3.4926   -0.3971    0.5954 H   0  0  0  0  0  0  0  0  0  0  0  0
   -1.4216   -0.1071    1.0434 C   0  0  1  0  0  0  0  0  0  0  0  0
   -1.5781    0.8252    1.5885 H   0  0  0  0  0  0  0  0  0  0  0  0
   -0.3782   -0.9544    1.7990 C   0  0  0  0  0  0  0  0  0  0  0  0
   -0.3391   -1.9461    1.3439 H   0  0  0  0  0  0  0  0  0  0  0  0
    0.6049   -0.4917    1.6886 H   0  0  0  0  0  0  0  0  0  0  0  0
   -0.6921   -1.1212    3.2930 C   0  0  0  0  0  0  0  0  0  0  0  0
   -0.7254   -0.1428    3.7744 H   0  0  0  0  0  0  0  0  0  0  0  0
   -1.6596   -1.6114    3.4058 H   0  0  0  0  0  0  0  0  0  0  0  0
    0.3936   -1.9743    3.9629 C   0  0  0  0  0  0  0  0  0  0  0  0
    0.4382   -2.9418    3.4575 H   0  0  0  0  0  0  0  0  0  0  0  0
    1.3552   -1.4697    3.8437 H   0  0  0  0  0  0  0  0  0  0  0  0
    0.1194   -2.1813    5.3998 N   0  3  0  0  0  0  0  0  0  0  0  0
   -0.6904   -1.7189    5.7763 H   0  0  0  0  0  0  0  0  0  0  0  0
    0.8362   -2.9152    6.2345 C   0  0  0  0  0  0  0  0  0  0  0  0
    1.9045   -3.5565    5.8515 N   0  0  0  0  0  0  0  0  0  0  0  0
    2.1897   -3.4908    4.8904 H   0  0  0  0  0  0  0  0  0  0  0  0
    2.4374   -4.1088    6.4979 H   0  0  0  0  0  0  0  0  0  0  0  0
    0.4897   -3.0192    7.4861 N   0  0  0  0  0  0  0  0  0  0  0  0
   -0.3270   -2.5430    7.8284 H   0  0  0  0  0  0  0  0  0  0  0  0
    1.0363   -3.5771    8.1159 H   0  0  0  0  0  0  0  0  0  0  0  0
   -0.9654    0.2240   -0.3790 C   0  0  0  0  0  0  0  0  0  0  0  0
   -0.0212   -0.3842   -0.8687 O   0  0  0  0  0  0  0  0  0  0  0  0
   -1.6121    1.2069   -1.0134 N   0  0  0  0  0  0  0  0  0  0  0  0
   -2.4007    1.6278   -0.5500 H   0  0  0  0  0  0  0  0  0  0  0  0
   -1.3023    1.6453   -2.3752 C   0  0  0  0  0  0  0  0  0  0  0  0
   -1.4972    0.8327   -3.0782 H   0  0  0  0  0  0  0  0  0  0  0  0
   -1.9162    2.5051   -2.6466 H   0  0  0  0  0  0  0  0  0  0  0  0
   -0.2475    1.9190   -2.4487 H   0  0  0  0  0  0  0  0  0  0  0  0
  5  6  2  0  0  0  0
  5  7  1  0  0  0  0
  2  3  1  0  0  0  0
  2  4  1  0  0  0  0
  2  5  1  0  0  0  0
  1  2  1  0  0  0  0
 29 30  2  0  0  0  0
 29 31  1  0  0  0  0
 26 27  1  0  0  0  0
 26 28  1  0  0  0  0
 23 24  1  0  0  0  0
 23 25  1  0  0  0  0
 22 23  1  0  0  0  0
 22 26  1  0  0  0  0
 20 21  1  0  0  0  0
 20 22  2  0  0  0  0
 17 18  1  0  0  0  0
 17 19  1  0  0  0  0
 17 20  1  0  0  0  0
 14 15  1  0  0  0  0
 14 16  1  0  0  0  0
 14 17  1  0  0  0  0
 11 12  1  0  0  0  0
 11 13  1  0  0  0  0
 11 14  1  0  0  0  0
  9 10  1  0  0  0  0
  9 11  1  0  0  0  0
  9 29  1  0  0  0  0
  7  8  1  0  0  0  0
  7  9  1  0  0  0  0
 33 34  1  0  0  0  0
 33 35  1  0  0  0  0
 33 36  1  0  0  0  0
 31 32  1  0  0  0  0
 31 33  1  0  0  0  0
M  CHG  1  20   1
M  END
$$$$
default_name
  -OEChem-01062215323D

 36 35  0     1  0  0  0  0  0999 V2000
   -4.2256   -3.6731    1.8584 H   0  0  0  0  0  0  0  0  0  0  0  0
   -4.2396   -2.6781    1.4144 C   0  0  0  0  0  0  0  0  0  0  0  0
   -4.9506   -2.0521    1.9514 H   0  0  0  0  0  0  0  0  0  0  0  0
   -4.5266   -2.7521    0.3674 H   0  0  0  0  0  0  0  0  0  0  0  0
   -2.8576   -2.0761    1.5184 C   0  0  0  0  0  0  0  0  0  0  0  0
   -1.9456   -2.7051    2.0404 O   0  0  0  0  0  0  0  0  0  0  0  0
   -2.6926   -0.8481    1.0174 N   0  0  0  0  0  0  0  0  0  0  0  0
   -3.4926   -0.3971    0.5954 H   0  0  0  0  0  0  0  0  0  0  0  0
   -1.4216   -0.1071    1.0434 C   0  0  1  0  0  0  0  0  0  0  0  0
   -1.5781    0.8252    1.5885 H   0  0  0  0  0  0  0  0  0  0  0  0
   -0.3782   -0.9544    1.7990 C   0  0  0  0  0  0  0  0  0  0  0  0
   -0.3391   -1.9461    1.3439 H   0  0  0  0  0  0  0  0  0  0  0  0
    0.6049   -0.4917    1.6886 H   0  0  0  0  0  0  0  0  0  0  0  0
   -0.6921   -1.1212    3.2930 C   0  0  0  0  0  0  0  0  0  0  0  0
   -0.7254   -0.1428    3.7744 H   0  0  0  0  0  0  0  0  0  0  0  0
   -1.6596   -1.6114    3.4058 H   0  0  0  0  0  0  0  0  0  0  0  0
    0.3936   -1.9743    3.9629 C   0  0  0  0  0  0  0  0  0  0  0  0
    0.4382   -2.9418    3.4575 H   0  0  0  0  0  0  0  0  0  0  0  0
    1.3552   -1.4697    3.8437 H   0  0  0  0  0  0  0  0  0  0  0  0
    0.1194   -2.1813    5.3998 N   0  3  0  0  0  0  0  0  0  0  0  0
   -0.6904   -1.7189    5.7763 H   0  0  0  0  0  0  0  0  0  0  0  0
    0.8362   -2.9152    6.2345 C   0  0  0  0  0  0  0  0  0  0  0  0
    1.9045   -3.5565    5.8515 N   0  0  0  0  0  0  0  0  0  0  0  0
    2.1897   -3.4908    4.8904 H   0  0  0  0  0  0  0  0  0  0  0  0
    2.4374   -4.1088    6.4979 H   0  0  0  0  0  0  0  0  0  0  0  0
    0.4897   -3.0192    7.4861 N   0  0  0  0  0  0  0  0  0  0  0  0
   -0.3270   -2.5430    7.8284 H   0  0  0  0  0  0  0  0  0  0  0  0
    1.0363   -3.5771    8.1159 H   0  0  0  0  0  0  0  0  0  0  0  0
   -0.9654    0.2240   -0.3790 C   0  0  0  0  0  0  0  0  0  0  0  0
   -0.2210   -0.5484   -0.9710 O   0  0  0  0  0  0  0  0  0  0  0  0
   -1.3830    1.3824   -0.8991 N   0  0  0  0  0  0  0  0  0  0  0  0
   -2.0233    1.9388   -0.3565 H   0  0  0  0  0  0  0  0  0  0  0  0
   -1.0397    1.8472   -2.2440 C   0  0  0  0  0  0  0  0  0  0  0  0
   -1.4587    1.1665   -2.9881 H   0  0  0  0  0  0  0  0  0  0  0  0
   -1.4384    2.8483   -2.4135 H   0  0  0  0  0  0  0  0  0  0  0  0
    0.0454    1.8667   -2.3669 H   0  0  0  0  0  0  0  0  0  0  0  0
  5  6  2  0  0  0  0
  5  7  1  0  0  0  0
  2  3  1  0  0  0  0
  2  4  1  0  0  0  0
  2  5  1  0  0  0  0
  1  2  1  0  0  0  0
 29 30  2  0  0  0  0
 29 31  1  0  0  0  0
 26 27  1  0  0  0  0
 26 28  1  0  0  0  0
 23 24  1  0  0  0  0
 23 25  1  0  0  0  0
 22 23  1  0  0  0  0
 22 26  1  0  0  0  0
 20 21  1  0  0  0  0
 20 22  2  0  0  0  0
 17 18  1  0  0  0  0
 17 19  1  0  0  0  0
 17 20  1  0  0  0  0
 14 15  1  0  0  0  0
 14 16  1  0  0  0  0
 14 17  1  0  0  0  0
 11 12  1  0  0  0  0
 11 13  1  0  0  0  0
 11 14  1  0  0  0  0
  9 10  1  0  0  0  0
  9 11  1  0  0  0  0
  9 29  1  0  0  0  0
  7  8  1  0  0  0  0
  7  9  1  0  0  0  0
 33 34  1  0  0  0  0
 33 35  1  0  0  0  0
 33 36  1  0  0  0  0
 31 32  1  0  0  0  0
 31 33  1  0  0  0  0
M  CHG  1  20   1
M  END
$$$$
default_name
  -OEChem-01062215323D

 36 35  0     1  0  0  0  0  0999 V2000
   -4.2256   -3.6731    1.8584 H   0  0  0  0  0  0  0  0  0  0  0  0
   -4.2396   -2.6781    1.4144 C   0  0  0  0  0  0  0  0  0  0  0  0
   -4.9506   -2.0521    1.9514 H   0  0  0  0  0  0  0  0  0  0  0  0
   -4.5266   -2.7521    0.3674 H   0  0  0  0  0  0  0  0  0  0  0  0
   -2.8576   -2.0761    1.5184 C   0  0  0  0  0  0  0  0  0  0  0  0
   -1.9456   -2.7051    2.0404 O   0  0  0  0  0  0  0  0  0  0  0  0
   -2.6926   -0.8481    1.0174 N   0  0  0  0  0  0  0  0  0  0  0  0
   -3.4926   -0.3971    0.5954 H   0  0  0  0  0  0  0  0  0  0  0  0
   -1.4216   -0.1071    1.0434 C   0  0  1  0  0  0  0  0  0  0  0  0
   -1.5781    0.8252    1.5885 H   0  0  0  0  0  0  0  0  0  0  0  0
   -0.3782   -0.9544    1.7990 C   0  0  0  0  0  0  0  0  0  0  0  0
   -0.3391   -1.9461    1.3439 H   0  0  0  0  0  0  0  0  0  0  0  0
    0.6049   -0.4917    1.6886 H   0  0  0  0  0  0  0  0  0  0  0  0
   -0.6921   -1.1212    3.2930 C   0  0  0  0  0  0  0  0  0  0  0  0
   -0.7254   -0.1428    3.7744 H   0  0  0  0  0  0  0  0  0  0  0  0
   -1.6596   -1.6114    3.4058 H   0  0  0  0  0  0  0  0  0  0  0  0
    0.3936   -1.9743    3.9629 C   0  0  0  0  0  0  0  0  0  0  0  0
    0.4382   -2.9418    3.4575 H   0  0  0  0  0  0  0  0  0  0  0  0
    1.3552   -1.4697    3.8437 H   0  0  0  0  0  0  0  0  0  0  0  0
    0.1194   -2.1813    5.3998 N   0  3  0  0  0  0  0  0  0  0  0  0
   -0.6904   -1.7189    5.7763 H   0  0  0  0  0  0  0  0  0  0  0  0
    0.8362   -2.9152    6.2345 C   0  0  0  0  0  0  0  0  0  0  0  0
    1.9045   -3.5565    5.8515 N   0  0  0  0  0  0  0  0  0  0  0  0
    2.1897   -3.4908    4.8904 H   0  0  0  0  0  0  0  0  0  0  0  0
    2.4374   -4.1088    6.4979 H   0  0  0  0  0  0  0  0  0  0  0  0
    0.4897   -3.0192    7.4861 N   0  0  0  0  0  0  0  0  0  0  0  0
   -0.3270   -2.5430    7.8284 H   0  0  0  0  0  0  0  0  0  0  0  0
    1.0363   -3.5771    8.1159 H   0  0  0  0  0  0  0  0  0  0  0  0
   -0.9654    0.2240   -0.3790 C   0  0  0  0  0  0  0  0  0  0  0  0
   -0.4592   -0.6510   -1.0713 O   0  0  0  0  0  0  0  0  0  0  0  0
   -1.1129    1.4881   -0.7879 N   0  0  0  0  0  0  0  0  0  0  0  0
   -1.5730    2.1335   -0.1668 H   0  0  0  0  0  0  0  0  0  0  0  0
   -0.7301    1.9689   -2.1164 C   0  0  0  0  0  0  0  0  0  0  0  0
   -1.3360    1.4727   -2.8775 H   0  0  0  0  0  0  0  0  0  0  0  0
   -0.8813    3.0468   -2.1886 H   0  0  0  0  0  0  0  0  0  0  0  0
    0.3203    1.7394   -2.3084 H   0  0  0  0  0  0  0  0  0  0  0  0
  5  6  2  0  0  0  0
  5  7  1  0  0  0  0
  2  3  1  0  0  0  0
  2  4  1  0  0  0  0
  2  5  1  0  0  0  0
  1  2  1  0  0  0  0
 29 30  2  0  0  0  0
 29 31  1  0  0  0  0
 26 27  1  0  0  0  0
 26 28  1  0  0  0  0
 23 24  1  0  0  0  0
 23 25  1  0  0  0  0
 22 23  1  0  0  0  0
 22 26  1  0  0  0  0
 20 21  1  0  0  0  0
 20 22  2  0  0  0  0
 17 18  1  0  0  0  0
 17 19  1  0  0  0  0
 17 20  1  0  0  0  0
 14 15  1  0  0  0  0
 14 16  1  0  0  0  0
 14 17  1  0  0  0  0
 11 12  1  0  0  0  0
 11 13  1  0  0  0  0
 11 14  1  0  0  0  0
  9 10  1  0  0  0  0
  9 11  1  0  0  0  0
  9 29  1  0  0  0  0
  7  8  1  0  0  0  0
  7  9  1  0  0  0  0
 33 34  1  0  0  0  0
 33 35  1  0  0  0  0
 33 36  1  0  0  0  0
 31 32  1  0  0  0  0
 31 33  1  0  0  0  0
M  CHG  1  20   1
M  END
$$$$
default_name
  -OEChem-01062215323D

 36 35  0     1  0  0  0  0  0999 V2000
   -4.2256   -3.6731    1.8584 H   0  0  0  0  0  0  0  0  0  0  0  0
   -4.2396   -2.6781    1.4144 C   0  0  0  0  0  0  0  0  0  0  0  0
   -4.9506   -2.0521    1.9514 H   0  0  0  0  0  0  0  0  0  0  0  0
   -4.5266   -2.7521    0.3674 H   0  0  0  0  0  0  0  0  0  0  0  0
   -2.8576   -2.0761    1.5184 C   0  0  0  0  0  0  0  0  0  0  0  0
   -1.9456   -2.7051    2.0404 O   0  0  0  0  0  0  0  0  0  0  0  0
   -2.6926   -0.8481    1.0174 N   0  0  0  0  0  0  0  0  0  0  0  0
   -3.4926   -0.3971    0.5954 H   0  0  0  0  0  0  0  0  0  0  0  0
   -1.4216   -0.1071    1.0434 C   0  0  1  0  0  0  0  0  0  0  0  0
   -1.5781    0.8252    1.5885 H   0  0  0  0  0  0  0  0  0  0  0  0
   -0.3782   -0.9544    1.7990 C   0  0  0  0  0  0  0  0  0  0  0  0
   -0.3391   -1.9461    1.3439 H   0  0  0  0  0  0  0  0  0  0  0  0
    0.6049   -0.4917    1.6886 H   0  0  0  0  0  0  0  0  0  0  0  0
   -0.6921   -1.1212    3.2930 C   0  0  0  0  0  0  0  0  0  0  0  0
   -0.7254   -0.1428    3.7744 H   0  0  0  0  0  0  0  0  0  0  0  0
   -1.6596   -1.6114    3.4058 H   0  0  0  0  0  0  0  0  0  0  0  0
    0.3936   -1.9743    3.9629 C   0  0  0  0  0  0  0  0  0  0  0  0
    0.4382   -2.9418    3.4575 H   0  0  0  0  0  0  0  0  0  0  0  0
    1.3552   -1.4697    3.8437 H   0  0  0  0  0  0  0  0  0  0  0  0
    0.1194   -2.1813    5.3998 N   0  3  0  0  0  0  0  0  0  0  0  0
   -0.6904   -1.7189    5.7763 H   0  0  0  0  0  0  0  0  0  0  0  0
    0.8362   -2.9152    6.2345 C   0  0  0  0  0  0  0  0  0  0  0  0
    1.9045   -3.5565    5.8515 N   0  0  0  0  0  0  0  0  0  0  0  0
    2.1897   -3.4908    4.8904 H   0  0  0  0  0  0  0  0  0  0  0  0
    2.4374   -4.1088    6.4979 H   0  0  0  0  0  0  0  0  0  0  0  0
    0.4897   -3.0192    7.4861 N   0  0  0  0  0  0  0  0  0  0  0  0
   -0.3270   -2.5430    7.8284 H   0  0  0  0  0  0  0  0  0  0  0  0
    1.0363   -3.5771    8.1159 H   0  0  0  0  0  0  0  0  0  0  0  0
   -0.9654    0.2240   -0.3790 C   0  0  0  0  0  0  0  0  0  0  0  0
   -0.7197   -0.6851   -1.1627 O   0  0  0  0  0  0  0  0  0  0  0  0
   -0.8205    1.5166   -0.6874 N   0  0  0  0  0  0  0  0  0  0  0  0
   -1.0806    2.1985    0.0062 H   0  0  0  0  0  0  0  0  0  0  0  0
   -0.3947    2.0022   -2.0011 C   0  0  0  0  0  0  0  0  0  0  0  0
   -1.1377    1.7305   -2.7539 H   0  0  0  0  0  0  0  0  0  0  0  0
   -0.2828    3.0871   -1.9873 H   0  0  0  0  0  0  0  0  0  0  0  0
    0.5585    1.5458   -2.2771 H   0  0  0  0  0  0  0  0  0  0  0  0
  5  6  2  0  0  0  0
  5  7  1  0  0  0  0
  2  3  1  0  0  0  0
  2  4  1  0  0  0  0
  2  5  1  0  0  0  0
  1  2  1  0  0  0  0
 29 30  2  0  0  0  0
 29 31  1  0  0  0  0
 26 27  1  0  0  0  0
 26 28  1  0  0  0  0
 23 24  1  0  0  0  0
 23 25  1  0  0  0  0
 22 23  1  0  0  0  0
 22 26  1  0  0  0  0
 20 21  1  0  0  0  0
 20 22  2  0  0  0  0
 17 18  1  0  0  0  0
 17 19  1  0  0  0  0
 17 20  1  0  0  0  0
 14 15  1  0  0  0  0
 14 16  1  0  0  0  0
 14 17  1  0  0  0  0
 11 12  1  0  0  0  0
 11 13  1  0  0  0  0
 11 14  1  0  0  0  0
  9 10  1  0  0  0  0
  9 11  1  0  0  0  0
  9 29  1  0  0  0  0
  7  8  1  0  0  0  0
  7  9  1  0  0  0  0
 33 34  1  0  0  0  0
 33 35  1  0  0  0  0
 33 36  1  0  0  0  0
 31 32  1  0  0  0  0
 31 33  1  0  0  0  0
M  CHG  1  20   1
M  END
$$$$
default_name
  -OEChem-01062215323D

 36 35  0     1  0  0  0  0  0999 V2000
   -4.2256   -3.6731    1.8584 H   0  0  0  0  0  0  0  0  0  0  0  0
   -4.2396   -2.6781    1.4144 C   0  0  0  0  0  0  0  0  0  0  0  0
   -4.9506   -2.0521    1.9514 H   0  0  0  0  0  0  0  0  0  0  0  0
   -4.5266   -2.7521    0.3674 H   0  0  0  0  0  0  0  0  0  0  0  0
   -2.8576   -2.0761    1.5184 C   0  0  0  0  0  0  0  0  0  0  0  0
   -1.9456   -2.7051    2.0404 O   0  0  0  0  0  0  0  0  0  0  0  0
   -2.6926   -0.8481    1.0174 N   0  0  0  0  0  0  0  0  0  0  0  0
   -3.4926   -0.3971    0.5954 H   0  0  0  0  0  0  0  0  0  0  0  0
   -1.4216   -0.1071    1.0434 C   0  0  1  0  0  0  0  0  0  0  0  0
   -1.5781    0.8252    1.5885 H   0  0  0  0  0  0  0  0  0  0  0  0
   -0.3782   -0.9544    1.7990 C   0  0  0  0  0  0  0  0  0  0  0  0
   -0.3391   -1.9461    1.3439 H   0  0  0  0  0  0  0  0  0  0  0  0
    0.6049   -0.4917    1.6886 H   0  0  0  0  0  0  0  0  0  0  0  0
   -0.6921   -1.1212    3.2930 C   0  0  0  0  0  0  0  0  0  0  0  0
   -0.7254   -0.1428    3.7744 H   0  0  0  0  0  0  0  0  0  0  0  0
   -1.6596   -1.6114    3.4058 H   0  0  0  0  0  0  0  0  0  0  0  0
    0.3936   -1.9743    3.9629 C   0  0  0  0  0  0  0  0  0  0  0  0
    0.4382   -2.9418    3.4575 H   0  0  0  0  0  0  0  0  0  0  0  0
    1.3552   -1.4697    3.8437 H   0  0  0  0  0  0  0  0  0  0  0  0
    0.1194   -2.1813    5.3998 N   0  3  0  0  0  0  0  0  0  0  0  0
   -0.6904   -1.7189    5.7763 H   0  0  0  0  0  0  0  0  0  0  0  0
    0.8362   -2.9152    6.2345 C   0  0  0  0  0  0  0  0  0  0  0  0
    1.9045   -3.5565    5.8515 N   0  0  0  0  0  0  0  0  0  0  0  0
    2.1897   -3.4908    4.8904 H   0  0  0  0  0  0  0  0  0  0  0  0
    2.4374   -4.1088    6.4979 H   0  0  0  0  0  0  0  0  0  0  0  0
    0.4897   -3.0192    7.4861 N   0  0  0  0  0  0  0  0  0  0  0  0
   -0.3270   -2.5430    7.8284 H   0  0  0  0  0  0  0  0  0  0  0  0
    1.0363   -3.5771    8.1159 H   0  0  0  0  0  0  0  0  0  0  0  0
   -0.9654    0.2240   -0.3790 C   0  0  0  0  0  0  0  0  0  0  0  0
   -0.9845   -0.6483   -1.2391 O   0  0  0  0  0  0  0  0  0  0  0  0
   -0.5255    1.4660   -0.6046 N   0  0  0  0  0  0  0  0  0  0  0  0
   -0.5797    2.1295    0.1508 H   0  0  0  0  0  0  0  0  0  0  0  0
   -0.0562    1.9446   -1.9059 C   0  0  0  0  0  0  0  0  0  0  0  0
   -0.8772    1.9222   -2.6257 H   0  0  0  0  0  0  0  0  0  0  0  0
    0.3163    2.9665   -1.8232 H   0  0  0  0  0  0  0  0  0  0  0  0
    0.7437    1.2990   -2.2751 H   0  0  0  0  0  0  0  0  0  0  0  0
  5  6  2  0  0  0  0
  5  7  1  0  0  0  0
  2  3  1  0  0  0  0
  2  4  1  0  0  0  0
  2  5  1  0  0  0  0
  1  2  1  0  0  0  0
 29 30  2  0  0  0  0
 29 31  1  0  0  0  0
 26 27  1  0  0  0  0
 26 28  1  0  0  0  0
 23 24  1  0  0  0  0
 23 25  1  0  0  0  0
 22 23  1  0  0  0  0
 22 26  1  0  0  0  0
 20 21  1  0  0  0  0
 20 22  2  0  0  0  0
 17 18  1  0  0  0  0
 17 19  1  0  0  0  0
 17 20  1  0  0  0  0
 14 15  1  0  0  0  0
 14 16  1  0  0  0  0
 14 17  1  0  0  0  0
 11 12  1  0  0  0  0
 11 13  1  0  0  0  0
 11 14  1  0  0  0  0
  9 10  1  0  0  0  0
  9 11  1  0  0  0  0
  9 29  1  0  0  0  0
  7  8  1  0  0  0  0
  7  9  1  0  0  0  0
 33 34  1  0  0  0  0
 33 35  1  0  0  0  0
 33 36  1  0  0  0  0
 31 32  1  0  0  0  0
 31 33  1  0  0  0  0
M  CHG  1  20   1
M  END
$$$$
default_name
  -OEChem-01062215323D

 36 35  0     1  0  0  0  0  0999 V2000
   -4.2256   -3.6731    1.8584 H   0  0  0  0  0  0  0  0  0  0  0  0
   -4.2396   -2.6781    1.4144 C   0  0  0  0  0  0  0  0  0  0  0  0
   -4.9506   -2.0521    1.9514 H   0  0  0  0  0  0  0  0  0  0  0  0
   -4.5266   -2.7521    0.3674 H   0  0  0  0  0  0  0  0  0  0  0  0
   -2.8576   -2.0761    1.5184 C   0  0  0  0  0  0  0  0  0  0  0  0
   -1.9456   -2.7051    2.0404 O   0  0  0  0  0  0  0  0  0  0  0  0
   -2.6926   -0.8481    1.0174 N   0  0  0  0  0  0  0  0  0  0  0  0
   -3.4926   -0.3971    0.5954 H   0  0  0  0  0  0  0  0  0  0  0  0
   -1.4216   -0.1071    1.0434 C   0  0  1  0  0  0  0  0  0  0  0  0
   -1.5781    0.8252    1.5885 H   0  0  0  0  0  0  0  0  0  0  0  0
   -0.3782   -0.9544    1.7990 C   0  0  0  0  0  0  0  0  0  0  0  0
   -0.3391   -1.9461    1.3439 H   0  0  0  0  0  0  0  0  0  0  0  0
    0.6049   -0.4917    1.6886 H   0  0  0  0  0  0  0  0  0  0  0  0
   -0.6921   -1.1212    3.2930 C   0  0  0  0  0  0  0  0  0  0  0  0
   -0.7254   -0.1428    3.7744 H   0  0  0  0  0  0  0  0  0  0  0  0
   -1.6596   -1.6114    3.4058 H   0  0  0  0  0  0  0  0  0  0  0  0
    0.3936   -1.9743    3.9629 C   0  0  0  0  0  0  0  0  0  0  0  0
    0.4382   -2.9418    3.4575 H   0  0  0  0  0  0  0  0  0  0  0  0
    1.3552   -1.4697    3.8437 H   0  0  0  0  0  0  0  0  0  0  0  0
    0.1194   -2.1813    5.3998 N   0  3  0  0  0  0  0  0  0  0  0  0
   -0.6904   -1.7189    5.7763 H   0  0  0  0  0  0  0  0  0  0  0  0
    0.8362   -2.9152    6.2345 C   0  0  0  0  0  0  0  0  0  0  0  0
    1.9045   -3.5565    5.8515 N   0  0  0  0  0  0  0  0  0  0  0  0
    2.1897   -3.4908    4.8904 H   0  0  0  0  0  0  0  0  0  0  0  0
    2.4374   -4.1088    6.4979 H   0  0  0  0  0  0  0  0  0  0  0  0
    0.4897   -3.0192    7.4861 N   0  0  0  0  0  0  0  0  0  0  0  0
   -0.3270   -2.5430    7.8284 H   0  0  0  0  0  0  0  0  0  0  0  0
    1.0363   -3.5771    8.1159 H   0  0  0  0  0  0  0  0  0  0  0  0
   -0.9654    0.2240   -0.3790 C   0  0  0  0  0  0  0  0  0  0  0  0
   -1.2358   -0.5431   -1.2952 O   0  0  0  0  0  0  0  0  0  0  0  0
   -0.2481    1.3397   -0.5450 N   0  0  0  0  0  0  0  0  0  0  0  0
   -0.1043    1.9311    0.2571 H   0  0  0  0  0  0  0  0  0  0  0  0
    0.2623    1.8003   -1.8374 C   0  0  0  0  0  0  0  0  0  0  0  0
   -0.5722    2.0348   -2.5017 H   0  0  0  0  0  0  0  0  0  0  0  0
    0.8751    2.6932   -1.7076 H   0  0  0  0  0  0  0  0  0  0  0  0
    0.8633    1.0160   -2.3027 H   0  0  0  0  0  0  0  0  0  0  0  0
  5  6  2  0  0  0  0
  5  7  1  0  0  0  0
  2  3  1  0  0  0  0
  2  4  1  0  0  0  0
  2  5  1  0  0  0  0
  1  2  1  0  0  0  0
 29 30  2  0  0  0  0
 29 31  1  0  0  0  0
 26 27  1  0  0  0  0
 26 28  1  0  0  0  0
 23 24  1  0  0  0  0
 23 25  1  0  0  0  0
 22 23  1  0  0  0  0
 22 26  1  0  0  0  0
 20 21  1  0  0  0  0
 20 22  2  0  0  0  0
 17 18  1  0  0  0  0
 17 19  1  0  0  0  0
 17 20  1  0  0  0  0
 14 15  1  0  0  0  0
 14 16  1  0  0  0  0
 14 17  1  0  0  0  0
 11 12  1  0  0  0  0
 11 13  1  0  0  0  0
 11 14  1  0  0  0  0
  9 10  1  0  0  0  0
  9 11  1  0  0  0  0
  9 29  1  0  0  0  0
  7  8  1  0  0  0  0
  7  9  1  0  0  0  0
 33 34  1  0  0  0  0
 33 35  1  0  0  0  0
 33 36  1  0  0  0  0
 31 32  1  0  0  0  0
 31 33  1  0  0  0  0
M  CHG  1  20   1
M  END
$$$$
default_name
  -OEChem-01062215323D

 36 35  0     1  0  0  0  0  0999 V2000
   -4.2256   -3.6731    1.8584 H   0  0  0  0  0  0  0  0  0  0  0  0
   -4.2396   -2.6781    1.4144 C   0  0  0  0  0  0  0  0  0  0  0  0
   -4.9506   -2.0521    1.9514 H   0  0  0  0  0  0  0  0  0  0  0  0
   -4.5266   -2.7521    0.3674 H   0  0  0  0  0  0  0  0  0  0  0  0
   -2.8576   -2.0761    1.5184 C   0  0  0  0  0  0  0  0  0  0  0  0
   -1.9456   -2.7051    2.0404 O   0  0  0  0  0  0  0  0  0  0  0  0
   -2.6926   -0.8481    1.0174 N   0  0  0  0  0  0  0  0  0  0  0  0
   -3.4926   -0.3971    0.5954 H   0  0  0  0  0  0  0  0  0  0  0  0
   -1.4216   -0.1071    1.0434 C   0  0  1  0  0  0  0  0  0  0  0  0
   -1.5781    0.8252    1.5885 H   0  0  0  0  0  0  0  0  0  0  0  0
   -0.3782   -0.9544    1.7990 C   0  0  0  0  0  0  0  0  0  0  0  0
   -0.3391   -1.9461    1.3439 H   0  0  0  0  0  0  0  0  0  0  0  0
    0.6049   -0.4917    1.6886 H   0  0  0  0  0  0  0  0  0  0  0  0
   -0.6921   -1.1212    3.2930 C   0  0  0  0  0  0  0  0  0  0  0  0
   -0.7254   -0.1428    3.7744 H   0  0  0  0  0  0  0  0  0  0  0  0
   -1.6596   -1.6114    3.4058 H   0  0  0  0  0  0  0  0  0  0  0  0
    0.3936   -1.9743    3.9629 C   0  0  0  0  0  0  0  0  0  0  0  0
    0.4382   -2.9418    3.4575 H   0  0  0  0  0  0  0  0  0  0  0  0
    1.3552   -1.4697    3.8437 H   0  0  0  0  0  0  0  0  0  0  0  0
    0.1194   -2.1813    5.3998 N   0  3  0  0  0  0  0  0  0  0  0  0
   -0.6904   -1.7189    5.7763 H   0  0  0  0  0  0  0  0  0  0  0  0
    0.8362   -2.9152    6.2345 C   0  0  0  0  0  0  0  0  0  0  0  0
    1.9045   -3.5565    5.8515 N   0  0  0  0  0  0  0  0  0  0  0  0
    2.1897   -3.4908    4.8904 H   0  0  0  0  0  0  0  0  0  0  0  0
    2.4374   -4.1088    6.4979 H   0  0  0  0  0  0  0  0  0  0  0  0
    0.4897   -3.0192    7.4861 N   0  0  0  0  0  0  0  0  0  0  0  0
   -0.3270   -2.5430    7.8284 H   0  0  0  0  0  0  0  0  0  0  0  0
    1.0363   -3.5771    8.1159 H   0  0  0  0  0  0  0  0  0  0  0  0
   -0.9654    0.2240   -0.3790 C   0  0  0  0  0  0  0  0  0  0  0  0
   -1.4564   -0.3767   -1.3272 O   0  0  0  0  0  0  0  0  0  0  0  0
   -0.0072    1.1464   -0.5128 N   0  0  0  0  0  0  0  0  0  0  0  0
    0.3131    1.6170    0.3178 H   0  0  0  0  0  0  0  0  0  0  0  0
    0.5390    1.5790   -1.8002 C   0  0  0  0  0  0  0  0  0  0  0  0
   -0.2436    2.0606   -2.3903 H   0  0  0  0  0  0  0  0  0  0  0  0
    1.3557    2.2858   -1.6483 H   0  0  0  0  0  0  0  0  0  0  0  0
    0.9092    0.7159   -2.3578 H   0  0  0  0  0  0  0  0  0  0  0  0
  5  6  2  0  0  0  0
  5  7  1  0  0  0  0
  2  3  1  0  0  0  0
  2  4  1  0  0  0  0
  2  5  1  0  0  0  0
  1  2  1  0  0  0  0
 29 30  2  0  0  0  0
 29 31  1  0  0  0  0
 26 27  1  0  0  0  0
 26 28  1  0  0  0  0
 23 24  1  0  0  0  0
 23 25  1  0  0  0  0
 22 23  1  0  0  0  0
 22 26  1  0  0  0  0
 20 21  1  0  0  0  0
 20 22  2  0  0  0  0
 17 18  1  0  0  0  0
 17 19  1  0  0  0  0
 17 20  1  0  0  0  0
 14 15  1  0  0  0  0
 14 16  1  0  0  0  0
 14 17  1  0  0  0  0
 11 12  1  0  0  0  0
 11 13  1  0  0  0  0
 11 14  1  0  0  0  0
  9 10  1  0  0  0  0
  9 11  1  0  0  0  0
  9 29  1  0  0  0  0
  7  8  1  0  0  0  0
  7  9  1  0  0  0  0
 33 34  1  0  0  0  0
 33 35  1  0  0  0  0
 33 36  1  0  0  0  0
 31 32  1  0  0  0  0
 31 33  1  0  0  0  0
M  CHG  1  20   1
M  END
$$$$
default_name
  -OEChem-01062215323D

 36 35  0     1  0  0  0  0  0999 V2000
   -4.2256   -3.6731    1.8584 H   0  0  0  0  0  0  0  0  0  0  0  0
   -4.2396   -2.6781    1.4144 C   0  0  0  0  0  0  0  0  0  0  0  0
   -4.9506   -2.0521    1.9514 H   0  0  0  0  0  0  0  0  0  0  0  0
   -4.5266   -2.7521    0.3674 H   0  0  0  0  0  0  0  0  0  0  0  0
   -2.8576   -2.0761    1.5184 C   0  0  0  0  0  0  0  0  0  0  0  0
   -1.9456   -2.7051    2.0404 O   0  0  0  0  0  0  0  0  0  0  0  0
   -2.6926   -0.8481    1.0174 N   0  0  0  0  0  0  0  0  0  0  0  0
   -3.4926   -0.3971    0.5954 H   0  0  0  0  0  0  0  0  0  0  0  0
   -1.4216   -0.1071    1.0434 C   0  0  1  0  0  0  0  0  0  0  0  0
   -1.4958    0.6767    1.7989 H   0  0  0  0  0  0  0  0  0  0  0  0
   -0.2971   -1.0813    1.4481 C   0  0  0  0  0  0  0  0  0  0  0  0
   -0.3280   -1.9454    0.7815 H   0  0  0  0  0  0  0  0  0  0  0  0
    0.6679   -0.5866    1.3175 H   0  0  0  0  0  0  0  0  0  0  0  0
   -0.4144   -1.5834    2.8946 C   0  0  0  0  0  0  0  0  0  0  0  0
   -0.3744   -0.7381    3.5830 H   0  0  0  0  0  0  0  0  0  0  0  0
   -1.3638   -2.1052    3.0195 H   0  0  0  0  0  0  0  0  0  0  0  0
    0.7408   -2.5434    3.2098 C   0  0  0  0  0  0  0  0  0  0  0  0
    0.7089   -3.3726    2.4992 H   0  0  0  0  0  0  0  0  0  0  0  0
    1.6837   -2.0063    3.0828 H   0  0  0  0  0  0  0  0  0  0  0  0
    0.6549   -3.0712    4.5871 N   0  3  0  0  0  0  0  0  0  0  0  0
   -0.0939   -2.7204    5.1594 H   0  0  0  0  0  0  0  0  0  0  0  0
    1.4672   -3.9589    5.1359 C   0  0  0  0  0  0  0  0  0  0  0  0
    2.4696   -4.4777    4.4837 N   0  0  0  0  0  0  0  0  0  0  0  0
    2.6272   -4.1935    3.5330 H   0  0  0  0  0  0  0  0  0  0  0  0
    3.0768   -5.1499    4.9153 H   0  0  0  0  0  0  0  0  0  0  0  0
    1.2864   -4.3464    6.3666 N   0  0  0  0  0  0  0  0  0  0  0  0
    0.5265   -3.9746    6.9099 H   0  0  0  0  0  0  0  0  0  0  0  0
    1.9049   -5.0201    6.7791 H   0  0  0  0  0  0  0  0  0  0  0  0
   -1.1521    0.5420   -0.3156 C   0  0  0  0  0  0  0  0  0  0  0  0
   -1.9408    0.3673   -1.2367 O   0  0  0  0  0  0  0  0  0  0  0  0
   -0.0261    1.2516   -0.4398 N   0  0  0  0  0  0  0  0  0  0  0  0
    0.5461    1.3745    0.3795 H   0  0  0  0  0  0  0  0  0  0  0  0
    0.3789    1.9364   -1.6686 C   0  0  0  0  0  0  0  0  0  0  0  0
   -0.3426    2.7198   -1.9098 H   0  0  0  0  0  0  0  0  0  0  0  0
    1.3648    2.3866   -1.5455 H   0  0  0  0  0  0  0  0  0  0  0  0
    0.4084    1.2275   -2.4990 H   0  0  0  0  0  0  0  0  0  0  0  0
  5  6  2  0  0  0  0
  5  7  1  0  0  0  0
  2  3  1  0  0  0  0
  2  4  1  0  0  0  0
  2  5  1  0  0  0  0
  1  2  1  0  0  0  0
 29 30  2  0  0  0  0
 29 31  1  0  0  0  0
 26 27  1  0  0  0  0
 26 28  1  0  0  0  0
 23 24  1  0  0  0  0
 23 25  1  0  0  0  0
 22 23  1  0  0  0  0
 22 26  1  0  0  0  0
 20 21  1  0  0  0  0
 20 22  2  0  0  0  0
 17 18  1  0  0  0  0
 17 19  1  0  0  0  0
 17 20  1  0  0  0  0
 14 15  1  0  0  0  0
 14 16  1  0  0  0  0
 14 17  1  0  0  0  0
 11 12  1  0  0  0  0
 11 13  1  0  0  0  0
 11 14  1  0  0  0  0
  9 10  1  0  0  0  0
  9 11  1  0  0  0  0
  9 29  1  0  0  0  0
  7  8  1  0  0  0  0
  7  9  1  0  0  0  0
 33 34  1  0  0  0  0
 33 35  1  0  0  0  0
 33 36  1  0  0  0  0
 31 32  1  0  0  0  0
 31 33  1  0  0  0  0
M  CHG  1  20   1
M  END
$$$$
default_name
  -OEChem-01062215323D

 36 35  0     1  0  0  0  0  0999 V2000
   -4.2256   -3.6731    1.8584 H   0  0  0  0  0  0  0  0  0  0  0  0
   -4.2396   -2.6781    1.4144 C   0  0  0  0  0  0  0  0  0  0  0  0
   -4.9506   -2.0521    1.9514 H   0  0  0  0  0  0  0  0  0  0  0  0
   -4.5266   -2.7521    0.3674 H   0  0  0  0  0  0  0  0  0  0  0  0
   -2.8576   -2.0761    1.5184 C   0  0  0  0  0  0  0  0  0  0  0  0
   -1.9456   -2.7051    2.0404 O   0  0  0  0  0  0  0  0  0  0  0  0
   -2.6926   -0.8481    1.0174 N   0  0  0  0  0  0  0  0  0  0  0  0
   -3.4926   -0.3971    0.5954 H   0  0  0  0  0  0  0  0  0  0  0  0
   -1.4216   -0.1071    1.0434 C   0  0  1  0  0  0  0  0  0  0  0  0
   -1.4958    0.6767    1.7989 H   0  0  0  0  0  0  0  0  0  0  0  0
   -0.2971   -1.0813    1.4481 C   0  0  0  0  0  0  0  0  0  0  0  0
   -0.3280   -1.9454    0.7815 H   0  0  0  0  0  0  0  0  0  0  0  0
    0.6679   -0.5866    1.3175 H   0  0  0  0  0  0  0  0  0  0  0  0
   -0.4144   -1.5834    2.8946 C   0  0  0  0  0  0  0  0  0  0  0  0
   -0.3744   -0.7381    3.5830 H   0  0  0  0  0  0  0  0  0  0  0  0
   -1.3638   -2.1052    3.0195 H   0  0  0  0  0  0  0  0  0  0  0  0
    0.7408   -2.5434    3.2098 C   0  0  0  0  0  0  0  0  0  0  0  0
    0.7089   -3.3726    2.4992 H   0  0  0  0  0  0  0  0  0  0  0  0
    1.6837   -2.0063    3.0828 H   0  0  0  0  0  0  0  0  0  0  0  0
    0.6549   -3.0712    4.5871 N   0  3  0  0  0  0  0  0  0  0  0  0
   -0.0939   -2.7204    5.1594 H   0  0  0  0  0  0  0  0  0  0  0  0
    1.4672   -3.9589    5.1359 C   0  0  0  0  0  0  0  0  0  0  0  0
    2.4696   -4.4777    4.4837 N   0  0  0  0  0  0  0  0  0  0  0  0
    2.6272   -4.1935    3.5330 H   0  0  0  0  0  0  0  0  0  0  0  0
    3.0768   -5.1499    4.9153 H   0  0  0  0  0  0  0  0  0  0  0  0
    1.2864   -4.3464    6.3666 N   0  0  0  0  0  0  0  0  0  0  0  0
    0.5265   -3.9746    6.9099 H   0  0  0  0  0  0  0  0  0  0  0  0
    1.9049   -5.0201    6.7791 H   0  0  0  0  0  0  0  0  0  0  0  0
   -1.1521    0.5420   -0.3156 C   0  0  0  0  0  0  0  0  0  0  0  0
   -2.0516    0.6054   -1.1450 O   0  0  0  0  0  0  0  0  0  0  0  0
    0.0887    0.9830   -0.5454 N   0  0  0  0  0  0  0  0  0  0  0  0
    0.7562    0.9246    0.2063 H   0  0  0  0  0  0  0  0  0  0  0  0
    0.5111    1.6284   -1.7895 C   0  0  0  0  0  0  0  0  0  0  0  0
   -0.0297    2.5681   -1.9202 H   0  0  0  0  0  0  0  0  0  0  0  0
    1.5819    1.8347   -1.7660 H   0  0  0  0  0  0  0  0  0  0  0  0
    0.2881    0.9811   -2.6405 H   0  0  0  0  0  0  0  0  0  0  0  0
  5  6  2  0  0  0  0
  5  7  1  0  0  0  0
  2  3  1  0  0  0  0
  2  4  1  0  0  0  0
  2  5  1  0  0  0  0
  1  2  1  0  0  0  0
 29 30  2  0  0  0  0
 29 31  1  0  0  0  0
 26 27  1  0  0  0  0
 26 28  1  0  0  0  0
 23 24  1  0  0  0  0
 23 25  1  0  0  0  0
 22 23  1  0  0  0  0
 22 26  1  0  0  0  0
 20 21  1  0  0  0  0
 20 22  2  0  0  0  0
 17 18  1  0  0  0  0
 17 19  1  0  0  0  0
 17 20  1  0  0  0  0
 14 15  1  0  0  0  0
 14 16  1  0  0  0  0
 14 17  1  0  0  0  0
 11 12  1  0  0  0  0
 11 13  1  0  0  0  0
 11 14  1  0  0  0  0
  9 10  1  0  0  0  0
  9 11  1  0  0  0  0
  9 29  1  0  0  0  0
  7  8  1  0  0  0  0
  7  9  1  0  0  0  0
 33 34  1  0  0  0  0
 33 35  1  0  0  0  0
 33 36  1  0  0  0  0
 31 32  1  0  0  0  0
 31 33  1  0  0  0  0
M  CHG  1  20   1
M  END
$$$$
default_name
  -OEChem-01062215323D

 36 35  0     1  0  0  0  0  0999 V2000
   -4.2256   -3.6731    1.8584 H   0  0  0  0  0  0  0  0  0  0  0  0
   -4.2396   -2.6781    1.4144 C   0  0  0  0  0  0  0  0  0  0  0  0
   -4.9506   -2.0521    1.9514 H   0  0  0  0  0  0  0  0  0  0  0  0
   -4.5266   -2.7521    0.3674 H   0  0  0  0  0  0  0  0  0  0  0  0
   -2.8576   -2.0761    1.5184 C   0  0  0  0  0  0  0  0  0  0  0  0
   -1.9456   -2.7051    2.0404 O   0  0  0  0  0  0  0  0  0  0  0  0
   -2.6926   -0.8481    1.0174 N   0  0  0  0  0  0  0  0  0  0  0  0
   -3.4926   -0.3971    0.5954 H   0  0  0  0  0  0  0  0  0  0  0  0
   -1.4216   -0.1071    1.0434 C   0  0  1  0  0  0  0  0  0  0  0  0
   -1.4958    0.6767    1.7989 H   0  0  0  0  0  0  0  0  0  0  0  0
   -0.2971   -1.0813    1.4481 C   0  0  0  0  0  0  0  0  0  0  0  0
   -0.3280   -1.9454    0.7815 H   0  0  0  0  0  0  0  0  0  0  0  0
    0.6679   -0.5866    1.3175 H   0  0  0  0  0  0  0  0  0  0  0  0
   -0.4144   -1.5834    2.8946 C   0  0  0  0  0  0  0  0  0  0  0  0
   -0.3744   -0.7381    3.5830 H   0  0  0  0  0  0  0  0  0  0  0  0
   -1.3638   -2.1052    3.0195 H   0  0  0  0  0  0  0  0  0  0  0  0
    0.7408   -2.5434    3.2098 C   0  0  0  0  0  0  0  0  0  0  0  0
    0.7089   -3.3726    2.4992 H   0  0  0  0  0  0  0  0  0  0  0  0
    1.6837   -2.0063    3.0828 H   0  0  0  0  0  0  0  0  0  0  0  0
    0.6549   -3.0712    4.5871 N   0  3  0  0  0  0  0  0  0  0  0  0
   -0.0939   -2.7204    5.1594 H   0  0  0  0  0  0  0  0  0  0  0  0
    1.4672   -3.9589    5.1359 C   0  0  0  0  0  0  0  0  0  0  0  0
    2.4696   -4.4777    4.4837 N   0  0  0  0  0  0  0  0  0  0  0  0
    2.6272   -4.1935    3.5330 H   0  0  0  0  0  0  0  0  0  0  0  0
    3.0768   -5.1499    4.9153 H   0  0  0  0  0  0  0  0  0  0  0  0
    1.2864   -4.3464    6.3666 N   0  0  0  0  0  0  0  0  0  0  0  0
    0.5265   -3.9746    6.9099 H   0  0  0  0  0  0  0  0  0  0  0  0
    1.9049   -5.0201    6.7791 H   0  0  0  0  0  0  0  0  0  0  0  0
   -1.1521    0.5420   -0.3156 C   0  0  0  0  0  0  0  0  0  0  0  0
   -2.0939    0.8566   -1.0334 O   0  0  0  0  0  0  0  0  0  0  0  0
    0.1262    0.7020   -0.6721 N   0  0  0  0  0  0  0  0  0  0  0  0
    0.8366    0.4496   -0.0047 H   0  0  0  0  0  0  0  0  0  0  0  0
    0.5547    1.3060   -1.9348 C   0  0  0  0  0  0  0  0  0  0  0  0
    0.2365    2.3501   -1.9715 H   0  0  0  0  0  0  0  0  0  0  0  0
    1.6406    1.2618   -2.0281 H   0  0  0  0  0  0  0  0  0  0  0  0
    0.0997    0.7773   -2.7752 H   0  0  0  0  0  0  0  0  0  0  0  0
  5  6  2  0  0  0  0
  5  7  1  0  0  0  0
  2  3  1  0  0  0  0
  2  4  1  0  0  0  0
  2  5  1  0  0  0  0
  1  2  1  0  0  0  0
 29 30  2  0  0  0  0
 29 31  1  0  0  0  0
 26 27  1  0  0  0  0
 26 28  1  0  0  0  0
 23 24  1  0  0  0  0
 23 25  1  0  0  0  0
 22 23  1  0  0  0  0
 22 26  1  0  0  0  0
 20 21  1  0  0  0  0
 20 22  2  0  0  0  0
 17 18  1  0  0  0  0
 17 19  1  0  0  0  0
 17 20  1  0  0  0  0
 14 15  1  0  0  0  0
 14 16  1  0  0  0  0
 14 17  1  0  0  0  0
 11 12  1  0  0  0  0
 11 13  1  0  0  0  0
 11 14  1  0  0  0  0
  9 10  1  0  0  0  0
  9 11  1  0  0  0  0
  9 29  1  0  0  0  0
  7  8  1  0  0  0  0
  7  9  1  0  0  0  0
 33 34  1  0  0  0  0
 33 35  1  0  0  0  0
 33 36  1  0  0  0  0
 31 32  1  0  0  0  0
 31 33  1  0  0  0  0
M  CHG  1  20   1
M  END
$$$$
default_name
  -OEChem-01062215323D

 36 35  0     1  0  0  0  0  0999 V2000
   -4.2256   -3.6731    1.8584 H   0  0  0  0  0  0  0  0  0  0  0  0
   -4.2396   -2.6781    1.4144 C   0  0  0  0  0  0  0  0  0  0  0  0
   -4.9506   -2.0521    1.9514 H   0  0  0  0  0  0  0  0  0  0  0  0
   -4.5266   -2.7521    0.3674 H   0  0  0  0  0  0  0  0  0  0  0  0
   -2.8576   -2.0761    1.5184 C   0  0  0  0  0  0  0  0  0  0  0  0
   -1.9456   -2.7051    2.0404 O   0  0  0  0  0  0  0  0  0  0  0  0
   -2.6926   -0.8481    1.0174 N   0  0  0  0  0  0  0  0  0  0  0  0
   -3.4926   -0.3971    0.5954 H   0  0  0  0  0  0  0  0  0  0  0  0
   -1.4216   -0.1071    1.0434 C   0  0  1  0  0  0  0  0  0  0  0  0
   -1.4958    0.6767    1.7989 H   0  0  0  0  0  0  0  0  0  0  0  0
   -0.2971   -1.0813    1.4481 C   0  0  0  0  0  0  0  0  0  0  0  0
   -0.3280   -1.9454    0.7815 H   0  0  0  0  0  0  0  0  0  0  0  0
    0.6679   -0.5866    1.3175 H   0  0  0  0  0  0  0  0  0  0  0  0
   -0.4144   -1.5834    2.8946 C   0  0  0  0  0  0  0  0  0  0  0  0
   -0.3744   -0.7381    3.5830 H   0  0  0  0  0  0  0  0  0  0  0  0
   -1.3638   -2.1052    3.0195 H   0  0  0  0  0  0  0  0  0  0  0  0
    0.7408   -2.5434    3.2098 C   0  0  0  0  0  0  0  0  0  0  0  0
    0.7089   -3.3726    2.4992 H   0  0  0  0  0  0  0  0  0  0  0  0
    1.6837   -2.0063    3.0828 H   0  0  0  0  0  0  0  0  0  0  0  0
    0.6549   -3.0712    4.5871 N   0  3  0  0  0  0  0  0  0  0  0  0
   -0.0939   -2.7204    5.1594 H   0  0  0  0  0  0  0  0  0  0  0  0
    1.4672   -3.9589    5.1359 C   0  0  0  0  0  0  0  0  0  0  0  0
    2.4696   -4.4777    4.4837 N   0  0  0  0  0  0  0  0  0  0  0  0
    2.6272   -4.1935    3.5330 H   0  0  0  0  0  0  0  0  0  0  0  0
    3.0768   -5.1499    4.9153 H   0  0  0  0  0  0  0  0  0  0  0  0
    1.2864   -4.3464    6.3666 N   0  0  0  0  0  0  0  0  0  0  0  0
    0.5265   -3.9746    6.9099 H   0  0  0  0  0  0  0  0  0  0  0  0
    1.9049   -5.0201    6.7791 H   0  0  0  0  0  0  0  0  0  0  0  0
   -1.1521    0.5420   -0.3156 C   0  0  0  0  0  0  0  0  0  0  0  0
   -2.0646    1.1038   -0.9095 O   0  0  0  0  0  0  0  0  0  0  0  0
    0.0840    0.4278   -0.8115 N   0  0  0  0  0  0  0  0  0  0  0  0
    0.7820   -0.0181   -0.2389 H   0  0  0  0  0  0  0  0  0  0  0  0
    0.5068    0.9913   -2.0947 C   0  0  0  0  0  0  0  0  0  0  0  0
    0.4379    2.0806   -2.0603 H   0  0  0  0  0  0  0  0  0  0  0  0
    1.5368    0.7068   -2.3137 H   0  0  0  0  0  0  0  0  0  0  0  0
   -0.1439    0.6298   -2.8939 H   0  0  0  0  0  0  0  0  0  0  0  0
  5  6  2  0  0  0  0
  5  7  1  0  0  0  0
  2  3  1  0  0  0  0
  2  4  1  0  0  0  0
  2  5  1  0  0  0  0
  1  2  1  0  0  0  0
 29 30  2  0  0  0  0
 29 31  1  0  0  0  0
 26 27  1  0  0  0  0
 26 28  1  0  0  0  0
 23 24  1  0  0  0  0
 23 25  1  0  0  0  0
 22 23  1  0  0  0  0
 22 26  1  0  0  0  0
 20 21  1  0  0  0  0
 20 22  2  0  0  0  0
 17 18  1  0  0  0  0
 17 19  1  0  0  0  0
 17 20  1  0  0  0  0
 14 15  1  0  0  0  0
 14 16  1  0  0  0  0
 14 17  1  0  0  0  0
 11 12  1  0  0  0  0
 11 13  1  0  0  0  0
 11 14  1  0  0  0  0
  9 10  1  0  0  0  0
  9 11  1  0  0  0  0
  9 29  1  0  0  0  0
  7  8  1  0  0  0  0
  7  9  1  0  0  0  0
 33 34  1  0  0  0  0
 33 35  1  0  0  0  0
 33 36  1  0  0  0  0
 31 32  1  0  0  0  0
 31 33  1  0  0  0  0
M  CHG  1  20   1
M  END
$$$$
default_name
  -OEChem-01062215323D

 36 35  0     1  0  0  0  0  0999 V2000
   -4.2256   -3.6731    1.8584 H   0  0  0  0  0  0  0  0  0  0  0  0
   -4.2396   -2.6781    1.4144 C   0  0  0  0  0  0  0  0  0  0  0  0
   -4.9506   -2.0521    1.9514 H   0  0  0  0  0  0  0  0  0  0  0  0
   -4.5266   -2.7521    0.3674 H   0  0  0  0  0  0  0  0  0  0  0  0
   -2.8576   -2.0761    1.5184 C   0  0  0  0  0  0  0  0  0  0  0  0
   -1.9456   -2.7051    2.0404 O   0  0  0  0  0  0  0  0  0  0  0  0
   -2.6926   -0.8481    1.0174 N   0  0  0  0  0  0  0  0  0  0  0  0
   -3.4926   -0.3971    0.5954 H   0  0  0  0  0  0  0  0  0  0  0  0
   -1.4216   -0.1071    1.0434 C   0  0  1  0  0  0  0  0  0  0  0  0
   -1.4958    0.6767    1.7989 H   0  0  0  0  0  0  0  0  0  0  0  0
   -0.2971   -1.0813    1.4481 C   0  0  0  0  0  0  0  0  0  0  0  0
   -0.3280   -1.9454    0.7815 H   0  0  0  0  0  0  0  0  0  0  0  0
    0.6679   -0.5866    1.3175 H   0  0  0  0  0  0  0  0  0  0  0  0
   -0.4144   -1.5834    2.8946 C   0  0  0  0  0  0  0  0  0  0  0  0
   -0.3744   -0.7381    3.5830 H   0  0  0  0  0  0  0  0  0  0  0  0
   -1.3638   -2.1052    3.0195 H   0  0  0  0  0  0  0  0  0  0  0  0
    0.7408   -2.5434    3.2098 C   0  0  0  0  0  0  0  0  0  0  0  0
    0.7089   -3.3726    2.4992 H   0  0  0  0  0  0  0  0  0  0  0  0
    1.6837   -2.0063    3.0828 H   0  0  0  0  0  0  0  0  0  0  0  0
    0.6549   -3.0712    4.5871 N   0  3  0  0  0  0  0  0  0  0  0  0
   -0.0939   -2.7204    5.1594 H   0  0  0  0  0  0  0  0  0  0  0  0
    1.4672   -3.9589    5.1359 C   0  0  0  0  0  0  0  0  0  0  0  0
    2.4696   -4.4777    4.4837 N   0  0  0  0  0  0  0  0  0  0  0  0
    2.6272   -4.1935    3.5330 H   0  0  0  0  0  0  0  0  0  0  0  0
    3.0768   -5.1499    4.9153 H   0  0  0  0  0  0  0  0  0  0  0  0
    1.2864   -4.3464    6.3666 N   0  0  0  0  0  0  0  0  0  0  0  0
    0.5265   -3.9746    6.9099 H   0  0  0  0  0  0  0  0  0  0  0  0
    1.9049   -5.0201    6.7791 H   0  0  0  0  0  0  0  0  0  0  0  0
   -1.1521    0.5420   -0.3156 C   0  0  0  0  0  0  0  0  0  0  0  0
   -1.9660    1.3303   -0.7817 O   0  0  0  0  0  0  0  0  0  0  0  0
   -0.0352    0.1789   -0.9540 N   0  0  0  0  0  0  0  0  0  0  0  0
    0.5959   -0.4467   -0.4805 H   0  0  0  0  0  0  0  0  0  0  0  0
    0.3706    0.7055   -2.2582 C   0  0  0  0  0  0  0  0  0  0  0  0
    0.5608    1.7781   -2.1804 H   0  0  0  0  0  0  0  0  0  0  0  0
    1.2775    0.2077   -2.6036 H   0  0  0  0  0  0  0  0  0  0  0  0
   -0.4262    0.5488   -2.9886 H   0  0  0  0  0  0  0  0  0  0  0  0
  5  6  2  0  0  0  0
  5  7  1  0  0  0  0
  2  3  1  0  0  0  0
  2  4  1  0  0  0  0
  2  5  1  0  0  0  0
  1  2  1  0  0  0  0
 29 30  2  0  0  0  0
 29 31  1  0  0  0  0
 26 27  1  0  0  0  0
 26 28  1  0  0  0  0
 23 24  1  0  0  0  0
 23 25  1  0  0  0  0
 22 23  1  0  0  0  0
 22 26  1  0  0  0  0
 20 21  1  0  0  0  0
 20 22  2  0  0  0  0
 17 18  1  0  0  0  0
 17 19  1  0  0  0  0
 17 20  1  0  0  0  0
 14 15  1  0  0  0  0
 14 16  1  0  0  0  0
 14 17  1  0  0  0  0
 11 12  1  0  0  0  0
 11 13  1  0  0  0  0
 11 14  1  0  0  0  0
  9 10  1  0  0  0  0
  9 11  1  0  0  0  0
  9 29  1  0  0  0  0
  7  8  1  0  0  0  0
  7  9  1  0  0  0  0
 33 34  1  0  0  0  0
 33 35  1  0  0  0  0
 33 36  1  0  0  0  0
 31 32  1  0  0  0  0
 31 33  1  0  0  0  0
M  CHG  1  20   1
M  END
$$$$
default_name
  -OEChem-01062215323D

 36 35  0     1  0  0  0  0  0999 V2000
   -4.2256   -3.6731    1.8584 H   0  0  0  0  0  0  0  0  0  0  0  0
   -4.2396   -2.6781    1.4144 C   0  0  0  0  0  0  0  0  0  0  0  0
   -4.9506   -2.0521    1.9514 H   0  0  0  0  0  0  0  0  0  0  0  0
   -4.5266   -2.7521    0.3674 H   0  0  0  0  0  0  0  0  0  0  0  0
   -2.8576   -2.0761    1.5184 C   0  0  0  0  0  0  0  0  0  0  0  0
   -1.9456   -2.7051    2.0404 O   0  0  0  0  0  0  0  0  0  0  0  0
   -2.6926   -0.8481    1.0174 N   0  0  0  0  0  0  0  0  0  0  0  0
   -3.4926   -0.3971    0.5954 H   0  0  0  0  0  0  0  0  0  0  0  0
   -1.4216   -0.1071    1.0434 C   0  0  1  0  0  0  0  0  0  0  0  0
   -1.4958    0.6767    1.7989 H   0  0  0  0  0  0  0  0  0  0  0  0
   -0.2971   -1.0813    1.4481 C   0  0  0  0  0  0  0  0  0  0  0  0
   -0.3280   -1.9454    0.7815 H   0  0  0  0  0  0  0  0  0  0  0  0
    0.6679   -0.5866    1.3175 H   0  0  0  0  0  0  0  0  0  0  0  0
   -0.4144   -1.5834    2.8946 C   0  0  0  0  0  0  0  0  0  0  0  0
   -0.3744   -0.7381    3.5830 H   0  0  0  0  0  0  0  0  0  0  0  0
   -1.3638   -2.1052    3.0195 H   0  0  0  0  0  0  0  0  0  0  0  0
    0.7408   -2.5434    3.2098 C   0  0  0  0  0  0  0  0  0  0  0  0
    0.7089   -3.3726    2.4992 H   0  0  0  0  0  0  0  0  0  0  0  0
    1.6837   -2.0063    3.0828 H   0  0  0  0  0  0  0  0  0  0  0  0
    0.6549   -3.0712    4.5871 N   0  3  0  0  0  0  0  0  0  0  0  0
   -0.0939   -2.7204    5.1594 H   0  0  0  0  0  0  0  0  0  0  0  0
    1.4672   -3.9589    5.1359 C   0  0  0  0  0  0  0  0  0  0  0  0
    2.4696   -4.4777    4.4837 N   0  0  0  0  0  0  0  0  0  0  0  0
    2.6272   -4.1935    3.5330 H   0  0  0  0  0  0  0  0  0  0  0  0
    3.0768   -5.1499    4.9153 H   0  0  0  0  0  0  0  0  0  0  0  0
    1.2864   -4.3464    6.3666 N   0  0  0  0  0  0  0  0  0  0  0  0
    0.5265   -3.9746    6.9099 H   0  0  0  0  0  0  0  0  0  0  0  0
    1.9049   -5.0201    6.7791 H   0  0  0  0  0  0  0  0  0  0  0  0
   -1.1521    0.5420   -0.3156 C   0  0  0  0  0  0  0  0  0  0  0  0
   -1.8046    1.5206   -0.6588 O   0  0  0  0  0  0  0  0  0  0  0  0
   -0.2232   -0.0275   -1.0899 N   0  0  0  0  0  0  0  0  0  0  0  0
    0.2912   -0.8068   -0.7130 H   0  0  0  0  0  0  0  0  0  0  0  0
    0.1553    0.4683   -2.4142 C   0  0  0  0  0  0  0  0  0  0  0  0
    0.5967    1.4631   -2.3238 H   0  0  0  0  0  0  0  0  0  0  0  0
    0.8806   -0.2016   -2.8778 H   0  0  0  0  0  0  0  0  0  0  0  0
   -0.7278    0.5398   -3.0527 H   0  0  0  0  0  0  0  0  0  0  0  0
  5  6  2  0  0  0  0
  5  7  1  0  0  0  0
  2  3  1  0  0  0  0
  2  4  1  0  0  0  0
  2  5  1  0  0  0  0
  1  2  1  0  0  0  0
 29 30  2  0  0  0  0
 29 31  1  0  0  0  0
 26 27  1  0  0  0  0
 26 28  1  0  0  0  0
 23 24  1  0  0  0  0
 23 25  1  0  0  0  0
 22 23  1  0  0  0  0
 22 26  1  0  0  0  0
 20 21  1  0  0  0  0
 20 22  2  0  0  0  0
 17 18  1  0  0  0  0
 17 19  1  0  0  0  0
 17 20  1  0  0  0  0
 14 15  1  0  0  0  0
 14 16  1  0  0  0  0
 14 17  1  0  0  0  0
 11 12  1  0  0  0  0
 11 13  1  0  0  0  0
 11 14  1  0  0  0  0
  9 10  1  0  0  0  0
  9 11  1  0  0  0  0
  9 29  1  0  0  0  0
  7  8  1  0  0  0  0
  7  9  1  0  0  0  0
 33 34  1  0  0  0  0
 33 35  1  0  0  0  0
 33 36  1  0  0  0  0
 31 32  1  0  0  0  0
 31 33  1  0  0  0  0
M  CHG  1  20   1
M  END
$$$$
default_name
  -OEChem-01062215323D

 36 35  0     1  0  0  0  0  0999 V2000
   -4.2256   -3.6731    1.8584 H   0  0  0  0  0  0  0  0  0  0  0  0
   -4.2396   -2.6781    1.4144 C   0  0  0  0  0  0  0  0  0  0  0  0
   -4.9506   -2.0521    1.9514 H   0  0  0  0  0  0  0  0  0  0  0  0
   -4.5266   -2.7521    0.3674 H   0  0  0  0  0  0  0  0  0  0  0  0
   -2.8576   -2.0761    1.5184 C   0  0  0  0  0  0  0  0  0  0  0  0
   -1.9456   -2.7051    2.0404 O   0  0  0  0  0  0  0  0  0  0  0  0
   -2.6926   -0.8481    1.0174 N   0  0  0  0  0  0  0  0  0  0  0  0
   -3.4926   -0.3971    0.5954 H   0  0  0  0  0  0  0  0  0  0  0  0
   -1.4216   -0.1071    1.0434 C   0  0  1  0  0  0  0  0  0  0  0  0
   -1.4958    0.6767    1.7989 H   0  0  0  0  0  0  0  0  0  0  0  0
   -0.2971   -1.0813    1.4481 C   0  0  0  0  0  0  0  0  0  0  0  0
   -0.3280   -1.9454    0.7815 H   0  0  0  0  0  0  0  0  0  0  0  0
    0.6679   -0.5866    1.3175 H   0  0  0  0  0  0  0  0  0  0  0  0
   -0.4144   -1.5834    2.8946 C   0  0  0  0  0  0  0  0  0  0  0  0
   -0.3744   -0.7381    3.5830 H   0  0  0  0  0  0  0  0  0  0  0  0
   -1.3638   -2.1052    3.0195 H   0  0  0  0  0  0  0  0  0  0  0  0
    0.7408   -2.5434    3.2098 C   0  0  0  0  0  0  0  0  0  0  0  0
    0.7089   -3.3726    2.4992 H   0  0  0  0  0  0  0  0  0  0  0  0
    1.6837   -2.0063    3.0828 H   0  0  0  0  0  0  0  0  0  0  0  0
    0.6549   -3.0712    4.5871 N   0  3  0  0  0  0  0  0  0  0  0  0
   -0.0939   -2.7204    5.1594 H   0  0  0  0  0  0  0  0  0  0  0  0
    1.4672   -3.9589    5.1359 C   0  0  0  0  0  0  0  0  0  0  0  0
    2.4696   -4.4777    4.4837 N   0  0  0  0  0  0  0  0  0  0  0  0
    2.6272   -4.1935    3.5330 H   0  0  0  0  0  0  0  0  0  0  0  0
    3.0768   -5.1499    4.9153 H   0  0  0  0  0  0  0  0  0  0  0  0
    1.2864   -4.3464    6.3666 N   0  0  0  0  0  0  0  0  0  0  0  0
    0.5265   -3.9746    6.9099 H   0  0  0  0  0  0  0  0  0  0  0  0
    1.9049   -5.0201    6.7791 H   0  0  0  0  0  0  0  0  0  0  0  0
   -1.1521    0.5420   -0.3156 C   0  0  0  0  0  0  0  0  0  0  0  0
   -1.5914    1.6616   -0.5492 O   0  0  0  0  0  0  0  0  0  0  0  0
   -0.4671   -0.1776   -1.2099 N   0  0  0  0  0  0  0  0  0  0  0  0
   -0.1115   -1.0740   -0.9205 H   0  0  0  0  0  0  0  0  0  0  0  0
   -0.1242    0.2957   -2.5520 C   0  0  0  0  0  0  0  0  0  0  0  0
    0.5433    1.1571   -2.4805 H   0  0  0  0  0  0  0  0  0  0  0  0
    0.3729   -0.4933   -3.1178 H   0  0  0  0  0  0  0  0  0  0  0  0
   -1.0283    0.6033   -3.0820 H   0  0  0  0  0  0  0  0  0  0  0  0
  5  6  2  0  0  0  0
  5  7  1  0  0  0  0
  2  3  1  0  0  0  0
  2  4  1  0  0  0  0
  2  5  1  0  0  0  0
  1  2  1  0  0  0  0
 29 30  2  0  0  0  0
 29 31  1  0  0  0  0
 26 27  1  0  0  0  0
 26 28  1  0  0  0  0
 23 24  1  0  0  0  0
 23 25  1  0  0  0  0
 22 23  1  0  0  0  0
 22 26  1  0  0  0  0
 20 21  1  0  0  0  0
 20 22  2  0  0  0  0
 17 18  1  0  0  0  0
 17 19  1  0  0  0  0
 17 20  1  0  0  0  0
 14 15  1  0  0  0  0
 14 16  1  0  0  0  0
 14 17  1  0  0  0  0
 11 12  1  0  0  0  0
 11 13  1  0  0  0  0
 11 14  1  0  0  0  0
  9 10  1  0  0  0  0
  9 11  1  0  0  0  0
  9 29  1  0  0  0  0
  7  8  1  0  0  0  0
  7  9  1  0  0  0  0
 33 34  1  0  0  0  0
 33 35  1  0  0  0  0
 33 36  1  0  0  0  0
 31 32  1  0  0  0  0
 31 33  1  0  0  0  0
M  CHG  1  20   1
M  END
$$$$
default_name
  -OEChem-01062215323D

 36 35  0     1  0  0  0  0  0999 V2000
   -4.2256   -3.6731    1.8584 H   0  0  0  0  0  0  0  0  0  0  0  0
   -4.2396   -2.6781    1.4144 C   0  0  0  0  0  0  0  0  0  0  0  0
   -4.9506   -2.0521    1.9514 H   0  0  0  0  0  0  0  0  0  0  0  0
   -4.5266   -2.7521    0.3674 H   0  0  0  0  0  0  0  0  0  0  0  0
   -2.8576   -2.0761    1.5184 C   0  0  0  0  0  0  0  0  0  0  0  0
   -1.9456   -2.7051    2.0404 O   0  0  0  0  0  0  0  0  0  0  0  0
   -2.6926   -0.8481    1.0174 N   0  0  0  0  0  0  0  0  0  0  0  0
   -3.4926   -0.3971    0.5954 H   0  0  0  0  0  0  0  0  0  0  0  0
   -1.4216   -0.1071    1.0434 C   0  0  1  0  0  0  0  0  0  0  0  0
   -1.4958    0.6767    1.7989 H   0  0  0  0  0  0  0  0  0  0  0  0
   -0.2971   -1.0813    1.4481 C   0  0  0  0  0  0  0  0  0  0  0  0
   -0.3280   -1.9454    0.7815 H   0  0  0  0  0  0  0  0  0  0  0  0
    0.6679   -0.5866    1.3175 H   0  0  0  0  0  0  0  0  0  0  0  0
   -0.4144   -1.5834    2.8946 C   0  0  0  0  0  0  0  0  0  0  0  0
   -0.3744   -0.7381    3.5830 H   0  0  0  0  0  0  0  0  0  0  0  0
   -1.3638   -2.1052    3.0195 H   0  0  0  0  0  0  0  0  0  0  0  0
    0.7408   -2.5434    3.2098 C   0  0  0  0  0  0  0  0  0  0  0  0
    0.7089   -3.3726    2.4992 H   0  0  0  0  0  0  0  0  0  0  0  0
    1.6837   -2.0063    3.0828 H   0  0  0  0  0  0  0  0  0  0  0  0
    0.6549   -3.0712    4.5871 N   0  3  0  0  0  0  0  0  0  0  0  0
   -0.0939   -2.7204    5.1594 H   0  0  0  0  0  0  0  0  0  0  0  0
    1.4672   -3.9589    5.1359 C   0  0  0  0  0  0  0  0  0  0  0  0
    2.4696   -4.4777    4.4837 N   0  0  0  0  0  0  0  0  0  0  0  0
    2.6272   -4.1935    3.5330 H   0  0  0  0  0  0  0  0  0  0  0  0
    3.0768   -5.1499    4.9153 H   0  0  0  0  0  0  0  0  0  0  0  0
    1.2864   -4.3464    6.3666 N   0  0  0  0  0  0  0  0  0  0  0  0
    0.5265   -3.9746    6.9099 H   0  0  0  0  0  0  0  0  0  0  0  0
    1.9049   -5.0201    6.7791 H   0  0  0  0  0  0  0  0  0  0  0  0
   -1.1521    0.5420   -0.3156 C   0  0  0  0  0  0  0  0  0  0  0  0
   -1.3411    1.7439   -0.4603 O   0  0  0  0  0  0  0  0  0  0  0  0
   -0.7504   -0.2609   -1.3059 N   0  0  0  0  0  0  0  0  0  0  0  0
   -0.5847   -1.2301   -1.0888 H   0  0  0  0  0  0  0  0  0  0  0  0
   -0.4491    0.1996   -2.6624 C   0  0  0  0  0  0  0  0  0  0  0  0
    0.4041    0.8810   -2.6400 H   0  0  0  0  0  0  0  0  0  0  0  0
   -0.2109   -0.6473   -3.3071 H   0  0  0  0  0  0  0  0  0  0  0  0
   -1.3072    0.7351   -3.0743 H   0  0  0  0  0  0  0  0  0  0  0  0
  5  6  2  0  0  0  0
  5  7  1  0  0  0  0
  2  3  1  0  0  0  0
  2  4  1  0  0  0  0
  2  5  1  0  0  0  0
  1  2  1  0  0  0  0
 29 30  2  0  0  0  0
 29 31  1  0  0  0  0
 26 27  1  0  0  0  0
 26 28  1  0  0  0  0
 23 24  1  0  0  0  0
 23 25  1  0  0  0  0
 22 23  1  0  0  0  0
 22 26  1  0  0  0  0
 20 21  1  0  0  0  0
 20 22  2  0  0  0  0
 17 18  1  0  0  0  0
 17 19  1  0  0  0  0
 17 20  1  0  0  0  0
 14 15  1  0  0  0  0
 14 16  1  0  0  0  0
 14 17  1  0  0  0  0
 11 12  1  0  0  0  0
 11 13  1  0  0  0  0
 11 14  1  0  0  0  0
  9 10  1  0  0  0  0
  9 11  1  0  0  0  0
  9 29  1  0  0  0  0
  7  8  1  0  0  0  0
  7  9  1  0  0  0  0
 33 34  1  0  0  0  0
 33 35  1  0  0  0  0
 33 36  1  0  0  0  0
 31 32  1  0  0  0  0
 31 33  1  0  0  0  0
M  CHG  1  20   1
M  END
$$$$
default_name
  -OEChem-01062215323D

 36 35  0     1  0  0  0  0  0999 V2000
   -4.2256   -3.6731    1.8584 H   0  0  0  0  0  0  0  0  0  0  0  0
   -4.2396   -2.6781    1.4144 C   0  0  0  0  0  0  0  0  0  0  0  0
   -4.9506   -2.0521    1.9514 H   0  0  0  0  0  0  0  0  0  0  0  0
   -4.5266   -2.7521    0.3674 H   0  0  0  0  0  0  0  0  0  0  0  0
   -2.8576   -2.0761    1.5184 C   0  0  0  0  0  0  0  0  0  0  0  0
   -1.9456   -2.7051    2.0404 O   0  0  0  0  0  0  0  0  0  0  0  0
   -2.6926   -0.8481    1.0174 N   0  0  0  0  0  0  0  0  0  0  0  0
   -3.4926   -0.3971    0.5954 H   0  0  0  0  0  0  0  0  0  0  0  0
   -1.4216   -0.1071    1.0434 C   0  0  1  0  0  0  0  0  0  0  0  0
   -1.4958    0.6767    1.7989 H   0  0  0  0  0  0  0  0  0  0  0  0
   -0.2971   -1.0813    1.4481 C   0  0  0  0  0  0  0  0  0  0  0  0
   -0.3280   -1.9454    0.7815 H   0  0  0  0  0  0  0  0  0  0  0  0
    0.6679   -0.5866    1.3175 H   0  0  0  0  0  0  0  0  0  0  0  0
   -0.4144   -1.5834    2.8946 C   0  0  0  0  0  0  0  0  0  0  0  0
   -0.3744   -0.7381    3.5830 H   0  0  0  0  0  0  0  0  0  0  0  0
   -1.3638   -2.1052    3.0195 H   0  0  0  0  0  0  0  0  0  0  0  0
    0.7408   -2.5434    3.2098 C   0  0  0  0  0  0  0  0  0  0  0  0
    0.7089   -3.3726    2.4992 H   0  0  0  0  0  0  0  0  0  0  0  0
    1.6837   -2.0063    3.0828 H   0  0  0  0  0  0  0  0  0  0  0  0
    0.6549   -3.0712    4.5871 N   0  3  0  0  0  0  0  0  0  0  0  0
   -0.0939   -2.7204    5.1594 H   0  0  0  0  0  0  0  0  0  0  0  0
    1.4672   -3.9589    5.1359 C   0  0  0  0  0  0  0  0  0  0  0  0
    2.4696   -4.4777    4.4837 N   0  0  0  0  0  0  0  0  0  0  0  0
    2.6272   -4.1935    3.5330 H   0  0  0  0  0  0  0  0  0  0  0  0
    3.0768   -5.1499    4.9153 H   0  0  0  0  0  0  0  0  0  0  0  0
    1.2864   -4.3464    6.3666 N   0  0  0  0  0  0  0  0  0  0  0  0
    0.5265   -3.9746    6.9099 H   0  0  0  0  0  0  0  0  0  0  0  0
    1.9049   -5.0201    6.7791 H   0  0  0  0  0  0  0  0  0  0  0  0
   -1.1521    0.5420   -0.3156 C   0  0  0  0  0  0  0  0  0  0  0  0
   -1.0706    1.7617   -0.3981 O   0  0  0  0  0  0  0  0  0  0  0  0
   -1.0538   -0.2719   -1.3713 N   0  0  0  0  0  0  0  0  0  0  0  0
   -1.0961   -1.2644   -1.2066 H   0  0  0  0  0  0  0  0  0  0  0  0
   -0.7970    0.1865   -2.7376 C   0  0  0  0  0  0  0  0  0  0  0  0
    0.1886    0.6536   -2.7914 H   0  0  0  0  0  0  0  0  0  0  0  0
   -0.8309   -0.6533   -3.4329 H   0  0  0  0  0  0  0  0  0  0  0  0
   -1.5454    0.9262   -3.0303 H   0  0  0  0  0  0  0  0  0  0  0  0
  5  6  2  0  0  0  0
  5  7  1  0  0  0  0
  2  3  1  0  0  0  0
  2  4  1  0  0  0  0
  2  5  1  0  0  0  0
  1  2  1  0  0  0  0
 29 30  2  0  0  0  0
 29 31  1  0  0  0  0
 26 27  1  0  0  0  0
 26 28  1  0  0  0  0
 23 24  1  0  0  0  0
 23 25  1  0  0  0  0
 22 23  1  0  0  0  0
 22 26  1  0  0  0  0
 20 21  1  0  0  0  0
 20 22  2  0  0  0  0
 17 18  1  0  0  0  0
 17 19  1  0  0  0  0
 17 20  1  0  0  0  0
 14 15  1  0  0  0  0
 14 16  1  0  0  0  0
 14 17  1  0  0  0  0
 11 12  1  0  0  0  0
 11 13  1  0  0  0  0
 11 14  1  0  0  0  0
  9 10  1  0  0  0  0
  9 11  1  0  0  0  0
  9 29  1  0  0  0  0
  7  8  1  0  0  0  0
  7  9  1  0  0  0  0
 33 34  1  0  0  0  0
 33 35  1  0  0  0  0
 33 36  1  0  0  0  0
 31 32  1  0  0  0  0
 31 33  1  0  0  0  0
M  CHG  1  20   1
M  END
$$$$
default_name
  -OEChem-01062215323D

 36 35  0     1  0  0  0  0  0999 V2000
   -4.2256   -3.6731    1.8584 H   0  0  0  0  0  0  0  0  0  0  0  0
   -4.2396   -2.6781    1.4144 C   0  0  0  0  0  0  0  0  0  0  0  0
   -4.9506   -2.0521    1.9514 H   0  0  0  0  0  0  0  0  0  0  0  0
   -4.5266   -2.7521    0.3674 H   0  0  0  0  0  0  0  0  0  0  0  0
   -2.8576   -2.0761    1.5184 C   0  0  0  0  0  0  0  0  0  0  0  0
   -1.9456   -2.7051    2.0404 O   0  0  0  0  0  0  0  0  0  0  0  0
   -2.6926   -0.8481    1.0174 N   0  0  0  0  0  0  0  0  0  0  0  0
   -3.4926   -0.3971    0.5954 H   0  0  0  0  0  0  0  0  0  0  0  0
   -1.4216   -0.1071    1.0434 C   0  0  1  0  0  0  0  0  0  0  0  0
   -1.4958    0.6767    1.7989 H   0  0  0  0  0  0  0  0  0  0  0  0
   -0.2971   -1.0813    1.4481 C   0  0  0  0  0  0  0  0  0  0  0  0
   -0.3280   -1.9454    0.7815 H   0  0  0  0  0  0  0  0  0  0  0  0
    0.6679   -0.5866    1.3175 H   0  0  0  0  0  0  0  0  0  0  0  0
   -0.4144   -1.5834    2.8946 C   0  0  0  0  0  0  0  0  0  0  0  0
   -0.3744   -0.7381    3.5830 H   0  0  0  0  0  0  0  0  0  0  0  0
   -1.3638   -2.1052    3.0195 H   0  0  0  0  0  0  0  0  0  0  0  0
    0.7408   -2.5434    3.2098 C   0  0  0  0  0  0  0  0  0  0  0  0
    0.7089   -3.3726    2.4992 H   0  0  0  0  0  0  0  0  0  0  0  0
    1.6837   -2.0063    3.0828 H   0  0  0  0  0  0  0  0  0  0  0  0
    0.6549   -3.0712    4.5871 N   0  3  0  0  0  0  0  0  0  0  0  0
   -0.0939   -2.7204    5.1594 H   0  0  0  0  0  0  0  0  0  0  0  0
    1.4672   -3.9589    5.1359 C   0  0  0  0  0  0  0  0  0  0  0  0
    2.4696   -4.4777    4.4837 N   0  0  0  0  0  0  0  0  0  0  0  0
    2.6272   -4.1935    3.5330 H   0  0  0  0  0  0  0  0  0  0  0  0
    3.0768   -5.1499    4.9153 H   0  0  0  0  0  0  0  0  0  0  0  0
    1.2864   -4.3464    6.3666 N   0  0  0  0  0  0  0  0  0  0  0  0
    0.5265   -3.9746    6.9099 H   0  0  0  0  0  0  0  0  0  0  0  0
    1.9049   -5.0201    6.7791 H   0  0  0  0  0  0  0  0  0  0  0  0
   -1.1521    0.5420   -0.3156 C   0  0  0  0  0  0  0  0  0  0  0  0
   -0.7984    1.7139   -0.3669 O   0  0  0  0  0  0  0  0  0  0  0  0
   -1.3565   -0.2098   -1.4017 N   0  0  0  0  0  0  0  0  0  0  0  0
   -1.6109   -1.1746   -1.2658 H   0  0  0  0  0  0  0  0  0  0  0  0
   -1.1445    0.2572   -2.7727 C   0  0  0  0  0  0  0  0  0  0  0  0
   -0.0884    0.4903   -2.9243 H   0  0  0  0  0  0  0  0  0  0  0  0
   -1.4451   -0.5107   -3.4866 H   0  0  0  0  0  0  0  0  0  0  0  0
   -1.7268    1.1635   -2.9529 H   0  0  0  0  0  0  0  0  0  0  0  0
  5  6  2  0  0  0  0
  5  7  1  0  0  0  0
  2  3  1  0  0  0  0
  2  4  1  0  0  0  0
  2  5  1  0  0  0  0
  1  2  1  0  0  0  0
 29 30  2  0  0  0  0
 29 31  1  0  0  0  0
 26 27  1  0  0  0  0
 26 28  1  0  0  0  0
 23 24  1  0  0  0  0
 23 25  1  0  0  0  0
 22 23  1  0  0  0  0
 22 26  1  0  0  0  0
 20 21  1  0  0  0  0
 20 22  2  0  0  0  0
 17 18  1  0  0  0  0
 17 19  1  0  0  0  0
 17 20  1  0  0  0  0
 14 15  1  0  0  0  0
 14 16  1  0  0  0  0
 14 17  1  0  0  0  0
 11 12  1  0  0  0  0
 11 13  1  0  0  0  0
 11 14  1  0  0  0  0
  9 10  1  0  0  0  0
  9 11  1  0  0  0  0
  9 29  1  0  0  0  0
  7  8  1  0  0  0  0
  7  9  1  0  0  0  0
 33 34  1  0  0  0  0
 33 35  1  0  0  0  0
 33 36  1  0  0  0  0
 31 32  1  0  0  0  0
 31 33  1  0  0  0  0
M  CHG  1  20   1
M  END
$$$$
default_name
  -OEChem-01062215323D

 36 35  0     1  0  0  0  0  0999 V2000
   -4.2256   -3.6731    1.8584 H   0  0  0  0  0  0  0  0  0  0  0  0
   -4.2396   -2.6781    1.4144 C   0  0  0  0  0  0  0  0  0  0  0  0
   -4.9506   -2.0521    1.9514 H   0  0  0  0  0  0  0  0  0  0  0  0
   -4.5266   -2.7521    0.3674 H   0  0  0  0  0  0  0  0  0  0  0  0
   -2.8576   -2.0761    1.5184 C   0  0  0  0  0  0  0  0  0  0  0  0
   -1.9456   -2.7051    2.0404 O   0  0  0  0  0  0  0  0  0  0  0  0
   -2.6926   -0.8481    1.0174 N   0  0  0  0  0  0  0  0  0  0  0  0
   -3.4926   -0.3971    0.5954 H   0  0  0  0  0  0  0  0  0  0  0  0
   -1.4216   -0.1071    1.0434 C   0  0  1  0  0  0  0  0  0  0  0  0
   -1.4958    0.6767    1.7989 H   0  0  0  0  0  0  0  0  0  0  0  0
   -0.2971   -1.0813    1.4481 C   0  0  0  0  0  0  0  0  0  0  0  0
   -0.3280   -1.9454    0.7815 H   0  0  0  0  0  0  0  0  0  0  0  0
    0.6679   -0.5866    1.3175 H   0  0  0  0  0  0  0  0  0  0  0  0
   -0.4144   -1.5834    2.8946 C   0  0  0  0  0  0  0  0  0  0  0  0
   -0.3744   -0.7381    3.5830 H   0  0  0  0  0  0  0  0  0  0  0  0
   -1.3638   -2.1052    3.0195 H   0  0  0  0  0  0  0  0  0  0  0  0
    0.7408   -2.5434    3.2098 C   0  0  0  0  0  0  0  0  0  0  0  0
    0.7089   -3.3726    2.4992 H   0  0  0  0  0  0  0  0  0  0  0  0
    1.6837   -2.0063    3.0828 H   0  0  0  0  0  0  0  0  0  0  0  0
    0.6549   -3.0712    4.5871 N   0  3  0  0  0  0  0  0  0  0  0  0
   -0.0939   -2.7204    5.1594 H   0  0  0  0  0  0  0  0  0  0  0  0
    1.4672   -3.9589    5.1359 C   0  0  0  0  0  0  0  0  0  0  0  0
    2.4696   -4.4777    4.4837 N   0  0  0  0  0  0  0  0  0  0  0  0
    2.6272   -4.1935    3.5330 H   0  0  0  0  0  0  0  0  0  0  0  0
    3.0768   -5.1499    4.9153 H   0  0  0  0  0  0  0  0  0  0  0  0
    1.2864   -4.3464    6.3666 N   0  0  0  0  0  0  0  0  0  0  0  0
    0.5265   -3.9746    6.9099 H   0  0  0  0  0  0  0  0  0  0  0  0
    1.9049   -5.0201    6.7791 H   0  0  0  0  0  0  0  0  0  0  0  0
   -1.1521    0.5420   -0.3156 C   0  0  0  0  0  0  0  0  0  0  0  0
   -0.5430    1.6038   -0.3689 O   0  0  0  0  0  0  0  0  0  0  0  0
   -1.6380   -0.0789   -1.3950 N   0  0  0  0  0  0  0  0  0  0  0  0
   -2.0941   -0.9668   -1.2624 H   0  0  0  0  0  0  0  0  0  0  0  0
   -1.4676    0.4070   -2.7653 C   0  0  0  0  0  0  0  0  0  0  0  0
   -0.4080    0.4023   -3.0297 H   0  0  0  0  0  0  0  0  0  0  0  0
   -2.0114   -0.2294   -3.4646 H   0  0  0  0  0  0  0  0  0  0  0  0
   -1.8389    1.4309   -2.8474 H   0  0  0  0  0  0  0  0  0  0  0  0
  5  6  2  0  0  0  0
  5  7  1  0  0  0  0
  2  3  1  0  0  0  0
  2  4  1  0  0  0  0
  2  5  1  0  0  0  0
  1  2  1  0  0  0  0
 29 30  2  0  0  0  0
 29 31  1  0  0  0  0
 26 27  1  0  0  0  0
 26 28  1  0  0  0  0
 23 24  1  0  0  0  0
 23 25  1  0  0  0  0
 22 23  1  0  0  0  0
 22 26  1  0  0  0  0
 20 21  1  0  0  0  0
 20 22  2  0  0  0  0
 17 18  1  0  0  0  0
 17 19  1  0  0  0  0
 17 20  1  0  0  0  0
 14 15  1  0  0  0  0
 14 16  1  0  0  0  0
 14 17  1  0  0  0  0
 11 12  1  0  0  0  0
 11 13  1  0  0  0  0
 11 14  1  0  0  0  0
  9 10  1  0  0  0  0
  9 11  1  0  0  0  0
  9 29  1  0  0  0  0
  7  8  1  0  0  0  0
  7  9  1  0  0  0  0
 33 34  1  0  0  0  0
 33 35  1  0  0  0  0
 33 36  1  0  0  0  0
 31 32  1  0  0  0  0
 31 33  1  0  0  0  0
M  CHG  1  20   1
M  END
$$$$
default_name
  -OEChem-01062215323D

 36 35  0     1  0  0  0  0  0999 V2000
   -4.2256   -3.6731    1.8584 H   0  0  0  0  0  0  0  0  0  0  0  0
   -4.2396   -2.6781    1.4144 C   0  0  0  0  0  0  0  0  0  0  0  0
   -4.9506   -2.0521    1.9514 H   0  0  0  0  0  0  0  0  0  0  0  0
   -4.5266   -2.7521    0.3674 H   0  0  0  0  0  0  0  0  0  0  0  0
   -2.8576   -2.0761    1.5184 C   0  0  0  0  0  0  0  0  0  0  0  0
   -1.9456   -2.7051    2.0404 O   0  0  0  0  0  0  0  0  0  0  0  0
   -2.6926   -0.8481    1.0174 N   0  0  0  0  0  0  0  0  0  0  0  0
   -3.4926   -0.3971    0.5954 H   0  0  0  0  0  0  0  0  0  0  0  0
   -1.4216   -0.1071    1.0434 C   0  0  1  0  0  0  0  0  0  0  0  0
   -1.4958    0.6767    1.7989 H   0  0  0  0  0  0  0  0  0  0  0  0
   -0.2971   -1.0813    1.4481 C   0  0  0  0  0  0  0  0  0  0  0  0
   -0.3280   -1.9454    0.7815 H   0  0  0  0  0  0  0  0  0  0  0  0
    0.6679   -0.5866    1.3175 H   0  0  0  0  0  0  0  0  0  0  0  0
   -0.4144   -1.5834    2.8946 C   0  0  0  0  0  0  0  0  0  0  0  0
   -0.3744   -0.7381    3.5830 H   0  0  0  0  0  0  0  0  0  0  0  0
   -1.3638   -2.1052    3.0195 H   0  0  0  0  0  0  0  0  0  0  0  0
    0.7408   -2.5434    3.2098 C   0  0  0  0  0  0  0  0  0  0  0  0
    0.7089   -3.3726    2.4992 H   0  0  0  0  0  0  0  0  0  0  0  0
    1.6837   -2.0063    3.0828 H   0  0  0  0  0  0  0  0  0  0  0  0
    0.6549   -3.0712    4.5871 N   0  3  0  0  0  0  0  0  0  0  0  0
   -0.0939   -2.7204    5.1594 H   0  0  0  0  0  0  0  0  0  0  0  0
    1.4672   -3.9589    5.1359 C   0  0  0  0  0  0  0  0  0  0  0  0
    2.4696   -4.4777    4.4837 N   0  0  0  0  0  0  0  0  0  0  0  0
    2.6272   -4.1935    3.5330 H   0  0  0  0  0  0  0  0  0  0  0  0
    3.0768   -5.1499    4.9153 H   0  0  0  0  0  0  0  0  0  0  0  0
    1.2864   -4.3464    6.3666 N   0  0  0  0  0  0  0  0  0  0  0  0
    0.5265   -3.9746    6.9099 H   0  0  0  0  0  0  0  0  0  0  0  0
    1.9049   -5.0201    6.7791 H   0  0  0  0  0  0  0  0  0  0  0  0
   -1.1521    0.5420   -0.3156 C   0  0  0  0  0  0  0  0  0  0  0  0
   -0.3219    1.4388   -0.4039 O   0  0  0  0  0  0  0  0  0  0  0  0
   -1.8791    0.1120   -1.3516 N   0  0  0  0  0  0  0  0  0  0  0  0
   -2.5126   -0.6551   -1.1965 H   0  0  0  0  0  0  0  0  0  0  0  0
   -1.7445    0.6257   -2.7157 C   0  0  0  0  0  0  0  0  0  0  0  0
   -0.7486    0.3957   -3.1004 H   0  0  0  0  0  0  0  0  0  0  0  0
   -2.4913    0.1715   -3.3682 H   0  0  0  0  0  0  0  0  0  0  0  0
   -1.8741    1.7101   -2.7210 H   0  0  0  0  0  0  0  0  0  0  0  0
  5  6  2  0  0  0  0
  5  7  1  0  0  0  0
  2  3  1  0  0  0  0
  2  4  1  0  0  0  0
  2  5  1  0  0  0  0
  1  2  1  0  0  0  0
 29 30  2  0  0  0  0
 29 31  1  0  0  0  0
 26 27  1  0  0  0  0
 26 28  1  0  0  0  0
 23 24  1  0  0  0  0
 23 25  1  0  0  0  0
 22 23  1  0  0  0  0
 22 26  1  0  0  0  0
 20 21  1  0  0  0  0
 20 22  2  0  0  0  0
 17 18  1  0  0  0  0
 17 19  1  0  0  0  0
 17 20  1  0  0  0  0
 14 15  1  0  0  0  0
 14 16  1  0  0  0  0
 14 17  1  0  0  0  0
 11 12  1  0  0  0  0
 11 13  1  0  0  0  0
 11 14  1  0  0  0  0
  9 10  1  0  0  0  0
  9 11  1  0  0  0  0
  9 29  1  0  0  0  0
  7  8  1  0  0  0  0
  7  9  1  0  0  0  0
 33 34  1  0  0  0  0
 33 35  1  0  0  0  0
 33 36  1  0  0  0  0
 31 32  1  0  0  0  0
 31 33  1  0  0  0  0
M  CHG  1  20   1
M  END
$$$$
default_name
  -OEChem-01062215323D

 36 35  0     1  0  0  0  0  0999 V2000
   -4.2256   -3.6731    1.8584 H   0  0  0  0  0  0  0  0  0  0  0  0
   -4.2396   -2.6781    1.4144 C   0  0  0  0  0  0  0  0  0  0  0  0
   -4.9506   -2.0521    1.9514 H   0  0  0  0  0  0  0  0  0  0  0  0
   -4.5266   -2.7521    0.3674 H   0  0  0  0  0  0  0  0  0  0  0  0
   -2.8576   -2.0761    1.5184 C   0  0  0  0  0  0  0  0  0  0  0  0
   -1.9456   -2.7051    2.0404 O   0  0  0  0  0  0  0  0  0  0  0  0
   -2.6926   -0.8481    1.0174 N   0  0  0  0  0  0  0  0  0  0  0  0
   -3.4926   -0.3971    0.5954 H   0  0  0  0  0  0  0  0  0  0  0  0
   -1.4216   -0.1071    1.0434 C   0  0  1  0  0  0  0  0  0  0  0  0
   -1.4958    0.6767    1.7989 H   0  0  0  0  0  0  0  0  0  0  0  0
   -0.2971   -1.0813    1.4481 C   0  0  0  0  0  0  0  0  0  0  0  0
   -0.3280   -1.9454    0.7815 H   0  0  0  0  0  0  0  0  0  0  0  0
    0.6679   -0.5866    1.3175 H   0  0  0  0  0  0  0  0  0  0  0  0
   -0.4144   -1.5834    2.8946 C   0  0  0  0  0  0  0  0  0  0  0  0
   -0.3744   -0.7381    3.5830 H   0  0  0  0  0  0  0  0  0  0  0  0
   -1.3638   -2.1052    3.0195 H   0  0  0  0  0  0  0  0  0  0  0  0
    0.7408   -2.5434    3.2098 C   0  0  0  0  0  0  0  0  0  0  0  0
    0.7089   -3.3726    2.4992 H   0  0  0  0  0  0  0  0  0  0  0  0
    1.6837   -2.0063    3.0828 H   0  0  0  0  0  0  0  0  0  0  0  0
    0.6549   -3.0712    4.5871 N   0  3  0  0  0  0  0  0  0  0  0  0
   -0.0939   -2.7204    5.1594 H   0  0  0  0  0  0  0  0  0  0  0  0
    1.4672   -3.9589    5.1359 C   0  0  0  0  0  0  0  0  0  0  0  0
    2.4696   -4.4777    4.4837 N   0  0  0  0  0  0  0  0  0  0  0  0
    2.6272   -4.1935    3.5330 H   0  0  0  0  0  0  0  0  0  0  0  0
    3.0768   -5.1499    4.9153 H   0  0  0  0  0  0  0  0  0  0  0  0
    1.2864   -4.3464    6.3666 N   0  0  0  0  0  0  0  0  0  0  0  0
    0.5265   -3.9746    6.9099 H   0  0  0  0  0  0  0  0  0  0  0  0
    1.9049   -5.0201    6.7791 H   0  0  0  0  0  0  0  0  0  0  0  0
   -1.1521    0.5420   -0.3156 C   0  0  0  0  0  0  0  0  0  0  0  0
   -0.1501    1.2302   -0.4695 O   0  0  0  0  0  0  0  0  0  0  0  0
   -2.0633    0.3498   -1.2745 N   0  0  0  0  0  0  0  0  0  0  0  0
   -2.8380   -0.2609   -1.0727 H   0  0  0  0  0  0  0  0  0  0  0  0
   -1.9563    0.8983   -2.6275 C   0  0  0  0  0  0  0  0  0  0  0  0
   -1.0869    0.4708   -3.1316 H   0  0  0  0  0  0  0  0  0  0  0  0
   -2.8522    0.6647   -3.2042 H   0  0  0  0  0  0  0  0  0  0  0  0
   -1.8301    1.9822   -2.5823 H   0  0  0  0  0  0  0  0  0  0  0  0
  5  6  2  0  0  0  0
  5  7  1  0  0  0  0
  2  3  1  0  0  0  0
  2  4  1  0  0  0  0
  2  5  1  0  0  0  0
  1  2  1  0  0  0  0
 29 30  2  0  0  0  0
 29 31  1  0  0  0  0
 26 27  1  0  0  0  0
 26 28  1  0  0  0  0
 23 24  1  0  0  0  0
 23 25  1  0  0  0  0
 22 23  1  0  0  0  0
 22 26  1  0  0  0  0
 20 21  1  0  0  0  0
 20 22  2  0  0  0  0
 17 18  1  0  0  0  0
 17 19  1  0  0  0  0
 17 20  1  0  0  0  0
 14 15  1  0  0  0  0
 14 16  1  0  0  0  0
 14 17  1  0  0  0  0
 11 12  1  0  0  0  0
 11 13  1  0  0  0  0
 11 14  1  0  0  0  0
  9 10  1  0  0  0  0
  9 11  1  0  0  0  0
  9 29  1  0  0  0  0
  7  8  1  0  0  0  0
  7  9  1  0  0  0  0
 33 34  1  0  0  0  0
 33 35  1  0  0  0  0
 33 36  1  0  0  0  0
 31 32  1  0  0  0  0
 31 33  1  0  0  0  0
M  CHG  1  20   1
M  END
$$$$
default_name
  -OEChem-01062215323D

 36 35  0     1  0  0  0  0  0999 V2000
   -4.2256   -3.6731    1.8584 H   0  0  0  0  0  0  0  0  0  0  0  0
   -4.2396   -2.6781    1.4144 C   0  0  0  0  0  0  0  0  0  0  0  0
   -4.9506   -2.0521    1.9514 H   0  0  0  0  0  0  0  0  0  0  0  0
   -4.5266   -2.7521    0.3674 H   0  0  0  0  0  0  0  0  0  0  0  0
   -2.8576   -2.0761    1.5184 C   0  0  0  0  0  0  0  0  0  0  0  0
   -1.9456   -2.7051    2.0404 O   0  0  0  0  0  0  0  0  0  0  0  0
   -2.6926   -0.8481    1.0174 N   0  0  0  0  0  0  0  0  0  0  0  0
   -3.4926   -0.3971    0.5954 H   0  0  0  0  0  0  0  0  0  0  0  0
   -1.4216   -0.1071    1.0434 C   0  0  1  0  0  0  0  0  0  0  0  0
   -1.4958    0.6767    1.7989 H   0  0  0  0  0  0  0  0  0  0  0  0
   -0.2971   -1.0813    1.4481 C   0  0  0  0  0  0  0  0  0  0  0  0
   -0.3280   -1.9454    0.7815 H   0  0  0  0  0  0  0  0  0  0  0  0
    0.6679   -0.5866    1.3175 H   0  0  0  0  0  0  0  0  0  0  0  0
   -0.4144   -1.5834    2.8946 C   0  0  0  0  0  0  0  0  0  0  0  0
   -0.3744   -0.7381    3.5830 H   0  0  0  0  0  0  0  0  0  0  0  0
   -1.3638   -2.1052    3.0195 H   0  0  0  0  0  0  0  0  0  0  0  0
    0.7408   -2.5434    3.2098 C   0  0  0  0  0  0  0  0  0  0  0  0
    0.7089   -3.3726    2.4992 H   0  0  0  0  0  0  0  0  0  0  0  0
    1.6837   -2.0063    3.0828 H   0  0  0  0  0  0  0  0  0  0  0  0
    0.6549   -3.0712    4.5871 N   0  3  0  0  0  0  0  0  0  0  0  0
   -0.0939   -2.7204    5.1594 H   0  0  0  0  0  0  0  0  0  0  0  0
    1.4672   -3.9589    5.1359 C   0  0  0  0  0  0  0  0  0  0  0  0
    2.4696   -4.4777    4.4837 N   0  0  0  0  0  0  0  0  0  0  0  0
    2.6272   -4.1935    3.5330 H   0  0  0  0  0  0  0  0  0  0  0  0
    3.0768   -5.1499    4.9153 H   0  0  0  0  0  0  0  0  0  0  0  0
    1.2864   -4.3464    6.3666 N   0  0  0  0  0  0  0  0  0  0  0  0
    0.5265   -3.9746    6.9099 H   0  0  0  0  0  0  0  0  0  0  0  0
    1.9049   -5.0201    6.7791 H   0  0  0  0  0  0  0  0  0  0  0  0
   -1.1521    0.5420   -0.3156 C   0  0  0  0  0  0  0  0  0  0  0  0
   -0.0393    0.9921   -0.5612 O   0  0  0  0  0  0  0  0  0  0  0  0
   -2.1780    0.6184   -1.1690 N   0  0  0  0  0  0  0  0  0  0  0  0
   -3.0480    0.1891   -0.8994 H   0  0  0  0  0  0  0  0  0  0  0  0
   -2.0885    1.2062   -2.5066 C   0  0  0  0  0  0  0  0  0  0  0  0
   -1.3999    0.6225   -3.1212 H   0  0  0  0  0  0  0  0  0  0  0  0
   -3.0693    1.2165   -2.9837 H   0  0  0  0  0  0  0  0  0  0  0  0
   -1.7098    2.2285   -2.4408 H   0  0  0  0  0  0  0  0  0  0  0  0
  5  6  2  0  0  0  0
  5  7  1  0  0  0  0
  2  3  1  0  0  0  0
  2  4  1  0  0  0  0
  2  5  1  0  0  0  0
  1  2  1  0  0  0  0
 29 30  2  0  0  0  0
 29 31  1  0  0  0  0
 26 27  1  0  0  0  0
 26 28  1  0  0  0  0
 23 24  1  0  0  0  0
 23 25  1  0  0  0  0
 22 23  1  0  0  0  0
 22 26  1  0  0  0  0
 20 21  1  0  0  0  0
 20 22  2  0  0  0  0
 17 18  1  0  0  0  0
 17 19  1  0  0  0  0
 17 20  1  0  0  0  0
 14 15  1  0  0  0  0
 14 16  1  0  0  0  0
 14 17  1  0  0  0  0
 11 12  1  0  0  0  0
 11 13  1  0  0  0  0
 11 14  1  0  0  0  0
  9 10  1  0  0  0  0
  9 11  1  0  0  0  0
  9 29  1  0  0  0  0
  7  8  1  0  0  0  0
  7  9  1  0  0  0  0
 33 34  1  0  0  0  0
 33 35  1  0  0  0  0
 33 36  1  0  0  0  0
 31 32  1  0  0  0  0
 31 33  1  0  0  0  0
M  CHG  1  20   1
M  END
$$$$
default_name
  -OEChem-01062215323D

 36 35  0     1  0  0  0  0  0999 V2000
   -4.2256   -3.6731    1.8584 H   0  0  0  0  0  0  0  0  0  0  0  0
   -4.2396   -2.6781    1.4144 C   0  0  0  0  0  0  0  0  0  0  0  0
   -4.9506   -2.0521    1.9514 H   0  0  0  0  0  0  0  0  0  0  0  0
   -4.5266   -2.7521    0.3674 H   0  0  0  0  0  0  0  0  0  0  0  0
   -2.8576   -2.0761    1.5184 C   0  0  0  0  0  0  0  0  0  0  0  0
   -1.9456   -2.7051    2.0404 O   0  0  0  0  0  0  0  0  0  0  0  0
   -2.6926   -0.8481    1.0174 N   0  0  0  0  0  0  0  0  0  0  0  0
   -3.4926   -0.3971    0.5954 H   0  0  0  0  0  0  0  0  0  0  0  0
   -1.4216   -0.1071    1.0434 C   0  0  1  0  0  0  0  0  0  0  0  0
   -1.4958    0.6767    1.7989 H   0  0  0  0  0  0  0  0  0  0  0  0
   -0.2971   -1.0813    1.4481 C   0  0  0  0  0  0  0  0  0  0  0  0
   -0.3280   -1.9454    0.7815 H   0  0  0  0  0  0  0  0  0  0  0  0
    0.6679   -0.5866    1.3175 H   0  0  0  0  0  0  0  0  0  0  0  0
   -0.4144   -1.5834    2.8946 C   0  0  0  0  0  0  0  0  0  0  0  0
   -0.3744   -0.7381    3.5830 H   0  0  0  0  0  0  0  0  0  0  0  0
   -1.3638   -2.1052    3.0195 H   0  0  0  0  0  0  0  0  0  0  0  0
    0.7408   -2.5434    3.2098 C   0  0  0  0  0  0  0  0  0  0  0  0
    0.7089   -3.3726    2.4992 H   0  0  0  0  0  0  0  0  0  0  0  0
    1.6837   -2.0063    3.0828 H   0  0  0  0  0  0  0  0  0  0  0  0
    0.6549   -3.0712    4.5871 N   0  3  0  0  0  0  0  0  0  0  0  0
   -0.0939   -2.7204    5.1594 H   0  0  0  0  0  0  0  0  0  0  0  0
    1.4672   -3.9589    5.1359 C   0  0  0  0  0  0  0  0  0  0  0  0
    2.4696   -4.4777    4.4837 N   0  0  0  0  0  0  0  0  0  0  0  0
    2.6272   -4.1935    3.5330 H   0  0  0  0  0  0  0  0  0  0  0  0
    3.0768   -5.1499    4.9153 H   0  0  0  0  0  0  0  0  0  0  0  0
    1.2864   -4.3464    6.3666 N   0  0  0  0  0  0  0  0  0  0  0  0
    0.5265   -3.9746    6.9099 H   0  0  0  0  0  0  0  0  0  0  0  0
    1.9049   -5.0201    6.7791 H   0  0  0  0  0  0  0  0  0  0  0  0
   -1.1521    0.5420   -0.3156 C   0  0  0  0  0  0  0  0  0  0  0  0
    0.0029    0.7409   -0.6728 O   0  0  0  0  0  0  0  0  0  0  0  0
   -2.2156    0.8994   -1.0422 N   0  0  0  0  0  0  0  0  0  0  0  0
   -3.1285    0.6641   -0.6885 H   0  0  0  0  0  0  0  0  0  0  0  0
   -2.1321    1.5286   -2.3613 C   0  0  0  0  0  0  0  0  0  0  0  0
   -1.6661    0.8405   -3.0699 H   0  0  0  0  0  0  0  0  0  0  0  0
   -3.1280    1.7895   -2.7216 H   0  0  0  0  0  0  0  0  0  0  0  0
   -1.5214    2.4324   -2.3061 H   0  0  0  0  0  0  0  0  0  0  0  0
  5  6  2  0  0  0  0
  5  7  1  0  0  0  0
  2  3  1  0  0  0  0
  2  4  1  0  0  0  0
  2  5  1  0  0  0  0
  1  2  1  0  0  0  0
 29 30  2  0  0  0  0
 29 31  1  0  0  0  0
 26 27  1  0  0  0  0
 26 28  1  0  0  0  0
 23 24  1  0  0  0  0
 23 25  1  0  0  0  0
 22 23  1  0  0  0  0
 22 26  1  0  0  0  0
 20 21  1  0  0  0  0
 20 22  2  0  0  0  0
 17 18  1  0  0  0  0
 17 19  1  0  0  0  0
 17 20  1  0  0  0  0
 14 15  1  0  0  0  0
 14 16  1  0  0  0  0
 14 17  1  0  0  0  0
 11 12  1  0  0  0  0
 11 13  1  0  0  0  0
 11 14  1  0  0  0  0
  9 10  1  0  0  0  0
  9 11  1  0  0  0  0
  9 29  1  0  0  0  0
  7  8  1  0  0  0  0
  7  9  1  0  0  0  0
 33 34  1  0  0  0  0
 33 35  1  0  0  0  0
 33 36  1  0  0  0  0
 31 32  1  0  0  0  0
 31 33  1  0  0  0  0
M  CHG  1  20   1
M  END
$$$$
default_name
  -OEChem-01062215323D

 36 35  0     1  0  0  0  0  0999 V2000
   -4.2256   -3.6731    1.8584 H   0  0  0  0  0  0  0  0  0  0  0  0
   -4.2396   -2.6781    1.4144 C   0  0  0  0  0  0  0  0  0  0  0  0
   -4.9506   -2.0521    1.9514 H   0  0  0  0  0  0  0  0  0  0  0  0
   -4.5266   -2.7521    0.3674 H   0  0  0  0  0  0  0  0  0  0  0  0
   -2.8576   -2.0761    1.5184 C   0  0  0  0  0  0  0  0  0  0  0  0
   -1.9456   -2.7051    2.0404 O   0  0  0  0  0  0  0  0  0  0  0  0
   -2.6926   -0.8481    1.0174 N   0  0  0  0  0  0  0  0  0  0  0  0
   -3.4926   -0.3971    0.5954 H   0  0  0  0  0  0  0  0  0  0  0  0
   -1.4216   -0.1071    1.0434 C   0  0  1  0  0  0  0  0  0  0  0  0
   -1.4958    0.6767    1.7989 H   0  0  0  0  0  0  0  0  0  0  0  0
   -0.2971   -1.0813    1.4481 C   0  0  0  0  0  0  0  0  0  0  0  0
   -0.3280   -1.9454    0.7815 H   0  0  0  0  0  0  0  0  0  0  0  0
    0.6679   -0.5866    1.3175 H   0  0  0  0  0  0  0  0  0  0  0  0
   -0.4144   -1.5834    2.8946 C   0  0  0  0  0  0  0  0  0  0  0  0
   -0.3744   -0.7381    3.5830 H   0  0  0  0  0  0  0  0  0  0  0  0
   -1.3638   -2.1052    3.0195 H   0  0  0  0  0  0  0  0  0  0  0  0
    0.7408   -2.5434    3.2098 C   0  0  0  0  0  0  0  0  0  0  0  0
    0.7089   -3.3726    2.4992 H   0  0  0  0  0  0  0  0  0  0  0  0
    1.6837   -2.0063    3.0828 H   0  0  0  0  0  0  0  0  0  0  0  0
    0.6549   -3.0712    4.5871 N   0  3  0  0  0  0  0  0  0  0  0  0
   -0.0939   -2.7204    5.1594 H   0  0  0  0  0  0  0  0  0  0  0  0
    1.4672   -3.9589    5.1359 C   0  0  0  0  0  0  0  0  0  0  0  0
    2.4696   -4.4777    4.4837 N   0  0  0  0  0  0  0  0  0  0  0  0
    2.6272   -4.1935    3.5330 H   0  0  0  0  0  0  0  0  0  0  0  0
    3.0768   -5.1499    4.9153 H   0  0  0  0  0  0  0  0  0  0  0  0
    1.2864   -4.3464    6.3666 N   0  0  0  0  0  0  0  0  0  0  0  0
    0.5265   -3.9746    6.9099 H   0  0  0  0  0  0  0  0  0  0  0  0
    1.9049   -5.0201    6.7791 H   0  0  0  0  0  0  0  0  0  0  0  0
   -1.1521    0.5420   -0.3156 C   0  0  0  0  0  0  0  0  0  0  0  0
   -0.0263    0.4937   -0.7967 O   0  0  0  0  0  0  0  0  0  0  0  0
   -2.1733    1.1736   -0.9029 N   0  0  0  0  0  0  0  0  0  0  0  0
   -3.0738    1.1318   -0.4543 H   0  0  0  0  0  0  0  0  0  0  0  0
   -2.0842    1.8434   -2.2015 C   0  0  0  0  0  0  0  0  0  0  0  0
   -1.8675    1.1100   -2.9811 H   0  0  0  0  0  0  0  0  0  0  0  0
   -3.0242    2.3444   -2.4360 H   0  0  0  0  0  0  0  0  0  0  0  0
   -1.2777    2.5798   -2.1874 H   0  0  0  0  0  0  0  0  0  0  0  0
  5  6  2  0  0  0  0
  5  7  1  0  0  0  0
  2  3  1  0  0  0  0
  2  4  1  0  0  0  0
  2  5  1  0  0  0  0
  1  2  1  0  0  0  0
 29 30  2  0  0  0  0
 29 31  1  0  0  0  0
 26 27  1  0  0  0  0
 26 28  1  0  0  0  0
 23 24  1  0  0  0  0
 23 25  1  0  0  0  0
 22 23  1  0  0  0  0
 22 26  1  0  0  0  0
 20 21  1  0  0  0  0
 20 22  2  0  0  0  0
 17 18  1  0  0  0  0
 17 19  1  0  0  0  0
 17 20  1  0  0  0  0
 14 15  1  0  0  0  0
 14 16  1  0  0  0  0
 14 17  1  0  0  0  0
 11 12  1  0  0  0  0
 11 13  1  0  0  0  0
 11 14  1  0  0  0  0
  9 10  1  0  0  0  0
  9 11  1  0  0  0  0
  9 29  1  0  0  0  0
  7  8  1  0  0  0  0
  7  9  1  0  0  0  0
 33 34  1  0  0  0  0
 33 35  1  0  0  0  0
 33 36  1  0  0  0  0
 31 32  1  0  0  0  0
 31 33  1  0  0  0  0
M  CHG  1  20   1
M  END
$$$$
default_name
  -OEChem-01062215323D

 36 35  0     1  0  0  0  0  0999 V2000
   -4.2256   -3.6731    1.8584 H   0  0  0  0  0  0  0  0  0  0  0  0
   -4.2396   -2.6781    1.4144 C   0  0  0  0  0  0  0  0  0  0  0  0
   -4.9506   -2.0521    1.9514 H   0  0  0  0  0  0  0  0  0  0  0  0
   -4.5266   -2.7521    0.3674 H   0  0  0  0  0  0  0  0  0  0  0  0
   -2.8576   -2.0761    1.5184 C   0  0  0  0  0  0  0  0  0  0  0  0
   -1.9456   -2.7051    2.0404 O   0  0  0  0  0  0  0  0  0  0  0  0
   -2.6926   -0.8481    1.0174 N   0  0  0  0  0  0  0  0  0  0  0  0
   -3.4926   -0.3971    0.5954 H   0  0  0  0  0  0  0  0  0  0  0  0
   -1.4216   -0.1071    1.0434 C   0  0  1  0  0  0  0  0  0  0  0  0
   -1.4958    0.6767    1.7989 H   0  0  0  0  0  0  0  0  0  0  0  0
   -0.2971   -1.0813    1.4481 C   0  0  0  0  0  0  0  0  0  0  0  0
   -0.3280   -1.9454    0.7815 H   0  0  0  0  0  0  0  0  0  0  0  0
    0.6679   -0.5866    1.3175 H   0  0  0  0  0  0  0  0  0  0  0  0
   -0.4144   -1.5834    2.8946 C   0  0  0  0  0  0  0  0  0  0  0  0
   -0.3744   -0.7381    3.5830 H   0  0  0  0  0  0  0  0  0  0  0  0
   -1.3638   -2.1052    3.0195 H   0  0  0  0  0  0  0  0  0  0  0  0
    0.7408   -2.5434    3.2098 C   0  0  0  0  0  0  0  0  0  0  0  0
    0.7089   -3.3726    2.4992 H   0  0  0  0  0  0  0  0  0  0  0  0
    1.6837   -2.0063    3.0828 H   0  0  0  0  0  0  0  0  0  0  0  0
    0.6549   -3.0712    4.5871 N   0  3  0  0  0  0  0  0  0  0  0  0
   -0.0939   -2.7204    5.1594 H   0  0  0  0  0  0  0  0  0  0  0  0
    1.4672   -3.9589    5.1359 C   0  0  0  0  0  0  0  0  0  0  0  0
    2.4696   -4.4777    4.4837 N   0  0  0  0  0  0  0  0  0  0  0  0
    2.6272   -4.1935    3.5330 H   0  0  0  0  0  0  0  0  0  0  0  0
    3.0768   -5.1499    4.9153 H   0  0  0  0  0  0  0  0  0  0  0  0
    1.2864   -4.3464    6.3666 N   0  0  0  0  0  0  0  0  0  0  0  0
    0.5265   -3.9746    6.9099 H   0  0  0  0  0  0  0  0  0  0  0  0
    1.9049   -5.0201    6.7791 H   0  0  0  0  0  0  0  0  0  0  0  0
   -1.1521    0.5420   -0.3156 C   0  0  0  0  0  0  0  0  0  0  0  0
   -0.1250    0.2672   -0.9244 O   0  0  0  0  0  0  0  0  0  0  0  0
   -2.0541    1.4225   -0.7604 N   0  0  0  0  0  0  0  0  0  0  0  0
   -2.8877    1.5603   -0.2127 H   0  0  0  0  0  0  0  0  0  0  0  0
   -1.9479    2.1291   -2.0380 C   0  0  0  0  0  0  0  0  0  0  0  0
   -1.9904    1.4125   -2.8610 H   0  0  0  0  0  0  0  0  0  0  0  0
   -2.7650    2.8436   -2.1461 H   0  0  0  0  0  0  0  0  0  0  0  0
   -0.9955    2.6608   -2.0927 H   0  0  0  0  0  0  0  0  0  0  0  0
  5  6  2  0  0  0  0
  5  7  1  0  0  0  0
  2  3  1  0  0  0  0
  2  4  1  0  0  0  0
  2  5  1  0  0  0  0
  1  2  1  0  0  0  0
 29 30  2  0  0  0  0
 29 31  1  0  0  0  0
 26 27  1  0  0  0  0
 26 28  1  0  0  0  0
 23 24  1  0  0  0  0
 23 25  1  0  0  0  0
 22 23  1  0  0  0  0
 22 26  1  0  0  0  0
 20 21  1  0  0  0  0
 20 22  2  0  0  0  0
 17 18  1  0  0  0  0
 17 19  1  0  0  0  0
 17 20  1  0  0  0  0
 14 15  1  0  0  0  0
 14 16  1  0  0  0  0
 14 17  1  0  0  0  0
 11 12  1  0  0  0  0
 11 13  1  0  0  0  0
 11 14  1  0  0  0  0
  9 10  1  0  0  0  0
  9 11  1  0  0  0  0
  9 29  1  0  0  0  0
  7  8  1  0  0  0  0
  7  9  1  0  0  0  0
 33 34  1  0  0  0  0
 33 35  1  0  0  0  0
 33 36  1  0  0  0  0
 31 32  1  0  0  0  0
 31 33  1  0  0  0  0
M  CHG  1  20   1
M  END
$$$$
default_name
  -OEChem-01062215323D

 36 35  0     1  0  0  0  0  0999 V2000
   -4.2256   -3.6731    1.8584 H   0  0  0  0  0  0  0  0  0  0  0  0
   -4.2396   -2.6781    1.4144 C   0  0  0  0  0  0  0  0  0  0  0  0
   -4.9506   -2.0521    1.9514 H   0  0  0  0  0  0  0  0  0  0  0  0
   -4.5266   -2.7521    0.3674 H   0  0  0  0  0  0  0  0  0  0  0  0
   -2.8576   -2.0761    1.5184 C   0  0  0  0  0  0  0  0  0  0  0  0
   -1.9456   -2.7051    2.0404 O   0  0  0  0  0  0  0  0  0  0  0  0
   -2.6926   -0.8481    1.0174 N   0  0  0  0  0  0  0  0  0  0  0  0
   -3.4926   -0.3971    0.5954 H   0  0  0  0  0  0  0  0  0  0  0  0
   -1.4216   -0.1071    1.0434 C   0  0  1  0  0  0  0  0  0  0  0  0
   -1.4958    0.6767    1.7989 H   0  0  0  0  0  0  0  0  0  0  0  0
   -0.2971   -1.0813    1.4481 C   0  0  0  0  0  0  0  0  0  0  0  0
   -0.3280   -1.9454    0.7815 H   0  0  0  0  0  0  0  0  0  0  0  0
    0.6679   -0.5866    1.3175 H   0  0  0  0  0  0  0  0  0  0  0  0
   -0.4144   -1.5834    2.8946 C   0  0  0  0  0  0  0  0  0  0  0  0
   -0.3744   -0.7381    3.5830 H   0  0  0  0  0  0  0  0  0  0  0  0
   -1.3638   -2.1052    3.0195 H   0  0  0  0  0  0  0  0  0  0  0  0
    0.7408   -2.5434    3.2098 C   0  0  0  0  0  0  0  0  0  0  0  0
    0.7089   -3.3726    2.4992 H   0  0  0  0  0  0  0  0  0  0  0  0
    1.6837   -2.0063    3.0828 H   0  0  0  0  0  0  0  0  0  0  0  0
    0.6549   -3.0712    4.5871 N   0  3  0  0  0  0  0  0  0  0  0  0
   -0.0939   -2.7204    5.1594 H   0  0  0  0  0  0  0  0  0  0  0  0
    1.4672   -3.9589    5.1359 C   0  0  0  0  0  0  0  0  0  0  0  0
    2.4696   -4.4777    4.4837 N   0  0  0  0  0  0  0  0  0  0  0  0
    2.6272   -4.1935    3.5330 H   0  0  0  0  0  0  0  0  0  0  0  0
    3.0768   -5.1499    4.9153 H   0  0  0  0  0  0  0  0  0  0  0  0
    1.2864   -4.3464    6.3666 N   0  0  0  0  0  0  0  0  0  0  0  0
    0.5265   -3.9746    6.9099 H   0  0  0  0  0  0  0  0  0  0  0  0
    1.9049   -5.0201    6.7791 H   0  0  0  0  0  0  0  0  0  0  0  0
   -1.1521    0.5420   -0.3156 C   0  0  0  0  0  0  0  0  0  0  0  0
   -0.2864    0.0769   -1.0473 O   0  0  0  0  0  0  0  0  0  0  0  0
   -1.8662    1.6289   -0.6245 N   0  0  0  0  0  0  0  0  0  0  0  0
   -2.5830    1.9205    0.0198 H   0  0  0  0  0  0  0  0  0  0  0  0
   -1.7327    2.3663   -1.8820 C   0  0  0  0  0  0  0  0  0  0  0  0
   -2.0263    1.7275   -2.7176 H   0  0  0  0  0  0  0  0  0  0  0  0
   -2.3680    3.2529   -1.8719 H   0  0  0  0  0  0  0  0  0  0  0  0
   -0.6938    2.6699   -2.0286 H   0  0  0  0  0  0  0  0  0  0  0  0
  5  6  2  0  0  0  0
  5  7  1  0  0  0  0
  2  3  1  0  0  0  0
  2  4  1  0  0  0  0
  2  5  1  0  0  0  0
  1  2  1  0  0  0  0
 29 30  2  0  0  0  0
 29 31  1  0  0  0  0
 26 27  1  0  0  0  0
 26 28  1  0  0  0  0
 23 24  1  0  0  0  0
 23 25  1  0  0  0  0
 22 23  1  0  0  0  0
 22 26  1  0  0  0  0
 20 21  1  0  0  0  0
 20 22  2  0  0  0  0
 17 18  1  0  0  0  0
 17 19  1  0  0  0  0
 17 20  1  0  0  0  0
 14 15  1  0  0  0  0
 14 16  1  0  0  0  0
 14 17  1  0  0  0  0
 11 12  1  0  0  0  0
 11 13  1  0  0  0  0
 11 14  1  0  0  0  0
  9 10  1  0  0  0  0
  9 11  1  0  0  0  0
  9 29  1  0  0  0  0
  7  8  1  0  0  0  0
  7  9  1  0  0  0  0
 33 34  1  0  0  0  0
 33 35  1  0  0  0  0
 33 36  1  0  0  0  0
 31 32  1  0  0  0  0
 31 33  1  0  0  0  0
M  CHG  1  20   1
M  END
$$$$
default_name
  -OEChem-01062215323D

 36 35  0     1  0  0  0  0  0999 V2000
   -4.2256   -3.6731    1.8584 H   0  0  0  0  0  0  0  0  0  0  0  0
   -4.2396   -2.6781    1.4144 C   0  0  0  0  0  0  0  0  0  0  0  0
   -4.9506   -2.0521    1.9514 H   0  0  0  0  0  0  0  0  0  0  0  0
   -4.5266   -2.7521    0.3674 H   0  0  0  0  0  0  0  0  0  0  0  0
   -2.8576   -2.0761    1.5184 C   0  0  0  0  0  0  0  0  0  0  0  0
   -1.9456   -2.7051    2.0404 O   0  0  0  0  0  0  0  0  0  0  0  0
   -2.6926   -0.8481    1.0174 N   0  0  0  0  0  0  0  0  0  0  0  0
   -3.4926   -0.3971    0.5954 H   0  0  0  0  0  0  0  0  0  0  0  0
   -1.4216   -0.1071    1.0434 C   0  0  1  0  0  0  0  0  0  0  0  0
   -1.4958    0.6767    1.7989 H   0  0  0  0  0  0  0  0  0  0  0  0
   -0.2971   -1.0813    1.4481 C   0  0  0  0  0  0  0  0  0  0  0  0
   -0.3280   -1.9454    0.7815 H   0  0  0  0  0  0  0  0  0  0  0  0
    0.6679   -0.5866    1.3175 H   0  0  0  0  0  0  0  0  0  0  0  0
   -0.4144   -1.5834    2.8946 C   0  0  0  0  0  0  0  0  0  0  0  0
   -0.3744   -0.7381    3.5830 H   0  0  0  0  0  0  0  0  0  0  0  0
   -1.3638   -2.1052    3.0195 H   0  0  0  0  0  0  0  0  0  0  0  0
    0.7408   -2.5434    3.2098 C   0  0  0  0  0  0  0  0  0  0  0  0
    0.7089   -3.3726    2.4992 H   0  0  0  0  0  0  0  0  0  0  0  0
    1.6837   -2.0063    3.0828 H   0  0  0  0  0  0  0  0  0  0  0  0
    0.6549   -3.0712    4.5871 N   0  3  0  0  0  0  0  0  0  0  0  0
   -0.0939   -2.7204    5.1594 H   0  0  0  0  0  0  0  0  0  0  0  0
    1.4672   -3.9589    5.1359 C   0  0  0  0  0  0  0  0  0  0  0  0
    2.4696   -4.4777    4.4837 N   0  0  0  0  0  0  0  0  0  0  0  0
    2.6272   -4.1935    3.5330 H   0  0  0  0  0  0  0  0  0  0  0  0
    3.0768   -5.1499    4.9153 H   0  0  0  0  0  0  0  0  0  0  0  0
    1.2864   -4.3464    6.3666 N   0  0  0  0  0  0  0  0  0  0  0  0
    0.5265   -3.9746    6.9099 H   0  0  0  0  0  0  0  0  0  0  0  0
    1.9049   -5.0201    6.7791 H   0  0  0  0  0  0  0  0  0  0  0  0
   -1.1521    0.5420   -0.3156 C   0  0  0  0  0  0  0  0  0  0  0  0
   -0.4995   -0.0641   -1.1570 O   0  0  0  0  0  0  0  0  0  0  0  0
   -1.6222    1.7790   -0.5044 N   0  0  0  0  0  0  0  0  0  0  0  0
   -2.1803    2.1877    0.2273 H   0  0  0  0  0  0  0  0  0  0  0  0
   -1.4531    2.5389   -1.7441 C   0  0  0  0  0  0  0  0  0  0  0  0
   -1.9728    2.0335   -2.5609 H   0  0  0  0  0  0  0  0  0  0  0  0
   -1.8603    3.5445   -1.6319 H   0  0  0  0  0  0  0  0  0  0  0  0
   -0.3933    2.6063   -1.9993 H   0  0  0  0  0  0  0  0  0  0  0  0
  5  6  2  0  0  0  0
  5  7  1  0  0  0  0
  2  3  1  0  0  0  0
  2  4  1  0  0  0  0
  2  5  1  0  0  0  0
  1  2  1  0  0  0  0
 29 30  2  0  0  0  0
 29 31  1  0  0  0  0
 26 27  1  0  0  0  0
 26 28  1  0  0  0  0
 23 24  1  0  0  0  0
 23 25  1  0  0  0  0
 22 23  1  0  0  0  0
 22 26  1  0  0  0  0
 20 21  1  0  0  0  0
 20 22  2  0  0  0  0
 17 18  1  0  0  0  0
 17 19  1  0  0  0  0
 17 20  1  0  0  0  0
 14 15  1  0  0  0  0
 14 16  1  0  0  0  0
 14 17  1  0  0  0  0
 11 12  1  0  0  0  0
 11 13  1  0  0  0  0
 11 14  1  0  0  0  0
  9 10  1  0  0  0  0
  9 11  1  0  0  0  0
  9 29  1  0  0  0  0
  7  8  1  0  0  0  0
  7  9  1  0  0  0  0
 33 34  1  0  0  0  0
 33 35  1  0  0  0  0
 33 36  1  0  0  0  0
 31 32  1  0  0  0  0
 31 33  1  0  0  0  0
M  CHG  1  20   1
M  END
$$$$
default_name
  -OEChem-01062215323D

 36 35  0     1  0  0  0  0  0999 V2000
   -4.2256   -3.6731    1.8584 H   0  0  0  0  0  0  0  0  0  0  0  0
   -4.2396   -2.6781    1.4144 C   0  0  0  0  0  0  0  0  0  0  0  0
   -4.9506   -2.0521    1.9514 H   0  0  0  0  0  0  0  0  0  0  0  0
   -4.5266   -2.7521    0.3674 H   0  0  0  0  0  0  0  0  0  0  0  0
   -2.8576   -2.0761    1.5184 C   0  0  0  0  0  0  0  0  0  0  0  0
   -1.9456   -2.7051    2.0404 O   0  0  0  0  0  0  0  0  0  0  0  0
   -2.6926   -0.8481    1.0174 N   0  0  0  0  0  0  0  0  0  0  0  0
   -3.4926   -0.3971    0.5954 H   0  0  0  0  0  0  0  0  0  0  0  0
   -1.4216   -0.1071    1.0434 C   0  0  1  0  0  0  0  0  0  0  0  0
   -1.4958    0.6767    1.7989 H   0  0  0  0  0  0  0  0  0  0  0  0
   -0.2971   -1.0813    1.4481 C   0  0  0  0  0  0  0  0  0  0  0  0
   -0.3280   -1.9454    0.7815 H   0  0  0  0  0  0  0  0  0  0  0  0
    0.6679   -0.5866    1.3175 H   0  0  0  0  0  0  0  0  0  0  0  0
   -0.4144   -1.5834    2.8946 C   0  0  0  0  0  0  0  0  0  0  0  0
   -0.3744   -0.7381    3.5830 H   0  0  0  0  0  0  0  0  0  0  0  0
   -1.3638   -2.1052    3.0195 H   0  0  0  0  0  0  0  0  0  0  0  0
    0.7408   -2.5434    3.2098 C   0  0  0  0  0  0  0  0  0  0  0  0
    0.7089   -3.3726    2.4992 H   0  0  0  0  0  0  0  0  0  0  0  0
    1.6837   -2.0063    3.0828 H   0  0  0  0  0  0  0  0  0  0  0  0
    0.6549   -3.0712    4.5871 N   0  3  0  0  0  0  0  0  0  0  0  0
   -0.0939   -2.7204    5.1594 H   0  0  0  0  0  0  0  0  0  0  0  0
    1.4672   -3.9589    5.1359 C   0  0  0  0  0  0  0  0  0  0  0  0
    2.4696   -4.4777    4.4837 N   0  0  0  0  0  0  0  0  0  0  0  0
    2.6272   -4.1935    3.5330 H   0  0  0  0  0  0  0  0  0  0  0  0
    3.0768   -5.1499    4.9153 H   0  0  0  0  0  0  0  0  0  0  0  0
    1.2864   -4.3464    6.3666 N   0  0  0  0  0  0  0  0  0  0  0  0
    0.5265   -3.9746    6.9099 H   0  0  0  0  0  0  0  0  0  0  0  0
    1.9049   -5.0201    6.7791 H   0  0  0  0  0  0  0  0  0  0  0  0
   -1.1521    0.5420   -0.3156 C   0  0  0  0  0  0  0  0  0  0  0  0
   -0.7499   -0.1464   -1.2459 O   0  0  0  0  0  0  0  0  0  0  0  0
   -1.3389    1.8623   -0.4084 N   0  0  0  0  0  0  0  0  0  0  0  0
   -1.7071    2.3437    0.3956 H   0  0  0  0  0  0  0  0  0  0  0  0
   -1.1283    2.6350   -1.6338 C   0  0  0  0  0  0  0  0  0  0  0  0
   -1.8337    2.3096   -2.4014 H   0  0  0  0  0  0  0  0  0  0  0  0
   -1.2766    3.6986   -1.4426 H   0  0  0  0  0  0  0  0  0  0  0  0
   -0.1145    2.4745   -2.0070 H   0  0  0  0  0  0  0  0  0  0  0  0
  5  6  2  0  0  0  0
  5  7  1  0  0  0  0
  2  3  1  0  0  0  0
  2  4  1  0  0  0  0
  2  5  1  0  0  0  0
  1  2  1  0  0  0  0
 29 30  2  0  0  0  0
 29 31  1  0  0  0  0
 26 27  1  0  0  0  0
 26 28  1  0  0  0  0
 23 24  1  0  0  0  0
 23 25  1  0  0  0  0
 22 23  1  0  0  0  0
 22 26  1  0  0  0  0
 20 21  1  0  0  0  0
 20 22  2  0  0  0  0
 17 18  1  0  0  0  0
 17 19  1  0  0  0  0
 17 20  1  0  0  0  0
 14 15  1  0  0  0  0
 14 16  1  0  0  0  0
 14 17  1  0  0  0  0
 11 12  1  0  0  0  0
 11 13  1  0  0  0  0
 11 14  1  0  0  0  0
  9 10  1  0  0  0  0
  9 11  1  0  0  0  0
  9 29  1  0  0  0  0
  7  8  1  0  0  0  0
  7  9  1  0  0  0  0
 33 34  1  0  0  0  0
 33 35  1  0  0  0  0
 33 36  1  0  0  0  0
 31 32  1  0  0  0  0
 31 33  1  0  0  0  0
M  CHG  1  20   1
M  END
$$$$
default_name
  -OEChem-01062215323D

 36 35  0     1  0  0  0  0  0999 V2000
   -4.2256   -3.6731    1.8584 H   0  0  0  0  0  0  0  0  0  0  0  0
   -4.2396   -2.6781    1.4144 C   0  0  0  0  0  0  0  0  0  0  0  0
   -4.9506   -2.0521    1.9514 H   0  0  0  0  0  0  0  0  0  0  0  0
   -4.5266   -2.7521    0.3674 H   0  0  0  0  0  0  0  0  0  0  0  0
   -2.8576   -2.0761    1.5184 C   0  0  0  0  0  0  0  0  0  0  0  0
   -1.9456   -2.7051    2.0404 O   0  0  0  0  0  0  0  0  0  0  0  0
   -2.6926   -0.8481    1.0174 N   0  0  0  0  0  0  0  0  0  0  0  0
   -3.4926   -0.3971    0.5954 H   0  0  0  0  0  0  0  0  0  0  0  0
   -1.4216   -0.1071    1.0434 C   0  0  1  0  0  0  0  0  0  0  0  0
   -1.4958    0.6767    1.7989 H   0  0  0  0  0  0  0  0  0  0  0  0
   -0.2971   -1.0813    1.4481 C   0  0  0  0  0  0  0  0  0  0  0  0
   -0.3280   -1.9454    0.7815 H   0  0  0  0  0  0  0  0  0  0  0  0
    0.6679   -0.5866    1.3175 H   0  0  0  0  0  0  0  0  0  0  0  0
   -0.4144   -1.5834    2.8946 C   0  0  0  0  0  0  0  0  0  0  0  0
   -0.3744   -0.7381    3.5830 H   0  0  0  0  0  0  0  0  0  0  0  0
   -1.3638   -2.1052    3.0195 H   0  0  0  0  0  0  0  0  0  0  0  0
    0.7408   -2.5434    3.2098 C   0  0  0  0  0  0  0  0  0  0  0  0
    0.7089   -3.3726    2.4992 H   0  0  0  0  0  0  0  0  0  0  0  0
    1.6837   -2.0063    3.0828 H   0  0  0  0  0  0  0  0  0  0  0  0
    0.6549   -3.0712    4.5871 N   0  3  0  0  0  0  0  0  0  0  0  0
   -0.0939   -2.7204    5.1594 H   0  0  0  0  0  0  0  0  0  0  0  0
    1.4672   -3.9589    5.1359 C   0  0  0  0  0  0  0  0  0  0  0  0
    2.4696   -4.4777    4.4837 N   0  0  0  0  0  0  0  0  0  0  0  0
    2.6272   -4.1935    3.5330 H   0  0  0  0  0  0  0  0  0  0  0  0
    3.0768   -5.1499    4.9153 H   0  0  0  0  0  0  0  0  0  0  0  0
    1.2864   -4.3464    6.3666 N   0  0  0  0  0  0  0  0  0  0  0  0
    0.5265   -3.9746    6.9099 H   0  0  0  0  0  0  0  0  0  0  0  0
    1.9049   -5.0201    6.7791 H   0  0  0  0  0  0  0  0  0  0  0  0
   -1.1521    0.5420   -0.3156 C   0  0  0  0  0  0  0  0  0  0  0  0
   -1.0203   -0.1642   -1.3081 O   0  0  0  0  0  0  0  0  0  0  0  0
   -1.0355    1.8733   -0.3430 N   0  0  0  0  0  0  0  0  0  0  0  0
   -1.1957    2.3780    0.5134 H   0  0  0  0  0  0  0  0  0  0  0  0
   -0.7803    2.6481   -1.5585 C   0  0  0  0  0  0  0  0  0  0  0  0
   -1.6182    2.5370   -2.2500 H   0  0  0  0  0  0  0  0  0  0  0  0
   -0.6565    3.7045   -1.3168 H   0  0  0  0  0  0  0  0  0  0  0  0
    0.1237    2.2835   -2.0510 H   0  0  0  0  0  0  0  0  0  0  0  0
  5  6  2  0  0  0  0
  5  7  1  0  0  0  0
  2  3  1  0  0  0  0
  2  4  1  0  0  0  0
  2  5  1  0  0  0  0
  1  2  1  0  0  0  0
 29 30  2  0  0  0  0
 29 31  1  0  0  0  0
 26 27  1  0  0  0  0
 26 28  1  0  0  0  0
 23 24  1  0  0  0  0
 23 25  1  0  0  0  0
 22 23  1  0  0  0  0
 22 26  1  0  0  0  0
 20 21  1  0  0  0  0
 20 22  2  0  0  0  0
 17 18  1  0  0  0  0
 17 19  1  0  0  0  0
 17 20  1  0  0  0  0
 14 15  1  0  0  0  0
 14 16  1  0  0  0  0
 14 17  1  0  0  0  0
 11 12  1  0  0  0  0
 11 13  1  0  0  0  0
 11 14  1  0  0  0  0
  9 10  1  0  0  0  0
  9 11  1  0  0  0  0
  9 29  1  0  0  0  0
  7  8  1  0  0  0  0
  7  9  1  0  0  0  0
 33 34  1  0  0  0  0
 33 35  1  0  0  0  0
 33 36  1  0  0  0  0
 31 32  1  0  0  0  0
 31 33  1  0  0  0  0
M  CHG  1  20   1
M  END
$$$$
default_name
  -OEChem-01062215323D

 36 35  0     1  0  0  0  0  0999 V2000
   -4.2256   -3.6731    1.8584 H   0  0  0  0  0  0  0  0  0  0  0  0
   -4.2396   -2.6781    1.4144 C   0  0  0  0  0  0  0  0  0  0  0  0
   -4.9506   -2.0521    1.9514 H   0  0  0  0  0  0  0  0  0  0  0  0
   -4.5266   -2.7521    0.3674 H   0  0  0  0  0  0  0  0  0  0  0  0
   -2.8576   -2.0761    1.5184 C   0  0  0  0  0  0  0  0  0  0  0  0
   -1.9456   -2.7051    2.0404 O   0  0  0  0  0  0  0  0  0  0  0  0
   -2.6926   -0.8481    1.0174 N   0  0  0  0  0  0  0  0  0  0  0  0
   -3.4926   -0.3971    0.5954 H   0  0  0  0  0  0  0  0  0  0  0  0
   -1.4216   -0.1071    1.0434 C   0  0  1  0  0  0  0  0  0  0  0  0
   -1.4958    0.6767    1.7989 H   0  0  0  0  0  0  0  0  0  0  0  0
   -0.2971   -1.0813    1.4481 C   0  0  0  0  0  0  0  0  0  0  0  0
   -0.3280   -1.9454    0.7815 H   0  0  0  0  0  0  0  0  0  0  0  0
    0.6679   -0.5866    1.3175 H   0  0  0  0  0  0  0  0  0  0  0  0
   -0.4144   -1.5834    2.8946 C   0  0  0  0  0  0  0  0  0  0  0  0
   -0.3744   -0.7381    3.5830 H   0  0  0  0  0  0  0  0  0  0  0  0
   -1.3638   -2.1052    3.0195 H   0  0  0  0  0  0  0  0  0  0  0  0
    0.7408   -2.5434    3.2098 C   0  0  0  0  0  0  0  0  0  0  0  0
    0.7089   -3.3726    2.4992 H   0  0  0  0  0  0  0  0  0  0  0  0
    1.6837   -2.0063    3.0828 H   0  0  0  0  0  0  0  0  0  0  0  0
    0.6549   -3.0712    4.5871 N   0  3  0  0  0  0  0  0  0  0  0  0
   -0.0939   -2.7204    5.1594 H   0  0  0  0  0  0  0  0  0  0  0  0
    1.4672   -3.9589    5.1359 C   0  0  0  0  0  0  0  0  0  0  0  0
    2.4696   -4.4777    4.4837 N   0  0  0  0  0  0  0  0  0  0  0  0
    2.6272   -4.1935    3.5330 H   0  0  0  0  0  0  0  0  0  0  0  0
    3.0768   -5.1499    4.9153 H   0  0  0  0  0  0  0  0  0  0  0  0
    1.2864   -4.3464    6.3666 N   0  0  0  0  0  0  0  0  0  0  0  0
    0.5265   -3.9746    6.9099 H   0  0  0  0  0  0  0  0  0  0  0  0
    1.9049   -5.0201    6.7791 H   0  0  0  0  0  0  0  0  0  0  0  0
   -1.1521    0.5420   -0.3156 C   0  0  0  0  0  0  0  0  0  0  0  0
   -1.2925   -0.1164   -1.3392 O   0  0  0  0  0  0  0  0  0  0  0  0
   -0.7328    1.8113   -0.3126 N   0  0  0  0  0  0  0  0  0  0  0  0
   -0.6809    2.2882    0.5726 H   0  0  0  0  0  0  0  0  0  0  0  0
   -0.4329    2.5774   -1.5234 C   0  0  0  0  0  0  0  0  0  0  0  0
   -1.3412    2.7003   -2.1171 H   0  0  0  0  0  0  0  0  0  0  0  0
   -0.0424    3.5620   -1.2631 H   0  0  0  0  0  0  0  0  0  0  0  0
    0.3051    2.0462   -2.1284 H   0  0  0  0  0  0  0  0  0  0  0  0
  5  6  2  0  0  0  0
  5  7  1  0  0  0  0
  2  3  1  0  0  0  0
  2  4  1  0  0  0  0
  2  5  1  0  0  0  0
  1  2  1  0  0  0  0
 29 30  2  0  0  0  0
 29 31  1  0  0  0  0
 26 27  1  0  0  0  0
 26 28  1  0  0  0  0
 23 24  1  0  0  0  0
 23 25  1  0  0  0  0
 22 23  1  0  0  0  0
 22 26  1  0  0  0  0
 20 21  1  0  0  0  0
 20 22  2  0  0  0  0
 17 18  1  0  0  0  0
 17 19  1  0  0  0  0
 17 20  1  0  0  0  0
 14 15  1  0  0  0  0
 14 16  1  0  0  0  0
 14 17  1  0  0  0  0
 11 12  1  0  0  0  0
 11 13  1  0  0  0  0
 11 14  1  0  0  0  0
  9 10  1  0  0  0  0
  9 11  1  0  0  0  0
  9 29  1  0  0  0  0
  7  8  1  0  0  0  0
  7  9  1  0  0  0  0
 33 34  1  0  0  0  0
 33 35  1  0  0  0  0
 33 36  1  0  0  0  0
 31 32  1  0  0  0  0
 31 33  1  0  0  0  0
M  CHG  1  20   1
M  END
$$$$
default_name
  -OEChem-01062215323D

 36 35  0     1  0  0  0  0  0999 V2000
   -4.2256   -3.6731    1.8584 H   0  0  0  0  0  0  0  0  0  0  0  0
   -4.2396   -2.6781    1.4144 C   0  0  0  0  0  0  0  0  0  0  0  0
   -4.9506   -2.0521    1.9514 H   0  0  0  0  0  0  0  0  0  0  0  0
   -4.5266   -2.7521    0.3674 H   0  0  0  0  0  0  0  0  0  0  0  0
   -2.8576   -2.0761    1.5184 C   0  0  0  0  0  0  0  0  0  0  0  0
   -1.9456   -2.7051    2.0404 O   0  0  0  0  0  0  0  0  0  0  0  0
   -2.6926   -0.8481    1.0174 N   0  0  0  0  0  0  0  0  0  0  0  0
   -3.4926   -0.3971    0.5954 H   0  0  0  0  0  0  0  0  0  0  0  0
   -1.4216   -0.1071    1.0434 C   0  0  1  0  0  0  0  0  0  0  0  0
   -1.4958    0.6767    1.7989 H   0  0  0  0  0  0  0  0  0  0  0  0
   -0.2971   -1.0813    1.4481 C   0  0  0  0  0  0  0  0  0  0  0  0
   -0.3280   -1.9454    0.7815 H   0  0  0  0  0  0  0  0  0  0  0  0
    0.6679   -0.5866    1.3175 H   0  0  0  0  0  0  0  0  0  0  0  0
   -0.4144   -1.5834    2.8946 C   0  0  0  0  0  0  0  0  0  0  0  0
   -0.3744   -0.7381    3.5830 H   0  0  0  0  0  0  0  0  0  0  0  0
   -1.3638   -2.1052    3.0195 H   0  0  0  0  0  0  0  0  0  0  0  0
    0.7408   -2.5434    3.2098 C   0  0  0  0  0  0  0  0  0  0  0  0
    0.7089   -3.3726    2.4992 H   0  0  0  0  0  0  0  0  0  0  0  0
    1.6837   -2.0063    3.0828 H   0  0  0  0  0  0  0  0  0  0  0  0
    0.6549   -3.0712    4.5871 N   0  3  0  0  0  0  0  0  0  0  0  0
   -0.0939   -2.7204    5.1594 H   0  0  0  0  0  0  0  0  0  0  0  0
    1.4672   -3.9589    5.1359 C   0  0  0  0  0  0  0  0  0  0  0  0
    2.4696   -4.4777    4.4837 N   0  0  0  0  0  0  0  0  0  0  0  0
    2.6272   -4.1935    3.5330 H   0  0  0  0  0  0  0  0  0  0  0  0
    3.0768   -5.1499    4.9153 H   0  0  0  0  0  0  0  0  0  0  0  0
    1.2864   -4.3464    6.3666 N   0  0  0  0  0  0  0  0  0  0  0  0
    0.5265   -3.9746    6.9099 H   0  0  0  0  0  0  0  0  0  0  0  0
    1.9049   -5.0201    6.7791 H   0  0  0  0  0  0  0  0  0  0  0  0
   -1.1521    0.5420   -0.3156 C   0  0  0  0  0  0  0  0  0  0  0  0
   -1.5479   -0.0063   -1.3372 O   0  0  0  0  0  0  0  0  0  0  0  0
   -0.4513    1.6803   -0.3194 N   0  0  0  0  0  0  0  0  0  0  0  0
   -0.1978    2.0804    0.5692 H   0  0  0  0  0  0  0  0  0  0  0  0
   -0.1097    2.4276   -1.5309 C   0  0  0  0  0  0  0  0  0  0  0  0
   -1.0215    2.7882   -2.0117 H   0  0  0  0  0  0  0  0  0  0  0  0
    0.5240    3.2807   -1.2852 H   0  0  0  0  0  0  0  0  0  0  0  0
    0.4172    1.7788   -2.2339 H   0  0  0  0  0  0  0  0  0  0  0  0
  5  6  2  0  0  0  0
  5  7  1  0  0  0  0
  2  3  1  0  0  0  0
  2  4  1  0  0  0  0
  2  5  1  0  0  0  0
  1  2  1  0  0  0  0
 29 30  2  0  0  0  0
 29 31  1  0  0  0  0
 26 27  1  0  0  0  0
 26 28  1  0  0  0  0
 23 24  1  0  0  0  0
 23 25  1  0  0  0  0
 22 23  1  0  0  0  0
 22 26  1  0  0  0  0
 20 21  1  0  0  0  0
 20 22  2  0  0  0  0
 17 18  1  0  0  0  0
 17 19  1  0  0  0  0
 17 20  1  0  0  0  0
 14 15  1  0  0  0  0
 14 16  1  0  0  0  0
 14 17  1  0  0  0  0
 11 12  1  0  0  0  0
 11 13  1  0  0  0  0
 11 14  1  0  0  0  0
  9 10  1  0  0  0  0
  9 11  1  0  0  0  0
  9 29  1  0  0  0  0
  7  8  1  0  0  0  0
  7  9  1  0  0  0  0
 33 34  1  0  0  0  0
 33 35  1  0  0  0  0
 33 36  1  0  0  0  0
 31 32  1  0  0  0  0
 31 33  1  0  0  0  0
M  CHG  1  20   1
M  END
$$$$
default_name
  -OEChem-01062215323D

 36 35  0     1  0  0  0  0  0999 V2000
   -4.2256   -3.6731    1.8584 H   0  0  0  0  0  0  0  0  0  0  0  0
   -4.2396   -2.6781    1.4144 C   0  0  0  0  0  0  0  0  0  0  0  0
   -4.9506   -2.0521    1.9514 H   0  0  0  0  0  0  0  0  0  0  0  0
   -4.5266   -2.7521    0.3674 H   0  0  0  0  0  0  0  0  0  0  0  0
   -2.8576   -2.0761    1.5184 C   0  0  0  0  0  0  0  0  0  0  0  0
   -1.9456   -2.7051    2.0404 O   0  0  0  0  0  0  0  0  0  0  0  0
   -2.6926   -0.8481    1.0174 N   0  0  0  0  0  0  0  0  0  0  0  0
   -3.4926   -0.3971    0.5954 H   0  0  0  0  0  0  0  0  0  0  0  0
   -1.4216   -0.1071    1.0434 C   0  0  1  0  0  0  0  0  0  0  0  0
   -1.4958    0.6767    1.7989 H   0  0  0  0  0  0  0  0  0  0  0  0
   -0.2971   -1.0813    1.4481 C   0  0  0  0  0  0  0  0  0  0  0  0
   -0.3280   -1.9454    0.7815 H   0  0  0  0  0  0  0  0  0  0  0  0
    0.6679   -0.5866    1.3175 H   0  0  0  0  0  0  0  0  0  0  0  0
   -0.4144   -1.5834    2.8946 C   0  0  0  0  0  0  0  0  0  0  0  0
   -0.3744   -0.7381    3.5830 H   0  0  0  0  0  0  0  0  0  0  0  0
   -1.3638   -2.1052    3.0195 H   0  0  0  0  0  0  0  0  0  0  0  0
    0.7408   -2.5434    3.2098 C   0  0  0  0  0  0  0  0  0  0  0  0
    0.7089   -3.3726    2.4992 H   0  0  0  0  0  0  0  0  0  0  0  0
    1.6837   -2.0063    3.0828 H   0  0  0  0  0  0  0  0  0  0  0  0
    0.6549   -3.0712    4.5871 N   0  3  0  0  0  0  0  0  0  0  0  0
   -0.0939   -2.7204    5.1594 H   0  0  0  0  0  0  0  0  0  0  0  0
    1.4672   -3.9589    5.1359 C   0  0  0  0  0  0  0  0  0  0  0  0
    2.4696   -4.4777    4.4837 N   0  0  0  0  0  0  0  0  0  0  0  0
    2.6272   -4.1935    3.5330 H   0  0  0  0  0  0  0  0  0  0  0  0
    3.0768   -5.1499    4.9153 H   0  0  0  0  0  0  0  0  0  0  0  0
    1.2864   -4.3464    6.3666 N   0  0  0  0  0  0  0  0  0  0  0  0
    0.5265   -3.9746    6.9099 H   0  0  0  0  0  0  0  0  0  0  0  0
    1.9049   -5.0201    6.7791 H   0  0  0  0  0  0  0  0  0  0  0  0
   -1.1521    0.5420   -0.3156 C   0  0  0  0  0  0  0  0  0  0  0  0
   -1.7690    0.1587   -1.3023 O   0  0  0  0  0  0  0  0  0  0  0  0
   -0.2103    1.4894   -0.3628 N   0  0  0  0  0  0  0  0  0  0  0  0
    0.2208    1.7688    0.5033 H   0  0  0  0  0  0  0  0  0  0  0  0
    0.1672    2.2090   -1.5804 C   0  0  0  0  0  0  0  0  0  0  0  0
   -0.6809    2.7949   -1.9410 H   0  0  0  0  0  0  0  0  0  0  0  0
    1.0039    2.8798   -1.3815 H   0  0  0  0  0  0  0  0  0  0  0  0
    0.4524    1.4995   -2.3603 H   0  0  0  0  0  0  0  0  0  0  0  0
  5  6  2  0  0  0  0
  5  7  1  0  0  0  0
  2  3  1  0  0  0  0
  2  4  1  0  0  0  0
  2  5  1  0  0  0  0
  1  2  1  0  0  0  0
 29 30  2  0  0  0  0
 29 31  1  0  0  0  0
 26 27  1  0  0  0  0
 26 28  1  0  0  0  0
 23 24  1  0  0  0  0
 23 25  1  0  0  0  0
 22 23  1  0  0  0  0
 22 26  1  0  0  0  0
 20 21  1  0  0  0  0
 20 22  2  0  0  0  0
 17 18  1  0  0  0  0
 17 19  1  0  0  0  0
 17 20  1  0  0  0  0
 14 15  1  0  0  0  0
 14 16  1  0  0  0  0
 14 17  1  0  0  0  0
 11 12  1  0  0  0  0
 11 13  1  0  0  0  0
 11 14  1  0  0  0  0
  9 10  1  0  0  0  0
  9 11  1  0  0  0  0
  9 29  1  0  0  0  0
  7  8  1  0  0  0  0
  7  9  1  0  0  0  0
 33 34  1  0  0  0  0
 33 35  1  0  0  0  0
 33 36  1  0  0  0  0
 31 32  1  0  0  0  0
 31 33  1  0  0  0  0
M  CHG  1  20   1
M  END
$$$$
default_name
  -OEChem-01062215323D

 36 35  0     1  0  0  0  0  0999 V2000
   -4.2256   -3.6731    1.8584 H   0  0  0  0  0  0  0  0  0  0  0  0
   -4.2396   -2.6781    1.4144 C   0  0  0  0  0  0  0  0  0  0  0  0
   -4.9506   -2.0521    1.9514 H   0  0  0  0  0  0  0  0  0  0  0  0
   -4.5266   -2.7521    0.3674 H   0  0  0  0  0  0  0  0  0  0  0  0
   -2.8576   -2.0761    1.5184 C   0  0  0  0  0  0  0  0  0  0  0  0
   -1.9456   -2.7051    2.0404 O   0  0  0  0  0  0  0  0  0  0  0  0
   -2.6926   -0.8481    1.0174 N   0  0  0  0  0  0  0  0  0  0  0  0
   -3.4926   -0.3971    0.5954 H   0  0  0  0  0  0  0  0  0  0  0  0
   -1.4216   -0.1071    1.0434 C   0  0  1  0  0  0  0  0  0  0  0  0
   -1.3883    0.4867    1.9583 H   0  0  0  0  0  0  0  0  0  0  0  0
   -0.2638   -1.1251    1.0703 C   0  0  0  0  0  0  0  0  0  0  0  0
   -0.3906   -1.8190    0.2369 H   0  0  0  0  0  0  0  0  0  0  0  0
    0.6808   -0.5951    0.9295 H   0  0  0  0  0  0  0  0  0  0  0  0
   -0.1960   -1.9397    2.3703 C   0  0  0  0  0  0  0  0  0  0  0  0
   -0.0577   -1.2687    3.2193 H   0  0  0  0  0  0  0  0  0  0  0  0
   -1.1262   -2.4944    2.4974 H   0  0  0  0  0  0  0  0  0  0  0  0
    0.9806   -2.9232    2.3099 C   0  0  0  0  0  0  0  0  0  0  0  0
    0.8475   -3.5732    1.4421 H   0  0  0  0  0  0  0  0  0  0  0  0
    1.9042   -2.3531    2.1851 H   0  0  0  0  0  0  0  0  0  0  0  0
    1.0703   -3.7467    3.5332 N   0  3  0  0  0  0  0  0  0  0  0  0
    0.4064   -3.5471    4.2618 H   0  0  0  0  0  0  0  0  0  0  0  0
    1.9382   -4.7186    3.7593 C   0  0  0  0  0  0  0  0  0  0  0  0
    2.8413   -5.0591    2.8830 N   0  0  0  0  0  0  0  0  0  0  0  0
    2.8760   -4.5669    2.0079 H   0  0  0  0  0  0  0  0  0  0  0  0
    3.4928   -5.7988    3.0706 H   0  0  0  0  0  0  0  0  0  0  0  0
    1.9161   -5.3745    4.8847 N   0  0  0  0  0  0  0  0  0  0  0  0
    1.2376   -5.1482    5.5914 H   0  0  0  0  0  0  0  0  0  0  0  0
    2.5764   -6.1112    5.0521 H   0  0  0  0  0  0  0  0  0  0  0  0
   -1.3256    0.8342   -0.1590 C   0  0  0  0  0  0  0  0  0  0  0  0
   -2.2299    0.8543   -0.9854 O   0  0  0  0  0  0  0  0  0  0  0  0
   -0.2183    1.5752   -0.2663 N   0  0  0  0  0  0  0  0  0  0  0  0
    0.4574    1.5232    0.4784 H   0  0  0  0  0  0  0  0  0  0  0  0
    0.0294    2.5248   -1.3525 C   0  0  0  0  0  0  0  0  0  0  0  0
   -0.7095    3.3282   -1.3164 H   0  0  0  0  0  0  0  0  0  0  0  0
    1.0274    2.9552   -1.2608 H   0  0  0  0  0  0  0  0  0  0  0  0
   -0.0573    2.0199   -2.3171 H   0  0  0  0  0  0  0  0  0  0  0  0
  5  6  2  0  0  0  0
  5  7  1  0  0  0  0
  2  3  1  0  0  0  0
  2  4  1  0  0  0  0
  2  5  1  0  0  0  0
  1  2  1  0  0  0  0
 29 30  2  0  0  0  0
 29 31  1  0  0  0  0
 26 27  1  0  0  0  0
 26 28  1  0  0  0  0
 23 24  1  0  0  0  0
 23 25  1  0  0  0  0
 22 23  1  0  0  0  0
 22 26  1  0  0  0  0
 20 21  1  0  0  0  0
 20 22  2  0  0  0  0
 17 18  1  0  0  0  0
 17 19  1  0  0  0  0
 17 20  1  0  0  0  0
 14 15  1  0  0  0  0
 14 16  1  0  0  0  0
 14 17  1  0  0  0  0
 11 12  1  0  0  0  0
 11 13  1  0  0  0  0
 11 14  1  0  0  0  0
  9 10  1  0  0  0  0
  9 11  1  0  0  0  0
  9 29  1  0  0  0  0
  7  8  1  0  0  0  0
  7  9  1  0  0  0  0
 33 34  1  0  0  0  0
 33 35  1  0  0  0  0
 33 36  1  0  0  0  0
 31 32  1  0  0  0  0
 31 33  1  0  0  0  0
M  CHG  1  20   1
M  END
$$$$
default_name
  -OEChem-01062215323D

 36 35  0     1  0  0  0  0  0999 V2000
   -4.2256   -3.6731    1.8584 H   0  0  0  0  0  0  0  0  0  0  0  0
   -4.2396   -2.6781    1.4144 C   0  0  0  0  0  0  0  0  0  0  0  0
   -4.9506   -2.0521    1.9514 H   0  0  0  0  0  0  0  0  0  0  0  0
   -4.5266   -2.7521    0.3674 H   0  0  0  0  0  0  0  0  0  0  0  0
   -2.8576   -2.0761    1.5184 C   0  0  0  0  0  0  0  0  0  0  0  0
   -1.9456   -2.7051    2.0404 O   0  0  0  0  0  0  0  0  0  0  0  0
   -2.6926   -0.8481    1.0174 N   0  0  0  0  0  0  0  0  0  0  0  0
   -3.4926   -0.3971    0.5954 H   0  0  0  0  0  0  0  0  0  0  0  0
   -1.4216   -0.1071    1.0434 C   0  0  1  0  0  0  0  0  0  0  0  0
   -1.3883    0.4867    1.9583 H   0  0  0  0  0  0  0  0  0  0  0  0
   -0.2638   -1.1251    1.0703 C   0  0  0  0  0  0  0  0  0  0  0  0
   -0.3906   -1.8190    0.2369 H   0  0  0  0  0  0  0  0  0  0  0  0
    0.6808   -0.5951    0.9295 H   0  0  0  0  0  0  0  0  0  0  0  0
   -0.1960   -1.9397    2.3703 C   0  0  0  0  0  0  0  0  0  0  0  0
   -0.0577   -1.2687    3.2193 H   0  0  0  0  0  0  0  0  0  0  0  0
   -1.1262   -2.4944    2.4974 H   0  0  0  0  0  0  0  0  0  0  0  0
    0.9806   -2.9232    2.3099 C   0  0  0  0  0  0  0  0  0  0  0  0
    0.8475   -3.5732    1.4421 H   0  0  0  0  0  0  0  0  0  0  0  0
    1.9042   -2.3531    2.1851 H   0  0  0  0  0  0  0  0  0  0  0  0
    1.0703   -3.7467    3.5332 N   0  3  0  0  0  0  0  0  0  0  0  0
    0.4064   -3.5471    4.2618 H   0  0  0  0  0  0  0  0  0  0  0  0
    1.9382   -4.7186    3.7593 C   0  0  0  0  0  0  0  0  0  0  0  0
    2.8413   -5.0591    2.8830 N   0  0  0  0  0  0  0  0  0  0  0  0
    2.8760   -4.5669    2.0079 H   0  0  0  0  0  0  0  0  0  0  0  0
    3.4928   -5.7988    3.0706 H   0  0  0  0  0  0  0  0  0  0  0  0
    1.9161   -5.3745    4.8847 N   0  0  0  0  0  0  0  0  0  0  0  0
    1.2376   -5.1482    5.5914 H   0  0  0  0  0  0  0  0  0  0  0  0
    2.5764   -6.1112    5.0521 H   0  0  0  0  0  0  0  0  0  0  0  0
   -1.3256    0.8342   -0.1590 C   0  0  0  0  0  0  0  0  0  0  0  0
   -2.3253    1.0636   -0.8291 O   0  0  0  0  0  0  0  0  0  0  0  0
   -0.1211    1.3393   -0.4432 N   0  0  0  0  0  0  0  0  0  0  0  0
    0.6384    1.1275    0.1830 H   0  0  0  0  0  0  0  0  0  0  0  0
    0.1415    2.2542   -1.5554 C   0  0  0  0  0  0  0  0  0  0  0  0
   -0.4022    3.1887   -1.4010 H   0  0  0  0  0  0  0  0  0  0  0  0
    1.2082    2.4708   -1.6255 H   0  0  0  0  0  0  0  0  0  0  0  0
   -0.1976    1.8091   -2.4933 H   0  0  0  0  0  0  0  0  0  0  0  0
  5  6  2  0  0  0  0
  5  7  1  0  0  0  0
  2  3  1  0  0  0  0
  2  4  1  0  0  0  0
  2  5  1  0  0  0  0
  1  2  1  0  0  0  0
 29 30  2  0  0  0  0
 29 31  1  0  0  0  0
 26 27  1  0  0  0  0
 26 28  1  0  0  0  0
 23 24  1  0  0  0  0
 23 25  1  0  0  0  0
 22 23  1  0  0  0  0
 22 26  1  0  0  0  0
 20 21  1  0  0  0  0
 20 22  2  0  0  0  0
 17 18  1  0  0  0  0
 17 19  1  0  0  0  0
 17 20  1  0  0  0  0
 14 15  1  0  0  0  0
 14 16  1  0  0  0  0
 14 17  1  0  0  0  0
 11 12  1  0  0  0  0
 11 13  1  0  0  0  0
 11 14  1  0  0  0  0
  9 10  1  0  0  0  0
  9 11  1  0  0  0  0
  9 29  1  0  0  0  0
  7  8  1  0  0  0  0
  7  9  1  0  0  0  0
 33 34  1  0  0  0  0
 33 35  1  0  0  0  0
 33 36  1  0  0  0  0
 31 32  1  0  0  0  0
 31 33  1  0  0  0  0
M  CHG  1  20   1
M  END
$$$$
default_name
  -OEChem-01062215323D

 36 35  0     1  0  0  0  0  0999 V2000
   -4.2256   -3.6731    1.8584 H   0  0  0  0  0  0  0  0  0  0  0  0
   -4.2396   -2.6781    1.4144 C   0  0  0  0  0  0  0  0  0  0  0  0
   -4.9506   -2.0521    1.9514 H   0  0  0  0  0  0  0  0  0  0  0  0
   -4.5266   -2.7521    0.3674 H   0  0  0  0  0  0  0  0  0  0  0  0
   -2.8576   -2.0761    1.5184 C   0  0  0  0  0  0  0  0  0  0  0  0
   -1.9456   -2.7051    2.0404 O   0  0  0  0  0  0  0  0  0  0  0  0
   -2.6926   -0.8481    1.0174 N   0  0  0  0  0  0  0  0  0  0  0  0
   -3.4926   -0.3971    0.5954 H   0  0  0  0  0  0  0  0  0  0  0  0
   -1.4216   -0.1071    1.0434 C   0  0  1  0  0  0  0  0  0  0  0  0
   -1.3883    0.4867    1.9583 H   0  0  0  0  0  0  0  0  0  0  0  0
   -0.2638   -1.1251    1.0703 C   0  0  0  0  0  0  0  0  0  0  0  0
   -0.3906   -1.8190    0.2369 H   0  0  0  0  0  0  0  0  0  0  0  0
    0.6808   -0.5951    0.9295 H   0  0  0  0  0  0  0  0  0  0  0  0
   -0.1960   -1.9397    2.3703 C   0  0  0  0  0  0  0  0  0  0  0  0
   -0.0577   -1.2687    3.2193 H   0  0  0  0  0  0  0  0  0  0  0  0
   -1.1262   -2.4944    2.4974 H   0  0  0  0  0  0  0  0  0  0  0  0
    0.9806   -2.9232    2.3099 C   0  0  0  0  0  0  0  0  0  0  0  0
    0.8475   -3.5732    1.4421 H   0  0  0  0  0  0  0  0  0  0  0  0
    1.9042   -2.3531    2.1851 H   0  0  0  0  0  0  0  0  0  0  0  0
    1.0703   -3.7467    3.5332 N   0  3  0  0  0  0  0  0  0  0  0  0
    0.4064   -3.5471    4.2618 H   0  0  0  0  0  0  0  0  0  0  0  0
    1.9382   -4.7186    3.7593 C   0  0  0  0  0  0  0  0  0  0  0  0
    2.8413   -5.0591    2.8830 N   0  0  0  0  0  0  0  0  0  0  0  0
    2.8760   -4.5669    2.0079 H   0  0  0  0  0  0  0  0  0  0  0  0
    3.4928   -5.7988    3.0706 H   0  0  0  0  0  0  0  0  0  0  0  0
    1.9161   -5.3745    4.8847 N   0  0  0  0  0  0  0  0  0  0  0  0
    1.2376   -5.1482    5.5914 H   0  0  0  0  0  0  0  0  0  0  0  0
    2.5764   -6.1112    5.0521 H   0  0  0  0  0  0  0  0  0  0  0  0
   -1.3256    0.8342   -0.1590 C   0  0  0  0  0  0  0  0  0  0  0  0
   -2.3499    1.2827   -0.6596 O   0  0  0  0  0  0  0  0  0  0  0  0
   -0.1034    1.0945   -0.6335 N   0  0  0  0  0  0  0  0  0  0  0  0
    0.6857    0.7132   -0.1375 H   0  0  0  0  0  0  0  0  0  0  0  0
    0.1624    1.9733   -1.7736 C   0  0  0  0  0  0  0  0  0  0  0  0
   -0.1472    2.9929   -1.5340 H   0  0  0  0  0  0  0  0  0  0  0  0
    1.2262    1.9721   -2.0145 H   0  0  0  0  0  0  0  0  0  0  0  0
   -0.4041    1.6368   -2.6446 H   0  0  0  0  0  0  0  0  0  0  0  0
  5  6  2  0  0  0  0
  5  7  1  0  0  0  0
  2  3  1  0  0  0  0
  2  4  1  0  0  0  0
  2  5  1  0  0  0  0
  1  2  1  0  0  0  0
 29 30  2  0  0  0  0
 29 31  1  0  0  0  0
 26 27  1  0  0  0  0
 26 28  1  0  0  0  0
 23 24  1  0  0  0  0
 23 25  1  0  0  0  0
 22 23  1  0  0  0  0
 22 26  1  0  0  0  0
 20 21  1  0  0  0  0
 20 22  2  0  0  0  0
 17 18  1  0  0  0  0
 17 19  1  0  0  0  0
 17 20  1  0  0  0  0
 14 15  1  0  0  0  0
 14 16  1  0  0  0  0
 14 17  1  0  0  0  0
 11 12  1  0  0  0  0
 11 13  1  0  0  0  0
 11 14  1  0  0  0  0
  9 10  1  0  0  0  0
  9 11  1  0  0  0  0
  9 29  1  0  0  0  0
  7  8  1  0  0  0  0
  7  9  1  0  0  0  0
 33 34  1  0  0  0  0
 33 35  1  0  0  0  0
 33 36  1  0  0  0  0
 31 32  1  0  0  0  0
 31 33  1  0  0  0  0
M  CHG  1  20   1
M  END
$$$$
default_name
  -OEChem-01062215323D

 36 35  0     1  0  0  0  0  0999 V2000
   -4.2256   -3.6731    1.8584 H   0  0  0  0  0  0  0  0  0  0  0  0
   -4.2396   -2.6781    1.4144 C   0  0  0  0  0  0  0  0  0  0  0  0
   -4.9506   -2.0521    1.9514 H   0  0  0  0  0  0  0  0  0  0  0  0
   -4.5266   -2.7521    0.3674 H   0  0  0  0  0  0  0  0  0  0  0  0
   -2.8576   -2.0761    1.5184 C   0  0  0  0  0  0  0  0  0  0  0  0
   -1.9456   -2.7051    2.0404 O   0  0  0  0  0  0  0  0  0  0  0  0
   -2.6926   -0.8481    1.0174 N   0  0  0  0  0  0  0  0  0  0  0  0
   -3.4926   -0.3971    0.5954 H   0  0  0  0  0  0  0  0  0  0  0  0
   -1.4216   -0.1071    1.0434 C   0  0  1  0  0  0  0  0  0  0  0  0
   -1.3883    0.4867    1.9583 H   0  0  0  0  0  0  0  0  0  0  0  0
   -0.2638   -1.1251    1.0703 C   0  0  0  0  0  0  0  0  0  0  0  0
   -0.3906   -1.8190    0.2369 H   0  0  0  0  0  0  0  0  0  0  0  0
    0.6808   -0.5951    0.9295 H   0  0  0  0  0  0  0  0  0  0  0  0
   -0.1960   -1.9397    2.3703 C   0  0  0  0  0  0  0  0  0  0  0  0
   -0.0577   -1.2687    3.2193 H   0  0  0  0  0  0  0  0  0  0  0  0
   -1.1262   -2.4944    2.4974 H   0  0  0  0  0  0  0  0  0  0  0  0
    0.9806   -2.9232    2.3099 C   0  0  0  0  0  0  0  0  0  0  0  0
    0.8475   -3.5732    1.4421 H   0  0  0  0  0  0  0  0  0  0  0  0
    1.9042   -2.3531    2.1851 H   0  0  0  0  0  0  0  0  0  0  0  0
    1.0703   -3.7467    3.5332 N   0  3  0  0  0  0  0  0  0  0  0  0
    0.4064   -3.5471    4.2618 H   0  0  0  0  0  0  0  0  0  0  0  0
    1.9382   -4.7186    3.7593 C   0  0  0  0  0  0  0  0  0  0  0  0
    2.8413   -5.0591    2.8830 N   0  0  0  0  0  0  0  0  0  0  0  0
    2.8760   -4.5669    2.0079 H   0  0  0  0  0  0  0  0  0  0  0  0
    3.4928   -5.7988    3.0706 H   0  0  0  0  0  0  0  0  0  0  0  0
    1.9161   -5.3745    4.8847 N   0  0  0  0  0  0  0  0  0  0  0  0
    1.2376   -5.1482    5.5914 H   0  0  0  0  0  0  0  0  0  0  0  0
    2.5764   -6.1112    5.0521 H   0  0  0  0  0  0  0  0  0  0  0  0
   -1.3256    0.8342   -0.1590 C   0  0  0  0  0  0  0  0  0  0  0  0
   -2.3022    1.4966   -0.4884 O   0  0  0  0  0  0  0  0  0  0  0  0
   -0.1663    0.8575   -0.8240 N   0  0  0  0  0  0  0  0  0  0  0  0
    0.5960    0.3086   -0.4614 H   0  0  0  0  0  0  0  0  0  0  0  0
    0.0907    1.7013   -1.9922 C   0  0  0  0  0  0  0  0  0  0  0  0
    0.0381    2.7540   -1.7062 H   0  0  0  0  0  0  0  0  0  0  0  0
    1.0802    1.4930   -2.4012 H   0  0  0  0  0  0  0  0  0  0  0  0
   -0.6627    1.5149   -2.7607 H   0  0  0  0  0  0  0  0  0  0  0  0
  5  6  2  0  0  0  0
  5  7  1  0  0  0  0
  2  3  1  0  0  0  0
  2  4  1  0  0  0  0
  2  5  1  0  0  0  0
  1  2  1  0  0  0  0
 29 30  2  0  0  0  0
 29 31  1  0  0  0  0
 26 27  1  0  0  0  0
 26 28  1  0  0  0  0
 23 24  1  0  0  0  0
 23 25  1  0  0  0  0
 22 23  1  0  0  0  0
 22 26  1  0  0  0  0
 20 21  1  0  0  0  0
 20 22  2  0  0  0  0
 17 18  1  0  0  0  0
 17 19  1  0  0  0  0
 17 20  1  0  0  0  0
 14 15  1  0  0  0  0
 14 16  1  0  0  0  0
 14 17  1  0  0  0  0
 11 12  1  0  0  0  0
 11 13  1  0  0  0  0
 11 14  1  0  0  0  0
  9 10  1  0  0  0  0
  9 11  1  0  0  0  0
  9 29  1  0  0  0  0
  7  8  1  0  0  0  0
  7  9  1  0  0  0  0
 33 34  1  0  0  0  0
 33 35  1  0  0  0  0
 33 36  1  0  0  0  0
 31 32  1  0  0  0  0
 31 33  1  0  0  0  0
M  CHG  1  20   1
M  END
$$$$
default_name
  -OEChem-01062215323D

 36 35  0     1  0  0  0  0  0999 V2000
   -4.2256   -3.6731    1.8584 H   0  0  0  0  0  0  0  0  0  0  0  0
   -4.2396   -2.6781    1.4144 C   0  0  0  0  0  0  0  0  0  0  0  0
   -4.9506   -2.0521    1.9514 H   0  0  0  0  0  0  0  0  0  0  0  0
   -4.5266   -2.7521    0.3674 H   0  0  0  0  0  0  0  0  0  0  0  0
   -2.8576   -2.0761    1.5184 C   0  0  0  0  0  0  0  0  0  0  0  0
   -1.9456   -2.7051    2.0404 O   0  0  0  0  0  0  0  0  0  0  0  0
   -2.6926   -0.8481    1.0174 N   0  0  0  0  0  0  0  0  0  0  0  0
   -3.4926   -0.3971    0.5954 H   0  0  0  0  0  0  0  0  0  0  0  0
   -1.4216   -0.1071    1.0434 C   0  0  1  0  0  0  0  0  0  0  0  0
   -1.3883    0.4867    1.9583 H   0  0  0  0  0  0  0  0  0  0  0  0
   -0.2638   -1.1251    1.0703 C   0  0  0  0  0  0  0  0  0  0  0  0
   -0.3906   -1.8190    0.2369 H   0  0  0  0  0  0  0  0  0  0  0  0
    0.6808   -0.5951    0.9295 H   0  0  0  0  0  0  0  0  0  0  0  0
   -0.1960   -1.9397    2.3703 C   0  0  0  0  0  0  0  0  0  0  0  0
   -0.0577   -1.2687    3.2193 H   0  0  0  0  0  0  0  0  0  0  0  0
   -1.1262   -2.4944    2.4974 H   0  0  0  0  0  0  0  0  0  0  0  0
    0.9806   -2.9232    2.3099 C   0  0  0  0  0  0  0  0  0  0  0  0
    0.8475   -3.5732    1.4421 H   0  0  0  0  0  0  0  0  0  0  0  0
    1.9042   -2.3531    2.1851 H   0  0  0  0  0  0  0  0  0  0  0  0
    1.0703   -3.7467    3.5332 N   0  3  0  0  0  0  0  0  0  0  0  0
    0.4064   -3.5471    4.2618 H   0  0  0  0  0  0  0  0  0  0  0  0
    1.9382   -4.7186    3.7593 C   0  0  0  0  0  0  0  0  0  0  0  0
    2.8413   -5.0591    2.8830 N   0  0  0  0  0  0  0  0  0  0  0  0
    2.8760   -4.5669    2.0079 H   0  0  0  0  0  0  0  0  0  0  0  0
    3.4928   -5.7988    3.0706 H   0  0  0  0  0  0  0  0  0  0  0  0
    1.9161   -5.3745    4.8847 N   0  0  0  0  0  0  0  0  0  0  0  0
    1.2376   -5.1482    5.5914 H   0  0  0  0  0  0  0  0  0  0  0  0
    2.5764   -6.1112    5.0521 H   0  0  0  0  0  0  0  0  0  0  0  0
   -1.3256    0.8342   -0.1590 C   0  0  0  0  0  0  0  0  0  0  0  0
   -2.1854    1.6907   -0.3271 O   0  0  0  0  0  0  0  0  0  0  0  0
   -0.3056    0.6445   -1.0019 N   0  0  0  0  0  0  0  0  0  0  0  0
    0.3756   -0.0587   -0.7665 H   0  0  0  0  0  0  0  0  0  0  0  0
   -0.0686    1.4567   -2.1964 C   0  0  0  0  0  0  0  0  0  0  0  0
    0.1411    2.4884   -1.9059 H   0  0  0  0  0  0  0  0  0  0  0  0
    0.7802    1.0662   -2.7593 H   0  0  0  0  0  0  0  0  0  0  0  0
   -0.9557    1.4516   -2.8336 H   0  0  0  0  0  0  0  0  0  0  0  0
  5  6  2  0  0  0  0
  5  7  1  0  0  0  0
  2  3  1  0  0  0  0
  2  4  1  0  0  0  0
  2  5  1  0  0  0  0
  1  2  1  0  0  0  0
 29 30  2  0  0  0  0
 29 31  1  0  0  0  0
 26 27  1  0  0  0  0
 26 28  1  0  0  0  0
 23 24  1  0  0  0  0
 23 25  1  0  0  0  0
 22 23  1  0  0  0  0
 22 26  1  0  0  0  0
 20 21  1  0  0  0  0
 20 22  2  0  0  0  0
 17 18  1  0  0  0  0
 17 19  1  0  0  0  0
 17 20  1  0  0  0  0
 14 15  1  0  0  0  0
 14 16  1  0  0  0  0
 14 17  1  0  0  0  0
 11 12  1  0  0  0  0
 11 13  1  0  0  0  0
 11 14  1  0  0  0  0
  9 10  1  0  0  0  0
  9 11  1  0  0  0  0
  9 29  1  0  0  0  0
  7  8  1  0  0  0  0
  7  9  1  0  0  0  0
 33 34  1  0  0  0  0
 33 35  1  0  0  0  0
 33 36  1  0  0  0  0
 31 32  1  0  0  0  0
 31 33  1  0  0  0  0
M  CHG  1  20   1
M  END
$$$$
default_name
  -OEChem-01062215323D

 36 35  0     1  0  0  0  0  0999 V2000
   -4.2256   -3.6731    1.8584 H   0  0  0  0  0  0  0  0  0  0  0  0
   -4.2396   -2.6781    1.4144 C   0  0  0  0  0  0  0  0  0  0  0  0
   -4.9506   -2.0521    1.9514 H   0  0  0  0  0  0  0  0  0  0  0  0
   -4.5266   -2.7521    0.3674 H   0  0  0  0  0  0  0  0  0  0  0  0
   -2.8576   -2.0761    1.5184 C   0  0  0  0  0  0  0  0  0  0  0  0
   -1.9456   -2.7051    2.0404 O   0  0  0  0  0  0  0  0  0  0  0  0
   -2.6926   -0.8481    1.0174 N   0  0  0  0  0  0  0  0  0  0  0  0
   -3.4926   -0.3971    0.5954 H   0  0  0  0  0  0  0  0  0  0  0  0
   -1.4216   -0.1071    1.0434 C   0  0  1  0  0  0  0  0  0  0  0  0
   -1.3883    0.4867    1.9583 H   0  0  0  0  0  0  0  0  0  0  0  0
   -0.2638   -1.1251    1.0703 C   0  0  0  0  0  0  0  0  0  0  0  0
   -0.3906   -1.8190    0.2369 H   0  0  0  0  0  0  0  0  0  0  0  0
    0.6808   -0.5951    0.9295 H   0  0  0  0  0  0  0  0  0  0  0  0
   -0.1960   -1.9397    2.3703 C   0  0  0  0  0  0  0  0  0  0  0  0
   -0.0577   -1.2687    3.2193 H   0  0  0  0  0  0  0  0  0  0  0  0
   -1.1262   -2.4944    2.4974 H   0  0  0  0  0  0  0  0  0  0  0  0
    0.9806   -2.9232    2.3099 C   0  0  0  0  0  0  0  0  0  0  0  0
    0.8475   -3.5732    1.4421 H   0  0  0  0  0  0  0  0  0  0  0  0
    1.9042   -2.3531    2.1851 H   0  0  0  0  0  0  0  0  0  0  0  0
    1.0703   -3.7467    3.5332 N   0  3  0  0  0  0  0  0  0  0  0  0
    0.4064   -3.5471    4.2618 H   0  0  0  0  0  0  0  0  0  0  0  0
    1.9382   -4.7186    3.7593 C   0  0  0  0  0  0  0  0  0  0  0  0
    2.8413   -5.0591    2.8830 N   0  0  0  0  0  0  0  0  0  0  0  0
    2.8760   -4.5669    2.0079 H   0  0  0  0  0  0  0  0  0  0  0  0
    3.4928   -5.7988    3.0706 H   0  0  0  0  0  0  0  0  0  0  0  0
    1.9161   -5.3745    4.8847 N   0  0  0  0  0  0  0  0  0  0  0  0
    1.2376   -5.1482    5.5914 H   0  0  0  0  0  0  0  0  0  0  0  0
    2.5764   -6.1112    5.0521 H   0  0  0  0  0  0  0  0  0  0  0  0
   -1.3256    0.8342   -0.1590 C   0  0  0  0  0  0  0  0  0  0  0  0
   -2.0073    1.8518   -0.1867 O   0  0  0  0  0  0  0  0  0  0  0  0
   -0.5119    0.4700   -1.1550 N   0  0  0  0  0  0  0  0  0  0  0  0
    0.0393   -0.3637   -1.0321 H   0  0  0  0  0  0  0  0  0  0  0  0
   -0.3049    1.2562   -2.3723 C   0  0  0  0  0  0  0  0  0  0  0  0
    0.1547    2.2141   -2.1195 H   0  0  0  0  0  0  0  0  0  0  0  0
    0.3466    0.7208   -3.0643 H   0  0  0  0  0  0  0  0  0  0  0  0
   -1.2632    1.4513   -2.8584 H   0  0  0  0  0  0  0  0  0  0  0  0
  5  6  2  0  0  0  0
  5  7  1  0  0  0  0
  2  3  1  0  0  0  0
  2  4  1  0  0  0  0
  2  5  1  0  0  0  0
  1  2  1  0  0  0  0
 29 30  2  0  0  0  0
 29 31  1  0  0  0  0
 26 27  1  0  0  0  0
 26 28  1  0  0  0  0
 23 24  1  0  0  0  0
 23 25  1  0  0  0  0
 22 23  1  0  0  0  0
 22 26  1  0  0  0  0
 20 21  1  0  0  0  0
 20 22  2  0  0  0  0
 17 18  1  0  0  0  0
 17 19  1  0  0  0  0
 17 20  1  0  0  0  0
 14 15  1  0  0  0  0
 14 16  1  0  0  0  0
 14 17  1  0  0  0  0
 11 12  1  0  0  0  0
 11 13  1  0  0  0  0
 11 14  1  0  0  0  0
  9 10  1  0  0  0  0
  9 11  1  0  0  0  0
  9 29  1  0  0  0  0
  7  8  1  0  0  0  0
  7  9  1  0  0  0  0
 33 34  1  0  0  0  0
 33 35  1  0  0  0  0
 33 36  1  0  0  0  0
 31 32  1  0  0  0  0
 31 33  1  0  0  0  0
M  CHG  1  20   1
M  END
$$$$
default_name
  -OEChem-01062215323D

 36 35  0     1  0  0  0  0  0999 V2000
   -4.2256   -3.6731    1.8584 H   0  0  0  0  0  0  0  0  0  0  0  0
   -4.2396   -2.6781    1.4144 C   0  0  0  0  0  0  0  0  0  0  0  0
   -4.9506   -2.0521    1.9514 H   0  0  0  0  0  0  0  0  0  0  0  0
   -4.5266   -2.7521    0.3674 H   0  0  0  0  0  0  0  0  0  0  0  0
   -2.8576   -2.0761    1.5184 C   0  0  0  0  0  0  0  0  0  0  0  0
   -1.9456   -2.7051    2.0404 O   0  0  0  0  0  0  0  0  0  0  0  0
   -2.6926   -0.8481    1.0174 N   0  0  0  0  0  0  0  0  0  0  0  0
   -3.4926   -0.3971    0.5954 H   0  0  0  0  0  0  0  0  0  0  0  0
   -1.4216   -0.1071    1.0434 C   0  0  1  0  0  0  0  0  0  0  0  0
   -1.3883    0.4867    1.9583 H   0  0  0  0  0  0  0  0  0  0  0  0
   -0.2638   -1.1251    1.0703 C   0  0  0  0  0  0  0  0  0  0  0  0
   -0.3906   -1.8190    0.2369 H   0  0  0  0  0  0  0  0  0  0  0  0
    0.6808   -0.5951    0.9295 H   0  0  0  0  0  0  0  0  0  0  0  0
   -0.1960   -1.9397    2.3703 C   0  0  0  0  0  0  0  0  0  0  0  0
   -0.0577   -1.2687    3.2193 H   0  0  0  0  0  0  0  0  0  0  0  0
   -1.1262   -2.4944    2.4974 H   0  0  0  0  0  0  0  0  0  0  0  0
    0.9806   -2.9232    2.3099 C   0  0  0  0  0  0  0  0  0  0  0  0
    0.8475   -3.5732    1.4421 H   0  0  0  0  0  0  0  0  0  0  0  0
    1.9042   -2.3531    2.1851 H   0  0  0  0  0  0  0  0  0  0  0  0
    1.0703   -3.7467    3.5332 N   0  3  0  0  0  0  0  0  0  0  0  0
    0.4064   -3.5471    4.2618 H   0  0  0  0  0  0  0  0  0  0  0  0
    1.9382   -4.7186    3.7593 C   0  0  0  0  0  0  0  0  0  0  0  0
    2.8413   -5.0591    2.8830 N   0  0  0  0  0  0  0  0  0  0  0  0
    2.8760   -4.5669    2.0079 H   0  0  0  0  0  0  0  0  0  0  0  0
    3.4928   -5.7988    3.0706 H   0  0  0  0  0  0  0  0  0  0  0  0
    1.9161   -5.3745    4.8847 N   0  0  0  0  0  0  0  0  0  0  0  0
    1.2376   -5.1482    5.5914 H   0  0  0  0  0  0  0  0  0  0  0  0
    2.5764   -6.1112    5.0521 H   0  0  0  0  0  0  0  0  0  0  0  0
   -1.3256    0.8342   -0.1590 C   0  0  0  0  0  0  0  0  0  0  0  0
   -1.7802    1.9689   -0.0769 O   0  0  0  0  0  0  0  0  0  0  0  0
   -0.7710    0.3458   -1.2728 N   0  0  0  0  0  0  0  0  0  0  0  0
   -0.3898   -0.5856   -1.2401 H   0  0  0  0  0  0  0  0  0  0  0  0
   -0.6018    1.1134   -2.5078 C   0  0  0  0  0  0  0  0  0  0  0  0
    0.0781    1.9498   -2.3325 H   0  0  0  0  0  0  0  0  0  0  0  0
   -0.1911    0.4804   -3.2954 H   0  0  0  0  0  0  0  0  0  0  0  0
   -1.5643    1.5139   -2.8334 H   0  0  0  0  0  0  0  0  0  0  0  0
  5  6  2  0  0  0  0
  5  7  1  0  0  0  0
  2  3  1  0  0  0  0
  2  4  1  0  0  0  0
  2  5  1  0  0  0  0
  1  2  1  0  0  0  0
 29 30  2  0  0  0  0
 29 31  1  0  0  0  0
 26 27  1  0  0  0  0
 26 28  1  0  0  0  0
 23 24  1  0  0  0  0
 23 25  1  0  0  0  0
 22 23  1  0  0  0  0
 22 26  1  0  0  0  0
 20 21  1  0  0  0  0
 20 22  2  0  0  0  0
 17 18  1  0  0  0  0
 17 19  1  0  0  0  0
 17 20  1  0  0  0  0
 14 15  1  0  0  0  0
 14 16  1  0  0  0  0
 14 17  1  0  0  0  0
 11 12  1  0  0  0  0
 11 13  1  0  0  0  0
 11 14  1  0  0  0  0
  9 10  1  0  0  0  0
  9 11  1  0  0  0  0
  9 29  1  0  0  0  0
  7  8  1  0  0  0  0
  7  9  1  0  0  0  0
 33 34  1  0  0  0  0
 33 35  1  0  0  0  0
 33 36  1  0  0  0  0
 31 32  1  0  0  0  0
 31 33  1  0  0  0  0
M  CHG  1  20   1
M  END
$$$$
default_name
  -OEChem-01062215323D

 36 35  0     1  0  0  0  0  0999 V2000
   -4.2256   -3.6731    1.8584 H   0  0  0  0  0  0  0  0  0  0  0  0
   -4.2396   -2.6781    1.4144 C   0  0  0  0  0  0  0  0  0  0  0  0
   -4.9506   -2.0521    1.9514 H   0  0  0  0  0  0  0  0  0  0  0  0
   -4.5266   -2.7521    0.3674 H   0  0  0  0  0  0  0  0  0  0  0  0
   -2.8576   -2.0761    1.5184 C   0  0  0  0  0  0  0  0  0  0  0  0
   -1.9456   -2.7051    2.0404 O   0  0  0  0  0  0  0  0  0  0  0  0
   -2.6926   -0.8481    1.0174 N   0  0  0  0  0  0  0  0  0  0  0  0
   -3.4926   -0.3971    0.5954 H   0  0  0  0  0  0  0  0  0  0  0  0
   -1.4216   -0.1071    1.0434 C   0  0  1  0  0  0  0  0  0  0  0  0
   -1.3883    0.4867    1.9583 H   0  0  0  0  0  0  0  0  0  0  0  0
   -0.2638   -1.1251    1.0703 C   0  0  0  0  0  0  0  0  0  0  0  0
   -0.3906   -1.8190    0.2369 H   0  0  0  0  0  0  0  0  0  0  0  0
    0.6808   -0.5951    0.9295 H   0  0  0  0  0  0  0  0  0  0  0  0
   -0.1960   -1.9397    2.3703 C   0  0  0  0  0  0  0  0  0  0  0  0
   -0.0577   -1.2687    3.2193 H   0  0  0  0  0  0  0  0  0  0  0  0
   -1.1262   -2.4944    2.4974 H   0  0  0  0  0  0  0  0  0  0  0  0
    0.9806   -2.9232    2.3099 C   0  0  0  0  0  0  0  0  0  0  0  0
    0.8475   -3.5732    1.4421 H   0  0  0  0  0  0  0  0  0  0  0  0
    1.9042   -2.3531    2.1851 H   0  0  0  0  0  0  0  0  0  0  0  0
    1.0703   -3.7467    3.5332 N   0  3  0  0  0  0  0  0  0  0  0  0
    0.4064   -3.5471    4.2618 H   0  0  0  0  0  0  0  0  0  0  0  0
    1.9382   -4.7186    3.7593 C   0  0  0  0  0  0  0  0  0  0  0  0
    2.8413   -5.0591    2.8830 N   0  0  0  0  0  0  0  0  0  0  0  0
    2.8760   -4.5669    2.0079 H   0  0  0  0  0  0  0  0  0  0  0  0
    3.4928   -5.7988    3.0706 H   0  0  0  0  0  0  0  0  0  0  0  0
    1.9161   -5.3745    4.8847 N   0  0  0  0  0  0  0  0  0  0  0  0
    1.2376   -5.1482    5.5914 H   0  0  0  0  0  0  0  0  0  0  0  0
    2.5764   -6.1112    5.0521 H   0  0  0  0  0  0  0  0  0  0  0  0
   -1.3256    0.8342   -0.1590 C   0  0  0  0  0  0  0  0  0  0  0  0
   -1.5196    2.0341   -0.0051 O   0  0  0  0  0  0  0  0  0  0  0  0
   -1.0652    0.2805   -1.3474 N   0  0  0  0  0  0  0  0  0  0  0  0
   -0.8825   -0.7092   -1.3762 H   0  0  0  0  0  0  0  0  0  0  0  0
   -0.9393    1.0380   -2.5937 C   0  0  0  0  0  0  0  0  0  0  0  0
   -0.0836    1.7136   -2.5303 H   0  0  0  0  0  0  0  0  0  0  0  0
   -0.7962    0.3612   -3.4370 H   0  0  0  0  0  0  0  0  0  0  0  0
   -1.8384    1.6352   -2.7603 H   0  0  0  0  0  0  0  0  0  0  0  0
  5  6  2  0  0  0  0
  5  7  1  0  0  0  0
  2  3  1  0  0  0  0
  2  4  1  0  0  0  0
  2  5  1  0  0  0  0
  1  2  1  0  0  0  0
 29 30  2  0  0  0  0
 29 31  1  0  0  0  0
 26 27  1  0  0  0  0
 26 28  1  0  0  0  0
 23 24  1  0  0  0  0
 23 25  1  0  0  0  0
 22 23  1  0  0  0  0
 22 26  1  0  0  0  0
 20 21  1  0  0  0  0
 20 22  2  0  0  0  0
 17 18  1  0  0  0  0
 17 19  1  0  0  0  0
 17 20  1  0  0  0  0
 14 15  1  0  0  0  0
 14 16  1  0  0  0  0
 14 17  1  0  0  0  0
 11 12  1  0  0  0  0
 11 13  1  0  0  0  0
 11 14  1  0  0  0  0
  9 10  1  0  0  0  0
  9 11  1  0  0  0  0
  9 29  1  0  0  0  0
  7  8  1  0  0  0  0
  7  9  1  0  0  0  0
 33 34  1  0  0  0  0
 33 35  1  0  0  0  0
 33 36  1  0  0  0  0
 31 32  1  0  0  0  0
 31 33  1  0  0  0  0
M  CHG  1  20   1
M  END
$$$$
default_name
  -OEChem-01062215323D

 36 35  0     1  0  0  0  0  0999 V2000
   -4.2256   -3.6731    1.8584 H   0  0  0  0  0  0  0  0  0  0  0  0
   -4.2396   -2.6781    1.4144 C   0  0  0  0  0  0  0  0  0  0  0  0
   -4.9506   -2.0521    1.9514 H   0  0  0  0  0  0  0  0  0  0  0  0
   -4.5266   -2.7521    0.3674 H   0  0  0  0  0  0  0  0  0  0  0  0
   -2.8576   -2.0761    1.5184 C   0  0  0  0  0  0  0  0  0  0  0  0
   -1.9456   -2.7051    2.0404 O   0  0  0  0  0  0  0  0  0  0  0  0
   -2.6926   -0.8481    1.0174 N   0  0  0  0  0  0  0  0  0  0  0  0
   -3.4926   -0.3971    0.5954 H   0  0  0  0  0  0  0  0  0  0  0  0
   -1.4216   -0.1071    1.0434 C   0  0  1  0  0  0  0  0  0  0  0  0
   -1.3883    0.4867    1.9583 H   0  0  0  0  0  0  0  0  0  0  0  0
   -0.2638   -1.1251    1.0703 C   0  0  0  0  0  0  0  0  0  0  0  0
   -0.3906   -1.8190    0.2369 H   0  0  0  0  0  0  0  0  0  0  0  0
    0.6808   -0.5951    0.9295 H   0  0  0  0  0  0  0  0  0  0  0  0
   -0.1960   -1.9397    2.3703 C   0  0  0  0  0  0  0  0  0  0  0  0
   -0.0577   -1.2687    3.2193 H   0  0  0  0  0  0  0  0  0  0  0  0
   -1.1262   -2.4944    2.4974 H   0  0  0  0  0  0  0  0  0  0  0  0
    0.9806   -2.9232    2.3099 C   0  0  0  0  0  0  0  0  0  0  0  0
    0.8475   -3.5732    1.4421 H   0  0  0  0  0  0  0  0  0  0  0  0
    1.9042   -2.3531    2.1851 H   0  0  0  0  0  0  0  0  0  0  0  0
    1.0703   -3.7467    3.5332 N   0  3  0  0  0  0  0  0  0  0  0  0
    0.4064   -3.5471    4.2618 H   0  0  0  0  0  0  0  0  0  0  0  0
    1.9382   -4.7186    3.7593 C   0  0  0  0  0  0  0  0  0  0  0  0
    2.8413   -5.0591    2.8830 N   0  0  0  0  0  0  0  0  0  0  0  0
    2.8760   -4.5669    2.0079 H   0  0  0  0  0  0  0  0  0  0  0  0
    3.4928   -5.7988    3.0706 H   0  0  0  0  0  0  0  0  0  0  0  0
    1.9161   -5.3745    4.8847 N   0  0  0  0  0  0  0  0  0  0  0  0
    1.2376   -5.1482    5.5914 H   0  0  0  0  0  0  0  0  0  0  0  0
    2.5764   -6.1112    5.0521 H   0  0  0  0  0  0  0  0  0  0  0  0
   -1.3256    0.8342   -0.1590 C   0  0  0  0  0  0  0  0  0  0  0  0
   -1.2431    2.0428    0.0238 O   0  0  0  0  0  0  0  0  0  0  0  0
   -1.3746    0.2785   -1.3737 N   0  0  0  0  0  0  0  0  0  0  0  0
   -1.4052   -0.7263   -1.4313 H   0  0  0  0  0  0  0  0  0  0  0  0
   -1.2942    1.0353   -2.6242 C   0  0  0  0  0  0  0  0  0  0  0  0
   -0.3193    1.5216   -2.6995 H   0  0  0  0  0  0  0  0  0  0  0  0
   -1.4274    0.3715   -3.4794 H   0  0  0  0  0  0  0  0  0  0  0  0
   -2.0668    1.8070   -2.6441 H   0  0  0  0  0  0  0  0  0  0  0  0
  5  6  2  0  0  0  0
  5  7  1  0  0  0  0
  2  3  1  0  0  0  0
  2  4  1  0  0  0  0
  2  5  1  0  0  0  0
  1  2  1  0  0  0  0
 29 30  2  0  0  0  0
 29 31  1  0  0  0  0
 26 27  1  0  0  0  0
 26 28  1  0  0  0  0
 23 24  1  0  0  0  0
 23 25  1  0  0  0  0
 22 23  1  0  0  0  0
 22 26  1  0  0  0  0
 20 21  1  0  0  0  0
 20 22  2  0  0  0  0
 17 18  1  0  0  0  0
 17 19  1  0  0  0  0
 17 20  1  0  0  0  0
 14 15  1  0  0  0  0
 14 16  1  0  0  0  0
 14 17  1  0  0  0  0
 11 12  1  0  0  0  0
 11 13  1  0  0  0  0
 11 14  1  0  0  0  0
  9 10  1  0  0  0  0
  9 11  1  0  0  0  0
  9 29  1  0  0  0  0
  7  8  1  0  0  0  0
  7  9  1  0  0  0  0
 33 34  1  0  0  0  0
 33 35  1  0  0  0  0
 33 36  1  0  0  0  0
 31 32  1  0  0  0  0
 31 33  1  0  0  0  0
M  CHG  1  20   1
M  END
$$$$
default_name
  -OEChem-01062215323D

 36 35  0     1  0  0  0  0  0999 V2000
   -4.2256   -3.6731    1.8584 H   0  0  0  0  0  0  0  0  0  0  0  0
   -4.2396   -2.6781    1.4144 C   0  0  0  0  0  0  0  0  0  0  0  0
   -4.9506   -2.0521    1.9514 H   0  0  0  0  0  0  0  0  0  0  0  0
   -4.5266   -2.7521    0.3674 H   0  0  0  0  0  0  0  0  0  0  0  0
   -2.8576   -2.0761    1.5184 C   0  0  0  0  0  0  0  0  0  0  0  0
   -1.9456   -2.7051    2.0404 O   0  0  0  0  0  0  0  0  0  0  0  0
   -2.6926   -0.8481    1.0174 N   0  0  0  0  0  0  0  0  0  0  0  0
   -3.4926   -0.3971    0.5954 H   0  0  0  0  0  0  0  0  0  0  0  0
   -1.4216   -0.1071    1.0434 C   0  0  1  0  0  0  0  0  0  0  0  0
   -1.3883    0.4867    1.9583 H   0  0  0  0  0  0  0  0  0  0  0  0
   -0.2638   -1.1251    1.0703 C   0  0  0  0  0  0  0  0  0  0  0  0
   -0.3906   -1.8190    0.2369 H   0  0  0  0  0  0  0  0  0  0  0  0
    0.6808   -0.5951    0.9295 H   0  0  0  0  0  0  0  0  0  0  0  0
   -0.1960   -1.9397    2.3703 C   0  0  0  0  0  0  0  0  0  0  0  0
   -0.0577   -1.2687    3.2193 H   0  0  0  0  0  0  0  0  0  0  0  0
   -1.1262   -2.4944    2.4974 H   0  0  0  0  0  0  0  0  0  0  0  0
    0.9806   -2.9232    2.3099 C   0  0  0  0  0  0  0  0  0  0  0  0
    0.8475   -3.5732    1.4421 H   0  0  0  0  0  0  0  0  0  0  0  0
    1.9042   -2.3531    2.1851 H   0  0  0  0  0  0  0  0  0  0  0  0
    1.0703   -3.7467    3.5332 N   0  3  0  0  0  0  0  0  0  0  0  0
    0.4064   -3.5471    4.2618 H   0  0  0  0  0  0  0  0  0  0  0  0
    1.9382   -4.7186    3.7593 C   0  0  0  0  0  0  0  0  0  0  0  0
    2.8413   -5.0591    2.8830 N   0  0  0  0  0  0  0  0  0  0  0  0
    2.8760   -4.5669    2.0079 H   0  0  0  0  0  0  0  0  0  0  0  0
    3.4928   -5.7988    3.0706 H   0  0  0  0  0  0  0  0  0  0  0  0
    1.9161   -5.3745    4.8847 N   0  0  0  0  0  0  0  0  0  0  0  0
    1.2376   -5.1482    5.5914 H   0  0  0  0  0  0  0  0  0  0  0  0
    2.5764   -6.1112    5.0521 H   0  0  0  0  0  0  0  0  0  0  0  0
   -1.3256    0.8342   -0.1590 C   0  0  0  0  0  0  0  0  0  0  0  0
   -0.9697    1.9946    0.0079 O   0  0  0  0  0  0  0  0  0  0  0  0
   -1.6781    0.3399   -1.3499 N   0  0  0  0  0  0  0  0  0  0  0  0
   -1.9224   -0.6355   -1.4015 H   0  0  0  0  0  0  0  0  0  0  0  0
   -1.6425    1.1053   -2.5972 C   0  0  0  0  0  0  0  0  0  0  0  0
   -0.6130    1.3868   -2.8284 H   0  0  0  0  0  0  0  0  0  0  0  0
   -2.0418    0.5104   -3.4196 H   0  0  0  0  0  0  0  0  0  0  0  0
   -2.2340    2.0175   -2.4927 H   0  0  0  0  0  0  0  0  0  0  0  0
  5  6  2  0  0  0  0
  5  7  1  0  0  0  0
  2  3  1  0  0  0  0
  2  4  1  0  0  0  0
  2  5  1  0  0  0  0
  1  2  1  0  0  0  0
 29 30  2  0  0  0  0
 29 31  1  0  0  0  0
 26 27  1  0  0  0  0
 26 28  1  0  0  0  0
 23 24  1  0  0  0  0
 23 25  1  0  0  0  0
 22 23  1  0  0  0  0
 22 26  1  0  0  0  0
 20 21  1  0  0  0  0
 20 22  2  0  0  0  0
 17 18  1  0  0  0  0
 17 19  1  0  0  0  0
 17 20  1  0  0  0  0
 14 15  1  0  0  0  0
 14 16  1  0  0  0  0
 14 17  1  0  0  0  0
 11 12  1  0  0  0  0
 11 13  1  0  0  0  0
 11 14  1  0  0  0  0
  9 10  1  0  0  0  0
  9 11  1  0  0  0  0
  9 29  1  0  0  0  0
  7  8  1  0  0  0  0
  7  9  1  0  0  0  0
 33 34  1  0  0  0  0
 33 35  1  0  0  0  0
 33 36  1  0  0  0  0
 31 32  1  0  0  0  0
 31 33  1  0  0  0  0
M  CHG  1  20   1
M  END
$$$$
default_name
  -OEChem-01062215323D

 36 35  0     1  0  0  0  0  0999 V2000
   -4.2256   -3.6731    1.8584 H   0  0  0  0  0  0  0  0  0  0  0  0
   -4.2396   -2.6781    1.4144 C   0  0  0  0  0  0  0  0  0  0  0  0
   -4.9506   -2.0521    1.9514 H   0  0  0  0  0  0  0  0  0  0  0  0
   -4.5266   -2.7521    0.3674 H   0  0  0  0  0  0  0  0  0  0  0  0
   -2.8576   -2.0761    1.5184 C   0  0  0  0  0  0  0  0  0  0  0  0
   -1.9456   -2.7051    2.0404 O   0  0  0  0  0  0  0  0  0  0  0  0
   -2.6926   -0.8481    1.0174 N   0  0  0  0  0  0  0  0  0  0  0  0
   -3.4926   -0.3971    0.5954 H   0  0  0  0  0  0  0  0  0  0  0  0
   -1.4216   -0.1071    1.0434 C   0  0  1  0  0  0  0  0  0  0  0  0
   -1.3883    0.4867    1.9583 H   0  0  0  0  0  0  0  0  0  0  0  0
   -0.2638   -1.1251    1.0703 C   0  0  0  0  0  0  0  0  0  0  0  0
   -0.3906   -1.8190    0.2369 H   0  0  0  0  0  0  0  0  0  0  0  0
    0.6808   -0.5951    0.9295 H   0  0  0  0  0  0  0  0  0  0  0  0
   -0.1960   -1.9397    2.3703 C   0  0  0  0  0  0  0  0  0  0  0  0
   -0.0577   -1.2687    3.2193 H   0  0  0  0  0  0  0  0  0  0  0  0
   -1.1262   -2.4944    2.4974 H   0  0  0  0  0  0  0  0  0  0  0  0
    0.9806   -2.9232    2.3099 C   0  0  0  0  0  0  0  0  0  0  0  0
    0.8475   -3.5732    1.4421 H   0  0  0  0  0  0  0  0  0  0  0  0
    1.9042   -2.3531    2.1851 H   0  0  0  0  0  0  0  0  0  0  0  0
    1.0703   -3.7467    3.5332 N   0  3  0  0  0  0  0  0  0  0  0  0
    0.4064   -3.5471    4.2618 H   0  0  0  0  0  0  0  0  0  0  0  0
    1.9382   -4.7186    3.7593 C   0  0  0  0  0  0  0  0  0  0  0  0
    2.8413   -5.0591    2.8830 N   0  0  0  0  0  0  0  0  0  0  0  0
    2.8760   -4.5669    2.0079 H   0  0  0  0  0  0  0  0  0  0  0  0
    3.4928   -5.7988    3.0706 H   0  0  0  0  0  0  0  0  0  0  0  0
    1.9161   -5.3745    4.8847 N   0  0  0  0  0  0  0  0  0  0  0  0
    1.2376   -5.1482    5.5914 H   0  0  0  0  0  0  0  0  0  0  0  0
    2.5764   -6.1112    5.0521 H   0  0  0  0  0  0  0  0  0  0  0  0
   -1.3256    0.8342   -0.1590 C   0  0  0  0  0  0  0  0  0  0  0  0
   -0.7179    1.8926   -0.0518 O   0  0  0  0  0  0  0  0  0  0  0  0
   -1.9549    0.4606   -1.2775 N   0  0  0  0  0  0  0  0  0  0  0  0
   -2.3988   -0.4431   -1.2889 H   0  0  0  0  0  0  0  0  0  0  0  0
   -1.9604    1.2434   -2.5145 C   0  0  0  0  0  0  0  0  0  0  0  0
   -0.9446    1.3184   -2.9085 H   0  0  0  0  0  0  0  0  0  0  0  0
   -2.5974    0.7687   -3.2618 H   0  0  0  0  0  0  0  0  0  0  0  0
   -2.3286    2.2523   -2.3164 H   0  0  0  0  0  0  0  0  0  0  0  0
  5  6  2  0  0  0  0
  5  7  1  0  0  0  0
  2  3  1  0  0  0  0
  2  4  1  0  0  0  0
  2  5  1  0  0  0  0
  1  2  1  0  0  0  0
 29 30  2  0  0  0  0
 29 31  1  0  0  0  0
 26 27  1  0  0  0  0
 26 28  1  0  0  0  0
 23 24  1  0  0  0  0
 23 25  1  0  0  0  0
 22 23  1  0  0  0  0
 22 26  1  0  0  0  0
 20 21  1  0  0  0  0
 20 22  2  0  0  0  0
 17 18  1  0  0  0  0
 17 19  1  0  0  0  0
 17 20  1  0  0  0  0
 14 15  1  0  0  0  0
 14 16  1  0  0  0  0
 14 17  1  0  0  0  0
 11 12  1  0  0  0  0
 11 13  1  0  0  0  0
 11 14  1  0  0  0  0
  9 10  1  0  0  0  0
  9 11  1  0  0  0  0
  9 29  1  0  0  0  0
  7  8  1  0  0  0  0
  7  9  1  0  0  0  0
 33 34  1  0  0  0  0
 33 35  1  0  0  0  0
 33 36  1  0  0  0  0
 31 32  1  0  0  0  0
 31 33  1  0  0  0  0
M  CHG  1  20   1
M  END
$$$$
default_name
  -OEChem-01062215323D

 36 35  0     1  0  0  0  0  0999 V2000
   -4.2256   -3.6731    1.8584 H   0  0  0  0  0  0  0  0  0  0  0  0
   -4.2396   -2.6781    1.4144 C   0  0  0  0  0  0  0  0  0  0  0  0
   -4.9506   -2.0521    1.9514 H   0  0  0  0  0  0  0  0  0  0  0  0
   -4.5266   -2.7521    0.3674 H   0  0  0  0  0  0  0  0  0  0  0  0
   -2.8576   -2.0761    1.5184 C   0  0  0  0  0  0  0  0  0  0  0  0
   -1.9456   -2.7051    2.0404 O   0  0  0  0  0  0  0  0  0  0  0  0
   -2.6926   -0.8481    1.0174 N   0  0  0  0  0  0  0  0  0  0  0  0
   -3.4926   -0.3971    0.5954 H   0  0  0  0  0  0  0  0  0  0  0  0
   -1.4216   -0.1071    1.0434 C   0  0  1  0  0  0  0  0  0  0  0  0
   -1.3883    0.4867    1.9583 H   0  0  0  0  0  0  0  0  0  0  0  0
   -0.2638   -1.1251    1.0703 C   0  0  0  0  0  0  0  0  0  0  0  0
   -0.3906   -1.8190    0.2369 H   0  0  0  0  0  0  0  0  0  0  0  0
    0.6808   -0.5951    0.9295 H   0  0  0  0  0  0  0  0  0  0  0  0
   -0.1960   -1.9397    2.3703 C   0  0  0  0  0  0  0  0  0  0  0  0
   -0.0577   -1.2687    3.2193 H   0  0  0  0  0  0  0  0  0  0  0  0
   -1.1262   -2.4944    2.4974 H   0  0  0  0  0  0  0  0  0  0  0  0
    0.9806   -2.9232    2.3099 C   0  0  0  0  0  0  0  0  0  0  0  0
    0.8475   -3.5732    1.4421 H   0  0  0  0  0  0  0  0  0  0  0  0
    1.9042   -2.3531    2.1851 H   0  0  0  0  0  0  0  0  0  0  0  0
    1.0703   -3.7467    3.5332 N   0  3  0  0  0  0  0  0  0  0  0  0
    0.4064   -3.5471    4.2618 H   0  0  0  0  0  0  0  0  0  0  0  0
    1.9382   -4.7186    3.7593 C   0  0  0  0  0  0  0  0  0  0  0  0
    2.8413   -5.0591    2.8830 N   0  0  0  0  0  0  0  0  0  0  0  0
    2.8760   -4.5669    2.0079 H   0  0  0  0  0  0  0  0  0  0  0  0
    3.4928   -5.7988    3.0706 H   0  0  0  0  0  0  0  0  0  0  0  0
    1.9161   -5.3745    4.8847 N   0  0  0  0  0  0  0  0  0  0  0  0
    1.2376   -5.1482    5.5914 H   0  0  0  0  0  0  0  0  0  0  0  0
    2.5764   -6.1112    5.0521 H   0  0  0  0  0  0  0  0  0  0  0  0
   -1.3256    0.8342   -0.1590 C   0  0  0  0  0  0  0  0  0  0  0  0
   -0.5050    1.7439   -0.1513 O   0  0  0  0  0  0  0  0  0  0  0  0
   -2.1863    0.6323   -1.1616 N   0  0  0  0  0  0  0  0  0  0  0  0
   -2.8019   -0.1623   -1.1012 H   0  0  0  0  0  0  0  0  0  0  0  0
   -2.2261    1.4400   -2.3817 C   0  0  0  0  0  0  0  0  0  0  0  0
   -1.2916    1.3211   -2.9341 H   0  0  0  0  0  0  0  0  0  0  0  0
   -3.0565    1.1286   -3.0167 H   0  0  0  0  0  0  0  0  0  0  0  0
   -2.3442    2.4956   -2.1272 H   0  0  0  0  0  0  0  0  0  0  0  0
  5  6  2  0  0  0  0
  5  7  1  0  0  0  0
  2  3  1  0  0  0  0
  2  4  1  0  0  0  0
  2  5  1  0  0  0  0
  1  2  1  0  0  0  0
 29 30  2  0  0  0  0
 29 31  1  0  0  0  0
 26 27  1  0  0  0  0
 26 28  1  0  0  0  0
 23 24  1  0  0  0  0
 23 25  1  0  0  0  0
 22 23  1  0  0  0  0
 22 26  1  0  0  0  0
 20 21  1  0  0  0  0
 20 22  2  0  0  0  0
 17 18  1  0  0  0  0
 17 19  1  0  0  0  0
 17 20  1  0  0  0  0
 14 15  1  0  0  0  0
 14 16  1  0  0  0  0
 14 17  1  0  0  0  0
 11 12  1  0  0  0  0
 11 13  1  0  0  0  0
 11 14  1  0  0  0  0
  9 10  1  0  0  0  0
  9 11  1  0  0  0  0
  9 29  1  0  0  0  0
  7  8  1  0  0  0  0
  7  9  1  0  0  0  0
 33 34  1  0  0  0  0
 33 35  1  0  0  0  0
 33 36  1  0  0  0  0
 31 32  1  0  0  0  0
 31 33  1  0  0  0  0
M  CHG  1  20   1
M  END
$$$$
default_name
  -OEChem-01062215323D

 36 35  0     1  0  0  0  0  0999 V2000
   -4.2256   -3.6731    1.8584 H   0  0  0  0  0  0  0  0  0  0  0  0
   -4.2396   -2.6781    1.4144 C   0  0  0  0  0  0  0  0  0  0  0  0
   -4.9506   -2.0521    1.9514 H   0  0  0  0  0  0  0  0  0  0  0  0
   -4.5266   -2.7521    0.3674 H   0  0  0  0  0  0  0  0  0  0  0  0
   -2.8576   -2.0761    1.5184 C   0  0  0  0  0  0  0  0  0  0  0  0
   -1.9456   -2.7051    2.0404 O   0  0  0  0  0  0  0  0  0  0  0  0
   -2.6926   -0.8481    1.0174 N   0  0  0  0  0  0  0  0  0  0  0  0
   -3.4926   -0.3971    0.5954 H   0  0  0  0  0  0  0  0  0  0  0  0
   -1.4216   -0.1071    1.0434 C   0  0  1  0  0  0  0  0  0  0  0  0
   -1.3883    0.4867    1.9583 H   0  0  0  0  0  0  0  0  0  0  0  0
   -0.2638   -1.1251    1.0703 C   0  0  0  0  0  0  0  0  0  0  0  0
   -0.3906   -1.8190    0.2369 H   0  0  0  0  0  0  0  0  0  0  0  0
    0.6808   -0.5951    0.9295 H   0  0  0  0  0  0  0  0  0  0  0  0
   -0.1960   -1.9397    2.3703 C   0  0  0  0  0  0  0  0  0  0  0  0
   -0.0577   -1.2687    3.2193 H   0  0  0  0  0  0  0  0  0  0  0  0
   -1.1262   -2.4944    2.4974 H   0  0  0  0  0  0  0  0  0  0  0  0
    0.9806   -2.9232    2.3099 C   0  0  0  0  0  0  0  0  0  0  0  0
    0.8475   -3.5732    1.4421 H   0  0  0  0  0  0  0  0  0  0  0  0
    1.9042   -2.3531    2.1851 H   0  0  0  0  0  0  0  0  0  0  0  0
    1.0703   -3.7467    3.5332 N   0  3  0  0  0  0  0  0  0  0  0  0
    0.4064   -3.5471    4.2618 H   0  0  0  0  0  0  0  0  0  0  0  0
    1.9382   -4.7186    3.7593 C   0  0  0  0  0  0  0  0  0  0  0  0
    2.8413   -5.0591    2.8830 N   0  0  0  0  0  0  0  0  0  0  0  0
    2.8760   -4.5669    2.0079 H   0  0  0  0  0  0  0  0  0  0  0  0
    3.4928   -5.7988    3.0706 H   0  0  0  0  0  0  0  0  0  0  0  0
    1.9161   -5.3745    4.8847 N   0  0  0  0  0  0  0  0  0  0  0  0
    1.2376   -5.1482    5.5914 H   0  0  0  0  0  0  0  0  0  0  0  0
    2.5764   -6.1112    5.0521 H   0  0  0  0  0  0  0  0  0  0  0  0
   -1.3256    0.8342   -0.1590 C   0  0  0  0  0  0  0  0  0  0  0  0
   -0.3454    1.5586   -0.2836 O   0  0  0  0  0  0  0  0  0  0  0  0
   -2.3563    0.8433   -1.0100 N   0  0  0  0  0  0  0  0  0  0  0  0
   -3.1042    0.1880   -0.8512 H   0  0  0  0  0  0  0  0  0  0  0  0
   -2.4217    1.6819   -2.2080 C   0  0  0  0  0  0  0  0  0  0  0  0
   -1.6302    1.3947   -2.9035 H   0  0  0  0  0  0  0  0  0  0  0  0
   -3.3877    1.5656   -2.7010 H   0  0  0  0  0  0  0  0  0  0  0  0
   -2.2796    2.7306   -1.9381 H   0  0  0  0  0  0  0  0  0  0  0  0
  5  6  2  0  0  0  0
  5  7  1  0  0  0  0
  2  3  1  0  0  0  0
  2  4  1  0  0  0  0
  2  5  1  0  0  0  0
  1  2  1  0  0  0  0
 29 30  2  0  0  0  0
 29 31  1  0  0  0  0
 26 27  1  0  0  0  0
 26 28  1  0  0  0  0
 23 24  1  0  0  0  0
 23 25  1  0  0  0  0
 22 23  1  0  0  0  0
 22 26  1  0  0  0  0
 20 21  1  0  0  0  0
 20 22  2  0  0  0  0
 17 18  1  0  0  0  0
 17 19  1  0  0  0  0
 17 20  1  0  0  0  0
 14 15  1  0  0  0  0
 14 16  1  0  0  0  0
 14 17  1  0  0  0  0
 11 12  1  0  0  0  0
 11 13  1  0  0  0  0
 11 14  1  0  0  0  0
  9 10  1  0  0  0  0
  9 11  1  0  0  0  0
  9 29  1  0  0  0  0
  7  8  1  0  0  0  0
  7  9  1  0  0  0  0
 33 34  1  0  0  0  0
 33 35  1  0  0  0  0
 33 36  1  0  0  0  0
 31 32  1  0  0  0  0
 31 33  1  0  0  0  0
M  CHG  1  20   1
M  END
$$$$
default_name
  -OEChem-01062215323D

 36 35  0     1  0  0  0  0  0999 V2000
   -4.2256   -3.6731    1.8584 H   0  0  0  0  0  0  0  0  0  0  0  0
   -4.2396   -2.6781    1.4144 C   0  0  0  0  0  0  0  0  0  0  0  0
   -4.9506   -2.0521    1.9514 H   0  0  0  0  0  0  0  0  0  0  0  0
   -4.5266   -2.7521    0.3674 H   0  0  0  0  0  0  0  0  0  0  0  0
   -2.8576   -2.0761    1.5184 C   0  0  0  0  0  0  0  0  0  0  0  0
   -1.9456   -2.7051    2.0404 O   0  0  0  0  0  0  0  0  0  0  0  0
   -2.6926   -0.8481    1.0174 N   0  0  0  0  0  0  0  0  0  0  0  0
   -3.4926   -0.3971    0.5954 H   0  0  0  0  0  0  0  0  0  0  0  0
   -1.4216   -0.1071    1.0434 C   0  0  1  0  0  0  0  0  0  0  0  0
   -1.3883    0.4867    1.9583 H   0  0  0  0  0  0  0  0  0  0  0  0
   -0.2638   -1.1251    1.0703 C   0  0  0  0  0  0  0  0  0  0  0  0
   -0.3906   -1.8190    0.2369 H   0  0  0  0  0  0  0  0  0  0  0  0
    0.6808   -0.5951    0.9295 H   0  0  0  0  0  0  0  0  0  0  0  0
   -0.1960   -1.9397    2.3703 C   0  0  0  0  0  0  0  0  0  0  0  0
   -0.0577   -1.2687    3.2193 H   0  0  0  0  0  0  0  0  0  0  0  0
   -1.1262   -2.4944    2.4974 H   0  0  0  0  0  0  0  0  0  0  0  0
    0.9806   -2.9232    2.3099 C   0  0  0  0  0  0  0  0  0  0  0  0
    0.8475   -3.5732    1.4421 H   0  0  0  0  0  0  0  0  0  0  0  0
    1.9042   -2.3531    2.1851 H   0  0  0  0  0  0  0  0  0  0  0  0
    1.0703   -3.7467    3.5332 N   0  3  0  0  0  0  0  0  0  0  0  0
    0.4064   -3.5471    4.2618 H   0  0  0  0  0  0  0  0  0  0  0  0
    1.9382   -4.7186    3.7593 C   0  0  0  0  0  0  0  0  0  0  0  0
    2.8413   -5.0591    2.8830 N   0  0  0  0  0  0  0  0  0  0  0  0
    2.8760   -4.5669    2.0079 H   0  0  0  0  0  0  0  0  0  0  0  0
    3.4928   -5.7988    3.0706 H   0  0  0  0  0  0  0  0  0  0  0  0
    1.9161   -5.3745    4.8847 N   0  0  0  0  0  0  0  0  0  0  0  0
    1.2376   -5.1482    5.5914 H   0  0  0  0  0  0  0  0  0  0  0  0
    2.5764   -6.1112    5.0521 H   0  0  0  0  0  0  0  0  0  0  0  0
   -1.3256    0.8342   -0.1590 C   0  0  0  0  0  0  0  0  0  0  0  0
   -0.2500    1.3492   -0.4399 O   0  0  0  0  0  0  0  0  0  0  0  0
   -2.4536    1.0792   -0.8330 N   0  0  0  0  0  0  0  0  0  0  0  0
   -3.2852    0.5838   -0.5558 H   0  0  0  0  0  0  0  0  0  0  0  0
   -2.5338    1.9525   -2.0051 C   0  0  0  0  0  0  0  0  0  0  0  0
   -1.9375    1.5341   -2.8188 H   0  0  0  0  0  0  0  0  0  0  0  0
   -3.5685    2.0500   -2.3363 H   0  0  0  0  0  0  0  0  0  0  0  0
   -2.1393    2.9414   -1.7618 H   0  0  0  0  0  0  0  0  0  0  0  0
  5  6  2  0  0  0  0
  5  7  1  0  0  0  0
  2  3  1  0  0  0  0
  2  4  1  0  0  0  0
  2  5  1  0  0  0  0
  1  2  1  0  0  0  0
 29 30  2  0  0  0  0
 29 31  1  0  0  0  0
 26 27  1  0  0  0  0
 26 28  1  0  0  0  0
 23 24  1  0  0  0  0
 23 25  1  0  0  0  0
 22 23  1  0  0  0  0
 22 26  1  0  0  0  0
 20 21  1  0  0  0  0
 20 22  2  0  0  0  0
 17 18  1  0  0  0  0
 17 19  1  0  0  0  0
 17 20  1  0  0  0  0
 14 15  1  0  0  0  0
 14 16  1  0  0  0  0
 14 17  1  0  0  0  0
 11 12  1  0  0  0  0
 11 13  1  0  0  0  0
 11 14  1  0  0  0  0
  9 10  1  0  0  0  0
  9 11  1  0  0  0  0
  9 29  1  0  0  0  0
  7  8  1  0  0  0  0
  7  9  1  0  0  0  0
 33 34  1  0  0  0  0
 33 35  1  0  0  0  0
 33 36  1  0  0  0  0
 31 32  1  0  0  0  0
 31 33  1  0  0  0  0
M  CHG  1  20   1
M  END
$$$$
default_name
  -OEChem-01062215323D

 36 35  0     1  0  0  0  0  0999 V2000
   -4.2256   -3.6731    1.8584 H   0  0  0  0  0  0  0  0  0  0  0  0
   -4.2396   -2.6781    1.4144 C   0  0  0  0  0  0  0  0  0  0  0  0
   -4.9506   -2.0521    1.9514 H   0  0  0  0  0  0  0  0  0  0  0  0
   -4.5266   -2.7521    0.3674 H   0  0  0  0  0  0  0  0  0  0  0  0
   -2.8576   -2.0761    1.5184 C   0  0  0  0  0  0  0  0  0  0  0  0
   -1.9456   -2.7051    2.0404 O   0  0  0  0  0  0  0  0  0  0  0  0
   -2.6926   -0.8481    1.0174 N   0  0  0  0  0  0  0  0  0  0  0  0
   -3.4926   -0.3971    0.5954 H   0  0  0  0  0  0  0  0  0  0  0  0
   -1.4216   -0.1071    1.0434 C   0  0  1  0  0  0  0  0  0  0  0  0
   -1.3883    0.4867    1.9583 H   0  0  0  0  0  0  0  0  0  0  0  0
   -0.2638   -1.1251    1.0703 C   0  0  0  0  0  0  0  0  0  0  0  0
   -0.3906   -1.8190    0.2369 H   0  0  0  0  0  0  0  0  0  0  0  0
    0.6808   -0.5951    0.9295 H   0  0  0  0  0  0  0  0  0  0  0  0
   -0.1960   -1.9397    2.3703 C   0  0  0  0  0  0  0  0  0  0  0  0
   -0.0577   -1.2687    3.2193 H   0  0  0  0  0  0  0  0  0  0  0  0
   -1.1262   -2.4944    2.4974 H   0  0  0  0  0  0  0  0  0  0  0  0
    0.9806   -2.9232    2.3099 C   0  0  0  0  0  0  0  0  0  0  0  0
    0.8475   -3.5732    1.4421 H   0  0  0  0  0  0  0  0  0  0  0  0
    1.9042   -2.3531    2.1851 H   0  0  0  0  0  0  0  0  0  0  0  0
    1.0703   -3.7467    3.5332 N   0  3  0  0  0  0  0  0  0  0  0  0
    0.4064   -3.5471    4.2618 H   0  0  0  0  0  0  0  0  0  0  0  0
    1.9382   -4.7186    3.7593 C   0  0  0  0  0  0  0  0  0  0  0  0
    2.8413   -5.0591    2.8830 N   0  0  0  0  0  0  0  0  0  0  0  0
    2.8760   -4.5669    2.0079 H   0  0  0  0  0  0  0  0  0  0  0  0
    3.4928   -5.7988    3.0706 H   0  0  0  0  0  0  0  0  0  0  0  0
    1.9161   -5.3745    4.8847 N   0  0  0  0  0  0  0  0  0  0  0  0
    1.2376   -5.1482    5.5914 H   0  0  0  0  0  0  0  0  0  0  0  0
    2.5764   -6.1112    5.0521 H   0  0  0  0  0  0  0  0  0  0  0  0
   -1.3256    0.8342   -0.1590 C   0  0  0  0  0  0  0  0  0  0  0  0
   -0.2253    1.1301   -0.6094 O   0  0  0  0  0  0  0  0  0  0  0  0
   -2.4713    1.3240   -0.6428 N   0  0  0  0  0  0  0  0  0  0  0  0
   -3.3324    0.9980   -0.2353 H   0  0  0  0  0  0  0  0  0  0  0  0
   -2.5547    2.2333   -1.7869 C   0  0  0  0  0  0  0  0  0  0  0  0
   -2.1925    1.7300   -2.6859 H   0  0  0  0  0  0  0  0  0  0  0  0
   -3.5865    2.5487   -1.9473 H   0  0  0  0  0  0  0  0  0  0  0  0
   -1.9328    3.1137   -1.6105 H   0  0  0  0  0  0  0  0  0  0  0  0
  5  6  2  0  0  0  0
  5  7  1  0  0  0  0
  2  3  1  0  0  0  0
  2  4  1  0  0  0  0
  2  5  1  0  0  0  0
  1  2  1  0  0  0  0
 29 30  2  0  0  0  0
 29 31  1  0  0  0  0
 26 27  1  0  0  0  0
 26 28  1  0  0  0  0
 23 24  1  0  0  0  0
 23 25  1  0  0  0  0
 22 23  1  0  0  0  0
 22 26  1  0  0  0  0
 20 21  1  0  0  0  0
 20 22  2  0  0  0  0
 17 18  1  0  0  0  0
 17 19  1  0  0  0  0
 17 20  1  0  0  0  0
 14 15  1  0  0  0  0
 14 16  1  0  0  0  0
 14 17  1  0  0  0  0
 11 12  1  0  0  0  0
 11 13  1  0  0  0  0
 11 14  1  0  0  0  0
  9 10  1  0  0  0  0
  9 11  1  0  0  0  0
  9 29  1  0  0  0  0
  7  8  1  0  0  0  0
  7  9  1  0  0  0  0
 33 34  1  0  0  0  0
 33 35  1  0  0  0  0
 33 36  1  0  0  0  0
 31 32  1  0  0  0  0
 31 33  1  0  0  0  0
M  CHG  1  20   1
M  END
$$$$
default_name
  -OEChem-01062215323D

 36 35  0     1  0  0  0  0  0999 V2000
   -4.2256   -3.6731    1.8584 H   0  0  0  0  0  0  0  0  0  0  0  0
   -4.2396   -2.6781    1.4144 C   0  0  0  0  0  0  0  0  0  0  0  0
   -4.9506   -2.0521    1.9514 H   0  0  0  0  0  0  0  0  0  0  0  0
   -4.5266   -2.7521    0.3674 H   0  0  0  0  0  0  0  0  0  0  0  0
   -2.8576   -2.0761    1.5184 C   0  0  0  0  0  0  0  0  0  0  0  0
   -1.9456   -2.7051    2.0404 O   0  0  0  0  0  0  0  0  0  0  0  0
   -2.6926   -0.8481    1.0174 N   0  0  0  0  0  0  0  0  0  0  0  0
   -3.4926   -0.3971    0.5954 H   0  0  0  0  0  0  0  0  0  0  0  0
   -1.4216   -0.1071    1.0434 C   0  0  1  0  0  0  0  0  0  0  0  0
   -1.3883    0.4867    1.9583 H   0  0  0  0  0  0  0  0  0  0  0  0
   -0.2638   -1.1251    1.0703 C   0  0  0  0  0  0  0  0  0  0  0  0
   -0.3906   -1.8190    0.2369 H   0  0  0  0  0  0  0  0  0  0  0  0
    0.6808   -0.5951    0.9295 H   0  0  0  0  0  0  0  0  0  0  0  0
   -0.1960   -1.9397    2.3703 C   0  0  0  0  0  0  0  0  0  0  0  0
   -0.0577   -1.2687    3.2193 H   0  0  0  0  0  0  0  0  0  0  0  0
   -1.1262   -2.4944    2.4974 H   0  0  0  0  0  0  0  0  0  0  0  0
    0.9806   -2.9232    2.3099 C   0  0  0  0  0  0  0  0  0  0  0  0
    0.8475   -3.5732    1.4421 H   0  0  0  0  0  0  0  0  0  0  0  0
    1.9042   -2.3531    2.1851 H   0  0  0  0  0  0  0  0  0  0  0  0
    1.0703   -3.7467    3.5332 N   0  3  0  0  0  0  0  0  0  0  0  0
    0.4064   -3.5471    4.2618 H   0  0  0  0  0  0  0  0  0  0  0  0
    1.9382   -4.7186    3.7593 C   0  0  0  0  0  0  0  0  0  0  0  0
    2.8413   -5.0591    2.8830 N   0  0  0  0  0  0  0  0  0  0  0  0
    2.8760   -4.5669    2.0079 H   0  0  0  0  0  0  0  0  0  0  0  0
    3.4928   -5.7988    3.0706 H   0  0  0  0  0  0  0  0  0  0  0  0
    1.9161   -5.3745    4.8847 N   0  0  0  0  0  0  0  0  0  0  0  0
    1.2376   -5.1482    5.5914 H   0  0  0  0  0  0  0  0  0  0  0  0
    2.5764   -6.1112    5.0521 H   0  0  0  0  0  0  0  0  0  0  0  0
   -1.3256    0.8342   -0.1590 C   0  0  0  0  0  0  0  0  0  0  0  0
   -0.2730    0.9163   -0.7807 O   0  0  0  0  0  0  0  0  0  0  0  0
   -2.4084    1.5610   -0.4523 N   0  0  0  0  0  0  0  0  0  0  0  0
   -3.2428    1.4026    0.0886 H   0  0  0  0  0  0  0  0  0  0  0  0
   -2.4830    2.5053   -1.5683 C   0  0  0  0  0  0  0  0  0  0  0  0
   -2.3778    1.9689   -2.5137 H   0  0  0  0  0  0  0  0  0  0  0  0
   -3.4405    3.0278   -1.5606 H   0  0  0  0  0  0  0  0  0  0  0  0
   -1.6742    3.2356   -1.4945 H   0  0  0  0  0  0  0  0  0  0  0  0
  5  6  2  0  0  0  0
  5  7  1  0  0  0  0
  2  3  1  0  0  0  0
  2  4  1  0  0  0  0
  2  5  1  0  0  0  0
  1  2  1  0  0  0  0
 29 30  2  0  0  0  0
 29 31  1  0  0  0  0
 26 27  1  0  0  0  0
 26 28  1  0  0  0  0
 23 24  1  0  0  0  0
 23 25  1  0  0  0  0
 22 23  1  0  0  0  0
 22 26  1  0  0  0  0
 20 21  1  0  0  0  0
 20 22  2  0  0  0  0
 17 18  1  0  0  0  0
 17 19  1  0  0  0  0
 17 20  1  0  0  0  0
 14 15  1  0  0  0  0
 14 16  1  0  0  0  0
 14 17  1  0  0  0  0
 11 12  1  0  0  0  0
 11 13  1  0  0  0  0
 11 14  1  0  0  0  0
  9 10  1  0  0  0  0
  9 11  1  0  0  0  0
  9 29  1  0  0  0  0
  7  8  1  0  0  0  0
  7  9  1  0  0  0  0
 33 34  1  0  0  0  0
 33 35  1  0  0  0  0
 33 36  1  0  0  0  0
 31 32  1  0  0  0  0
 31 33  1  0  0  0  0
M  CHG  1  20   1
M  END
$$$$
default_name
  -OEChem-01062215323D

 36 35  0     1  0  0  0  0  0999 V2000
   -4.2256   -3.6731    1.8584 H   0  0  0  0  0  0  0  0  0  0  0  0
   -4.2396   -2.6781    1.4144 C   0  0  0  0  0  0  0  0  0  0  0  0
   -4.9506   -2.0521    1.9514 H   0  0  0  0  0  0  0  0  0  0  0  0
   -4.5266   -2.7521    0.3674 H   0  0  0  0  0  0  0  0  0  0  0  0
   -2.8576   -2.0761    1.5184 C   0  0  0  0  0  0  0  0  0  0  0  0
   -1.9456   -2.7051    2.0404 O   0  0  0  0  0  0  0  0  0  0  0  0
   -2.6926   -0.8481    1.0174 N   0  0  0  0  0  0  0  0  0  0  0  0
   -3.4926   -0.3971    0.5954 H   0  0  0  0  0  0  0  0  0  0  0  0
   -1.4216   -0.1071    1.0434 C   0  0  1  0  0  0  0  0  0  0  0  0
   -1.3883    0.4867    1.9583 H   0  0  0  0  0  0  0  0  0  0  0  0
   -0.2638   -1.1251    1.0703 C   0  0  0  0  0  0  0  0  0  0  0  0
   -0.3906   -1.8190    0.2369 H   0  0  0  0  0  0  0  0  0  0  0  0
    0.6808   -0.5951    0.9295 H   0  0  0  0  0  0  0  0  0  0  0  0
   -0.1960   -1.9397    2.3703 C   0  0  0  0  0  0  0  0  0  0  0  0
   -0.0577   -1.2687    3.2193 H   0  0  0  0  0  0  0  0  0  0  0  0
   -1.1262   -2.4944    2.4974 H   0  0  0  0  0  0  0  0  0  0  0  0
    0.9806   -2.9232    2.3099 C   0  0  0  0  0  0  0  0  0  0  0  0
    0.8475   -3.5732    1.4421 H   0  0  0  0  0  0  0  0  0  0  0  0
    1.9042   -2.3531    2.1851 H   0  0  0  0  0  0  0  0  0  0  0  0
    1.0703   -3.7467    3.5332 N   0  3  0  0  0  0  0  0  0  0  0  0
    0.4064   -3.5471    4.2618 H   0  0  0  0  0  0  0  0  0  0  0  0
    1.9382   -4.7186    3.7593 C   0  0  0  0  0  0  0  0  0  0  0  0
    2.8413   -5.0591    2.8830 N   0  0  0  0  0  0  0  0  0  0  0  0
    2.8760   -4.5669    2.0079 H   0  0  0  0  0  0  0  0  0  0  0  0
    3.4928   -5.7988    3.0706 H   0  0  0  0  0  0  0  0  0  0  0  0
    1.9161   -5.3745    4.8847 N   0  0  0  0  0  0  0  0  0  0  0  0
    1.2376   -5.1482    5.5914 H   0  0  0  0  0  0  0  0  0  0  0  0
    2.5764   -6.1112    5.0521 H   0  0  0  0  0  0  0  0  0  0  0  0
   -1.3256    0.8342   -0.1590 C   0  0  0  0  0  0  0  0  0  0  0  0
   -0.3899    0.7222   -0.9419 O   0  0  0  0  0  0  0  0  0  0  0  0
   -2.2690    1.7740   -0.2744 N   0  0  0  0  0  0  0  0  0  0  0  0
   -3.0223    1.7699    0.3937 H   0  0  0  0  0  0  0  0  0  0  0  0
   -2.3237    2.7500   -1.3641 C   0  0  0  0  0  0  0  0  0  0  0  0
   -2.4808    2.2345   -2.3139 H   0  0  0  0  0  0  0  0  0  0  0  0
   -3.1405    3.4546   -1.2025 H   0  0  0  0  0  0  0  0  0  0  0  0
   -1.3812    3.2989   -1.4215 H   0  0  0  0  0  0  0  0  0  0  0  0
  5  6  2  0  0  0  0
  5  7  1  0  0  0  0
  2  3  1  0  0  0  0
  2  4  1  0  0  0  0
  2  5  1  0  0  0  0
  1  2  1  0  0  0  0
 29 30  2  0  0  0  0
 29 31  1  0  0  0  0
 26 27  1  0  0  0  0
 26 28  1  0  0  0  0
 23 24  1  0  0  0  0
 23 25  1  0  0  0  0
 22 23  1  0  0  0  0
 22 26  1  0  0  0  0
 20 21  1  0  0  0  0
 20 22  2  0  0  0  0
 17 18  1  0  0  0  0
 17 19  1  0  0  0  0
 17 20  1  0  0  0  0
 14 15  1  0  0  0  0
 14 16  1  0  0  0  0
 14 17  1  0  0  0  0
 11 12  1  0  0  0  0
 11 13  1  0  0  0  0
 11 14  1  0  0  0  0
  9 10  1  0  0  0  0
  9 11  1  0  0  0  0
  9 29  1  0  0  0  0
  7  8  1  0  0  0  0
  7  9  1  0  0  0  0
 33 34  1  0  0  0  0
 33 35  1  0  0  0  0
 33 36  1  0  0  0  0
 31 32  1  0  0  0  0
 31 33  1  0  0  0  0
M  CHG  1  20   1
M  END
$$$$
default_name
  -OEChem-01062215323D

 36 35  0     1  0  0  0  0  0999 V2000
   -4.2256   -3.6731    1.8584 H   0  0  0  0  0  0  0  0  0  0  0  0
   -4.2396   -2.6781    1.4144 C   0  0  0  0  0  0  0  0  0  0  0  0
   -4.9506   -2.0521    1.9514 H   0  0  0  0  0  0  0  0  0  0  0  0
   -4.5266   -2.7521    0.3674 H   0  0  0  0  0  0  0  0  0  0  0  0
   -2.8576   -2.0761    1.5184 C   0  0  0  0  0  0  0  0  0  0  0  0
   -1.9456   -2.7051    2.0404 O   0  0  0  0  0  0  0  0  0  0  0  0
   -2.6926   -0.8481    1.0174 N   0  0  0  0  0  0  0  0  0  0  0  0
   -3.4926   -0.3971    0.5954 H   0  0  0  0  0  0  0  0  0  0  0  0
   -1.4216   -0.1071    1.0434 C   0  0  1  0  0  0  0  0  0  0  0  0
   -1.3883    0.4867    1.9583 H   0  0  0  0  0  0  0  0  0  0  0  0
   -0.2638   -1.1251    1.0703 C   0  0  0  0  0  0  0  0  0  0  0  0
   -0.3906   -1.8190    0.2369 H   0  0  0  0  0  0  0  0  0  0  0  0
    0.6808   -0.5951    0.9295 H   0  0  0  0  0  0  0  0  0  0  0  0
   -0.1960   -1.9397    2.3703 C   0  0  0  0  0  0  0  0  0  0  0  0
   -0.0577   -1.2687    3.2193 H   0  0  0  0  0  0  0  0  0  0  0  0
   -1.1262   -2.4944    2.4974 H   0  0  0  0  0  0  0  0  0  0  0  0
    0.9806   -2.9232    2.3099 C   0  0  0  0  0  0  0  0  0  0  0  0
    0.8475   -3.5732    1.4421 H   0  0  0  0  0  0  0  0  0  0  0  0
    1.9042   -2.3531    2.1851 H   0  0  0  0  0  0  0  0  0  0  0  0
    1.0703   -3.7467    3.5332 N   0  3  0  0  0  0  0  0  0  0  0  0
    0.4064   -3.5471    4.2618 H   0  0  0  0  0  0  0  0  0  0  0  0
    1.9382   -4.7186    3.7593 C   0  0  0  0  0  0  0  0  0  0  0  0
    2.8413   -5.0591    2.8830 N   0  0  0  0  0  0  0  0  0  0  0  0
    2.8760   -4.5669    2.0079 H   0  0  0  0  0  0  0  0  0  0  0  0
    3.4928   -5.7988    3.0706 H   0  0  0  0  0  0  0  0  0  0  0  0
    1.9161   -5.3745    4.8847 N   0  0  0  0  0  0  0  0  0  0  0  0
    1.2376   -5.1482    5.5914 H   0  0  0  0  0  0  0  0  0  0  0  0
    2.5764   -6.1112    5.0521 H   0  0  0  0  0  0  0  0  0  0  0  0
   -1.3256    0.8342   -0.1590 C   0  0  0  0  0  0  0  0  0  0  0  0
   -0.5679    0.5610   -1.0823 O   0  0  0  0  0  0  0  0  0  0  0  0
   -2.0628    1.9485   -0.1213 N   0  0  0  0  0  0  0  0  0  0  0  0
   -2.6861    2.0749    0.6593 H   0  0  0  0  0  0  0  0  0  0  0  0
   -2.0875    2.9505   -1.1882 C   0  0  0  0  0  0  0  0  0  0  0  0
   -2.4944    2.5088   -2.1003 H   0  0  0  0  0  0  0  0  0  0  0  0
   -2.7069    3.8000   -0.8975 H   0  0  0  0  0  0  0  0  0  0  0  0
   -1.0737    3.2992   -1.3967 H   0  0  0  0  0  0  0  0  0  0  0  0
  5  6  2  0  0  0  0
  5  7  1  0  0  0  0
  2  3  1  0  0  0  0
  2  4  1  0  0  0  0
  2  5  1  0  0  0  0
  1  2  1  0  0  0  0
 29 30  2  0  0  0  0
 29 31  1  0  0  0  0
 26 27  1  0  0  0  0
 26 28  1  0  0  0  0
 23 24  1  0  0  0  0
 23 25  1  0  0  0  0
 22 23  1  0  0  0  0
 22 26  1  0  0  0  0
 20 21  1  0  0  0  0
 20 22  2  0  0  0  0
 17 18  1  0  0  0  0
 17 19  1  0  0  0  0
 17 20  1  0  0  0  0
 14 15  1  0  0  0  0
 14 16  1  0  0  0  0
 14 17  1  0  0  0  0
 11 12  1  0  0  0  0
 11 13  1  0  0  0  0
 11 14  1  0  0  0  0
  9 10  1  0  0  0  0
  9 11  1  0  0  0  0
  9 29  1  0  0  0  0
  7  8  1  0  0  0  0
  7  9  1  0  0  0  0
 33 34  1  0  0  0  0
 33 35  1  0  0  0  0
 33 36  1  0  0  0  0
 31 32  1  0  0  0  0
 31 33  1  0  0  0  0
M  CHG  1  20   1
M  END
$$$$
default_name
  -OEChem-01062215323D

 36 35  0     1  0  0  0  0  0999 V2000
   -4.2256   -3.6731    1.8584 H   0  0  0  0  0  0  0  0  0  0  0  0
   -4.2396   -2.6781    1.4144 C   0  0  0  0  0  0  0  0  0  0  0  0
   -4.9506   -2.0521    1.9514 H   0  0  0  0  0  0  0  0  0  0  0  0
   -4.5266   -2.7521    0.3674 H   0  0  0  0  0  0  0  0  0  0  0  0
   -2.8576   -2.0761    1.5184 C   0  0  0  0  0  0  0  0  0  0  0  0
   -1.9456   -2.7051    2.0404 O   0  0  0  0  0  0  0  0  0  0  0  0
   -2.6926   -0.8481    1.0174 N   0  0  0  0  0  0  0  0  0  0  0  0
   -3.4926   -0.3971    0.5954 H   0  0  0  0  0  0  0  0  0  0  0  0
   -1.4216   -0.1071    1.0434 C   0  0  1  0  0  0  0  0  0  0  0  0
   -1.3883    0.4867    1.9583 H   0  0  0  0  0  0  0  0  0  0  0  0
   -0.2638   -1.1251    1.0703 C   0  0  0  0  0  0  0  0  0  0  0  0
   -0.3906   -1.8190    0.2369 H   0  0  0  0  0  0  0  0  0  0  0  0
    0.6808   -0.5951    0.9295 H   0  0  0  0  0  0  0  0  0  0  0  0
   -0.1960   -1.9397    2.3703 C   0  0  0  0  0  0  0  0  0  0  0  0
   -0.0577   -1.2687    3.2193 H   0  0  0  0  0  0  0  0  0  0  0  0
   -1.1262   -2.4944    2.4974 H   0  0  0  0  0  0  0  0  0  0  0  0
    0.9806   -2.9232    2.3099 C   0  0  0  0  0  0  0  0  0  0  0  0
    0.8475   -3.5732    1.4421 H   0  0  0  0  0  0  0  0  0  0  0  0
    1.9042   -2.3531    2.1851 H   0  0  0  0  0  0  0  0  0  0  0  0
    1.0703   -3.7467    3.5332 N   0  3  0  0  0  0  0  0  0  0  0  0
    0.4064   -3.5471    4.2618 H   0  0  0  0  0  0  0  0  0  0  0  0
    1.9382   -4.7186    3.7593 C   0  0  0  0  0  0  0  0  0  0  0  0
    2.8413   -5.0591    2.8830 N   0  0  0  0  0  0  0  0  0  0  0  0
    2.8760   -4.5669    2.0079 H   0  0  0  0  0  0  0  0  0  0  0  0
    3.4928   -5.7988    3.0706 H   0  0  0  0  0  0  0  0  0  0  0  0
    1.9161   -5.3745    4.8847 N   0  0  0  0  0  0  0  0  0  0  0  0
    1.2376   -5.1482    5.5914 H   0  0  0  0  0  0  0  0  0  0  0  0
    2.5764   -6.1112    5.0521 H   0  0  0  0  0  0  0  0  0  0  0  0
   -1.3256    0.8342   -0.1590 C   0  0  0  0  0  0  0  0  0  0  0  0
   -0.7950    0.4439   -1.1921 O   0  0  0  0  0  0  0  0  0  0  0  0
   -1.8037    2.0727   -0.0034 N   0  0  0  0  0  0  0  0  0  0  0  0
   -2.2570    2.2968    0.8673 H   0  0  0  0  0  0  0  0  0  0  0  0
   -1.7905    3.0933   -1.0527 C   0  0  0  0  0  0  0  0  0  0  0  0
   -2.4178    2.7730   -1.8873 H   0  0  0  0  0  0  0  0  0  0  0  0
   -2.1692    4.0405   -0.6664 H   0  0  0  0  0  0  0  0  0  0  0  0
   -0.7726    3.2366   -1.4217 H   0  0  0  0  0  0  0  0  0  0  0  0
  5  6  2  0  0  0  0
  5  7  1  0  0  0  0
  2  3  1  0  0  0  0
  2  4  1  0  0  0  0
  2  5  1  0  0  0  0
  1  2  1  0  0  0  0
 29 30  2  0  0  0  0
 29 31  1  0  0  0  0
 26 27  1  0  0  0  0
 26 28  1  0  0  0  0
 23 24  1  0  0  0  0
 23 25  1  0  0  0  0
 22 23  1  0  0  0  0
 22 26  1  0  0  0  0
 20 21  1  0  0  0  0
 20 22  2  0  0  0  0
 17 18  1  0  0  0  0
 17 19  1  0  0  0  0
 17 20  1  0  0  0  0
 14 15  1  0  0  0  0
 14 16  1  0  0  0  0
 14 17  1  0  0  0  0
 11 12  1  0  0  0  0
 11 13  1  0  0  0  0
 11 14  1  0  0  0  0
  9 10  1  0  0  0  0
  9 11  1  0  0  0  0
  9 29  1  0  0  0  0
  7  8  1  0  0  0  0
  7  9  1  0  0  0  0
 33 34  1  0  0  0  0
 33 35  1  0  0  0  0
 33 36  1  0  0  0  0
 31 32  1  0  0  0  0
 31 33  1  0  0  0  0
M  CHG  1  20   1
M  END
$$$$
default_name
  -OEChem-01062215323D

 36 35  0     1  0  0  0  0  0999 V2000
   -4.2256   -3.6731    1.8584 H   0  0  0  0  0  0  0  0  0  0  0  0
   -4.2396   -2.6781    1.4144 C   0  0  0  0  0  0  0  0  0  0  0  0
   -4.9506   -2.0521    1.9514 H   0  0  0  0  0  0  0  0  0  0  0  0
   -4.5266   -2.7521    0.3674 H   0  0  0  0  0  0  0  0  0  0  0  0
   -2.8576   -2.0761    1.5184 C   0  0  0  0  0  0  0  0  0  0  0  0
   -1.9456   -2.7051    2.0404 O   0  0  0  0  0  0  0  0  0  0  0  0
   -2.6926   -0.8481    1.0174 N   0  0  0  0  0  0  0  0  0  0  0  0
   -3.4926   -0.3971    0.5954 H   0  0  0  0  0  0  0  0  0  0  0  0
   -1.4216   -0.1071    1.0434 C   0  0  1  0  0  0  0  0  0  0  0  0
   -1.3883    0.4867    1.9583 H   0  0  0  0  0  0  0  0  0  0  0  0
   -0.2638   -1.1251    1.0703 C   0  0  0  0  0  0  0  0  0  0  0  0
   -0.3906   -1.8190    0.2369 H   0  0  0  0  0  0  0  0  0  0  0  0
    0.6808   -0.5951    0.9295 H   0  0  0  0  0  0  0  0  0  0  0  0
   -0.1960   -1.9397    2.3703 C   0  0  0  0  0  0  0  0  0  0  0  0
   -0.0577   -1.2687    3.2193 H   0  0  0  0  0  0  0  0  0  0  0  0
   -1.1262   -2.4944    2.4974 H   0  0  0  0  0  0  0  0  0  0  0  0
    0.9806   -2.9232    2.3099 C   0  0  0  0  0  0  0  0  0  0  0  0
    0.8475   -3.5732    1.4421 H   0  0  0  0  0  0  0  0  0  0  0  0
    1.9042   -2.3531    2.1851 H   0  0  0  0  0  0  0  0  0  0  0  0
    1.0703   -3.7467    3.5332 N   0  3  0  0  0  0  0  0  0  0  0  0
    0.4064   -3.5471    4.2618 H   0  0  0  0  0  0  0  0  0  0  0  0
    1.9382   -4.7186    3.7593 C   0  0  0  0  0  0  0  0  0  0  0  0
    2.8413   -5.0591    2.8830 N   0  0  0  0  0  0  0  0  0  0  0  0
    2.8760   -4.5669    2.0079 H   0  0  0  0  0  0  0  0  0  0  0  0
    3.4928   -5.7988    3.0706 H   0  0  0  0  0  0  0  0  0  0  0  0
    1.9161   -5.3745    4.8847 N   0  0  0  0  0  0  0  0  0  0  0  0
    1.2376   -5.1482    5.5914 H   0  0  0  0  0  0  0  0  0  0  0  0
    2.5764   -6.1112    5.0521 H   0  0  0  0  0  0  0  0  0  0  0  0
   -1.3256    0.8342   -0.1590 C   0  0  0  0  0  0  0  0  0  0  0  0
   -1.0557    0.3788   -1.2639 O   0  0  0  0  0  0  0  0  0  0  0  0
   -1.5094    2.1380    0.0712 N   0  0  0  0  0  0  0  0  0  0  0  0
   -1.7643    2.4205    1.0034 H   0  0  0  0  0  0  0  0  0  0  0  0
   -1.4531    3.1687   -0.9668 C   0  0  0  0  0  0  0  0  0  0  0  0
   -2.2561    3.0092   -1.6895 H   0  0  0  0  0  0  0  0  0  0  0  0
   -1.5641    4.1596   -0.5248 H   0  0  0  0  0  0  0  0  0  0  0  0
   -0.4985    3.1152   -1.4948 H   0  0  0  0  0  0  0  0  0  0  0  0
  5  6  2  0  0  0  0
  5  7  1  0  0  0  0
  2  3  1  0  0  0  0
  2  4  1  0  0  0  0
  2  5  1  0  0  0  0
  1  2  1  0  0  0  0
 29 30  2  0  0  0  0
 29 31  1  0  0  0  0
 26 27  1  0  0  0  0
 26 28  1  0  0  0  0
 23 24  1  0  0  0  0
 23 25  1  0  0  0  0
 22 23  1  0  0  0  0
 22 26  1  0  0  0  0
 20 21  1  0  0  0  0
 20 22  2  0  0  0  0
 17 18  1  0  0  0  0
 17 19  1  0  0  0  0
 17 20  1  0  0  0  0
 14 15  1  0  0  0  0
 14 16  1  0  0  0  0
 14 17  1  0  0  0  0
 11 12  1  0  0  0  0
 11 13  1  0  0  0  0
 11 14  1  0  0  0  0
  9 10  1  0  0  0  0
  9 11  1  0  0  0  0
  9 29  1  0  0  0  0
  7  8  1  0  0  0  0
  7  9  1  0  0  0  0
 33 34  1  0  0  0  0
 33 35  1  0  0  0  0
 33 36  1  0  0  0  0
 31 32  1  0  0  0  0
 31 33  1  0  0  0  0
M  CHG  1  20   1
M  END
$$$$
default_name
  -OEChem-01062215323D

 36 35  0     1  0  0  0  0  0999 V2000
   -4.2256   -3.6731    1.8584 H   0  0  0  0  0  0  0  0  0  0  0  0
   -4.2396   -2.6781    1.4144 C   0  0  0  0  0  0  0  0  0  0  0  0
   -4.9506   -2.0521    1.9514 H   0  0  0  0  0  0  0  0  0  0  0  0
   -4.5266   -2.7521    0.3674 H   0  0  0  0  0  0  0  0  0  0  0  0
   -2.8576   -2.0761    1.5184 C   0  0  0  0  0  0  0  0  0  0  0  0
   -1.9456   -2.7051    2.0404 O   0  0  0  0  0  0  0  0  0  0  0  0
   -2.6926   -0.8481    1.0174 N   0  0  0  0  0  0  0  0  0  0  0  0
   -3.4926   -0.3971    0.5954 H   0  0  0  0  0  0  0  0  0  0  0  0
   -1.4216   -0.1071    1.0434 C   0  0  1  0  0  0  0  0  0  0  0  0
   -1.3883    0.4867    1.9583 H   0  0  0  0  0  0  0  0  0  0  0  0
   -0.2638   -1.1251    1.0703 C   0  0  0  0  0  0  0  0  0  0  0  0
   -0.3906   -1.8190    0.2369 H   0  0  0  0  0  0  0  0  0  0  0  0
    0.6808   -0.5951    0.9295 H   0  0  0  0  0  0  0  0  0  0  0  0
   -0.1960   -1.9397    2.3703 C   0  0  0  0  0  0  0  0  0  0  0  0
   -0.0577   -1.2687    3.2193 H   0  0  0  0  0  0  0  0  0  0  0  0
   -1.1262   -2.4944    2.4974 H   0  0  0  0  0  0  0  0  0  0  0  0
    0.9806   -2.9232    2.3099 C   0  0  0  0  0  0  0  0  0  0  0  0
    0.8475   -3.5732    1.4421 H   0  0  0  0  0  0  0  0  0  0  0  0
    1.9042   -2.3531    2.1851 H   0  0  0  0  0  0  0  0  0  0  0  0
    1.0703   -3.7467    3.5332 N   0  3  0  0  0  0  0  0  0  0  0  0
    0.4064   -3.5471    4.2618 H   0  0  0  0  0  0  0  0  0  0  0  0
    1.9382   -4.7186    3.7593 C   0  0  0  0  0  0  0  0  0  0  0  0
    2.8413   -5.0591    2.8830 N   0  0  0  0  0  0  0  0  0  0  0  0
    2.8760   -4.5669    2.0079 H   0  0  0  0  0  0  0  0  0  0  0  0
    3.4928   -5.7988    3.0706 H   0  0  0  0  0  0  0  0  0  0  0  0
    1.9161   -5.3745    4.8847 N   0  0  0  0  0  0  0  0  0  0  0  0
    1.2376   -5.1482    5.5914 H   0  0  0  0  0  0  0  0  0  0  0  0
    2.5764   -6.1112    5.0521 H   0  0  0  0  0  0  0  0  0  0  0  0
   -1.3256    0.8342   -0.1590 C   0  0  0  0  0  0  0  0  0  0  0  0
   -1.3321    0.3700   -1.2928 O   0  0  0  0  0  0  0  0  0  0  0  0
   -1.2000    2.1400    0.0975 N   0  0  0  0  0  0  0  0  0  0  0  0
   -1.2415    2.4375    1.0585 H   0  0  0  0  0  0  0  0  0  0  0  0
   -1.0981    3.1714   -0.9363 C   0  0  0  0  0  0  0  0  0  0  0  0
   -2.0204    3.2012   -1.5204 H   0  0  0  0  0  0  0  0  0  0  0  0
   -0.9329    4.1494   -0.4824 H   0  0  0  0  0  0  0  0  0  0  0  0
   -0.2701    2.9435   -1.6110 H   0  0  0  0  0  0  0  0  0  0  0  0
  5  6  2  0  0  0  0
  5  7  1  0  0  0  0
  2  3  1  0  0  0  0
  2  4  1  0  0  0  0
  2  5  1  0  0  0  0
  1  2  1  0  0  0  0
 29 30  2  0  0  0  0
 29 31  1  0  0  0  0
 26 27  1  0  0  0  0
 26 28  1  0  0  0  0
 23 24  1  0  0  0  0
 23 25  1  0  0  0  0
 22 23  1  0  0  0  0
 22 26  1  0  0  0  0
 20 21  1  0  0  0  0
 20 22  2  0  0  0  0
 17 18  1  0  0  0  0
 17 19  1  0  0  0  0
 17 20  1  0  0  0  0
 14 15  1  0  0  0  0
 14 16  1  0  0  0  0
 14 17  1  0  0  0  0
 11 12  1  0  0  0  0
 11 13  1  0  0  0  0
 11 14  1  0  0  0  0
  9 10  1  0  0  0  0
  9 11  1  0  0  0  0
  9 29  1  0  0  0  0
  7  8  1  0  0  0  0
  7  9  1  0  0  0  0
 33 34  1  0  0  0  0
 33 35  1  0  0  0  0
 33 36  1  0  0  0  0
 31 32  1  0  0  0  0
 31 33  1  0  0  0  0
M  CHG  1  20   1
M  END
$$$$
default_name
  -OEChem-01062215323D

 36 35  0     1  0  0  0  0  0999 V2000
   -4.2256   -3.6731    1.8584 H   0  0  0  0  0  0  0  0  0  0  0  0
   -4.2396   -2.6781    1.4144 C   0  0  0  0  0  0  0  0  0  0  0  0
   -4.9506   -2.0521    1.9514 H   0  0  0  0  0  0  0  0  0  0  0  0
   -4.5266   -2.7521    0.3674 H   0  0  0  0  0  0  0  0  0  0  0  0
   -2.8576   -2.0761    1.5184 C   0  0  0  0  0  0  0  0  0  0  0  0
   -1.9456   -2.7051    2.0404 O   0  0  0  0  0  0  0  0  0  0  0  0
   -2.6926   -0.8481    1.0174 N   0  0  0  0  0  0  0  0  0  0  0  0
   -3.4926   -0.3971    0.5954 H   0  0  0  0  0  0  0  0  0  0  0  0
   -1.4216   -0.1071    1.0434 C   0  0  1  0  0  0  0  0  0  0  0  0
   -1.3883    0.4867    1.9583 H   0  0  0  0  0  0  0  0  0  0  0  0
   -0.2638   -1.1251    1.0703 C   0  0  0  0  0  0  0  0  0  0  0  0
   -0.3906   -1.8190    0.2369 H   0  0  0  0  0  0  0  0  0  0  0  0
    0.6808   -0.5951    0.9295 H   0  0  0  0  0  0  0  0  0  0  0  0
   -0.1960   -1.9397    2.3703 C   0  0  0  0  0  0  0  0  0  0  0  0
   -0.0577   -1.2687    3.2193 H   0  0  0  0  0  0  0  0  0  0  0  0
   -1.1262   -2.4944    2.4974 H   0  0  0  0  0  0  0  0  0  0  0  0
    0.9806   -2.9232    2.3099 C   0  0  0  0  0  0  0  0  0  0  0  0
    0.8475   -3.5732    1.4421 H   0  0  0  0  0  0  0  0  0  0  0  0
    1.9042   -2.3531    2.1851 H   0  0  0  0  0  0  0  0  0  0  0  0
    1.0703   -3.7467    3.5332 N   0  3  0  0  0  0  0  0  0  0  0  0
    0.4064   -3.5471    4.2618 H   0  0  0  0  0  0  0  0  0  0  0  0
    1.9382   -4.7186    3.7593 C   0  0  0  0  0  0  0  0  0  0  0  0
    2.8413   -5.0591    2.8830 N   0  0  0  0  0  0  0  0  0  0  0  0
    2.8760   -4.5669    2.0079 H   0  0  0  0  0  0  0  0  0  0  0  0
    3.4928   -5.7988    3.0706 H   0  0  0  0  0  0  0  0  0  0  0  0
    1.9161   -5.3745    4.8847 N   0  0  0  0  0  0  0  0  0  0  0  0
    1.2376   -5.1482    5.5914 H   0  0  0  0  0  0  0  0  0  0  0  0
    2.5764   -6.1112    5.0521 H   0  0  0  0  0  0  0  0  0  0  0  0
   -1.3256    0.8342   -0.1590 C   0  0  0  0  0  0  0  0  0  0  0  0
   -1.6055    0.4182   -1.2769 O   0  0  0  0  0  0  0  0  0  0  0  0
   -0.8965    2.0786    0.0736 N   0  0  0  0  0  0  0  0  0  0  0  0
   -0.7243    2.3468    1.0287 H   0  0  0  0  0  0  0  0  0  0  0  0
   -0.7498    3.1014   -0.9633 C   0  0  0  0  0  0  0  0  0  0  0  0
   -1.7267    3.3361   -1.3914 H   0  0  0  0  0  0  0  0  0  0  0  0
   -0.3185    4.0104   -0.5422 H   0  0  0  0  0  0  0  0  0  0  0  0
   -0.1028    2.7330   -1.7625 H   0  0  0  0  0  0  0  0  0  0  0  0
  5  6  2  0  0  0  0
  5  7  1  0  0  0  0
  2  3  1  0  0  0  0
  2  4  1  0  0  0  0
  2  5  1  0  0  0  0
  1  2  1  0  0  0  0
 29 30  2  0  0  0  0
 29 31  1  0  0  0  0
 26 27  1  0  0  0  0
 26 28  1  0  0  0  0
 23 24  1  0  0  0  0
 23 25  1  0  0  0  0
 22 23  1  0  0  0  0
 22 26  1  0  0  0  0
 20 21  1  0  0  0  0
 20 22  2  0  0  0  0
 17 18  1  0  0  0  0
 17 19  1  0  0  0  0
 17 20  1  0  0  0  0
 14 15  1  0  0  0  0
 14 16  1  0  0  0  0
 14 17  1  0  0  0  0
 11 12  1  0  0  0  0
 11 13  1  0  0  0  0
 11 14  1  0  0  0  0
  9 10  1  0  0  0  0
  9 11  1  0  0  0  0
  9 29  1  0  0  0  0
  7  8  1  0  0  0  0
  7  9  1  0  0  0  0
 33 34  1  0  0  0  0
 33 35  1  0  0  0  0
 33 36  1  0  0  0  0
 31 32  1  0  0  0  0
 31 33  1  0  0  0  0
M  CHG  1  20   1
M  END
$$$$
default_name
  -OEChem-01062215323D

 36 35  0     1  0  0  0  0  0999 V2000
   -4.2256   -3.6731    1.8584 H   0  0  0  0  0  0  0  0  0  0  0  0
   -4.2396   -2.6781    1.4144 C   0  0  0  0  0  0  0  0  0  0  0  0
   -4.9506   -2.0521    1.9514 H   0  0  0  0  0  0  0  0  0  0  0  0
   -4.5266   -2.7521    0.3674 H   0  0  0  0  0  0  0  0  0  0  0  0
   -2.8576   -2.0761    1.5184 C   0  0  0  0  0  0  0  0  0  0  0  0
   -1.9456   -2.7051    2.0404 O   0  0  0  0  0  0  0  0  0  0  0  0
   -2.6926   -0.8481    1.0174 N   0  0  0  0  0  0  0  0  0  0  0  0
   -3.4926   -0.3971    0.5954 H   0  0  0  0  0  0  0  0  0  0  0  0
   -1.4216   -0.1071    1.0434 C   0  0  1  0  0  0  0  0  0  0  0  0
   -1.3883    0.4867    1.9583 H   0  0  0  0  0  0  0  0  0  0  0  0
   -0.2638   -1.1251    1.0703 C   0  0  0  0  0  0  0  0  0  0  0  0
   -0.3906   -1.8190    0.2369 H   0  0  0  0  0  0  0  0  0  0  0  0
    0.6808   -0.5951    0.9295 H   0  0  0  0  0  0  0  0  0  0  0  0
   -0.1960   -1.9397    2.3703 C   0  0  0  0  0  0  0  0  0  0  0  0
   -0.0577   -1.2687    3.2193 H   0  0  0  0  0  0  0  0  0  0  0  0
   -1.1262   -2.4944    2.4974 H   0  0  0  0  0  0  0  0  0  0  0  0
    0.9806   -2.9232    2.3099 C   0  0  0  0  0  0  0  0  0  0  0  0
    0.8475   -3.5732    1.4421 H   0  0  0  0  0  0  0  0  0  0  0  0
    1.9042   -2.3531    2.1851 H   0  0  0  0  0  0  0  0  0  0  0  0
    1.0703   -3.7467    3.5332 N   0  3  0  0  0  0  0  0  0  0  0  0
    0.4064   -3.5471    4.2618 H   0  0  0  0  0  0  0  0  0  0  0  0
    1.9382   -4.7186    3.7593 C   0  0  0  0  0  0  0  0  0  0  0  0
    2.8413   -5.0591    2.8830 N   0  0  0  0  0  0  0  0  0  0  0  0
    2.8760   -4.5669    2.0079 H   0  0  0  0  0  0  0  0  0  0  0  0
    3.4928   -5.7988    3.0706 H   0  0  0  0  0  0  0  0  0  0  0  0
    1.9161   -5.3745    4.8847 N   0  0  0  0  0  0  0  0  0  0  0  0
    1.2376   -5.1482    5.5914 H   0  0  0  0  0  0  0  0  0  0  0  0
    2.5764   -6.1112    5.0521 H   0  0  0  0  0  0  0  0  0  0  0  0
   -1.3256    0.8342   -0.1590 C   0  0  0  0  0  0  0  0  0  0  0  0
   -1.8573    0.5202   -1.2172 O   0  0  0  0  0  0  0  0  0  0  0  0
   -0.6197    1.9579    0.0012 N   0  0  0  0  0  0  0  0  0  0  0  0
   -0.2480    2.1544    0.9162 H   0  0  0  0  0  0  0  0  0  0  0  0
   -0.4320    2.9633   -1.0460 C   0  0  0  0  0  0  0  0  0  0  0  0
   -1.3951    3.4044   -1.3114 H   0  0  0  0  0  0  0  0  0  0  0  0
    0.2372    3.7522   -0.7000 H   0  0  0  0  0  0  0  0  0  0  0  0
   -0.0082    2.4981   -1.9388 H   0  0  0  0  0  0  0  0  0  0  0  0
  5  6  2  0  0  0  0
  5  7  1  0  0  0  0
  2  3  1  0  0  0  0
  2  4  1  0  0  0  0
  2  5  1  0  0  0  0
  1  2  1  0  0  0  0
 29 30  2  0  0  0  0
 29 31  1  0  0  0  0
 26 27  1  0  0  0  0
 26 28  1  0  0  0  0
 23 24  1  0  0  0  0
 23 25  1  0  0  0  0
 22 23  1  0  0  0  0
 22 26  1  0  0  0  0
 20 21  1  0  0  0  0
 20 22  2  0  0  0  0
 17 18  1  0  0  0  0
 17 19  1  0  0  0  0
 17 20  1  0  0  0  0
 14 15  1  0  0  0  0
 14 16  1  0  0  0  0
 14 17  1  0  0  0  0
 11 12  1  0  0  0  0
 11 13  1  0  0  0  0
 11 14  1  0  0  0  0
  9 10  1  0  0  0  0
  9 11  1  0  0  0  0
  9 29  1  0  0  0  0
  7  8  1  0  0  0  0
  7  9  1  0  0  0  0
 33 34  1  0  0  0  0
 33 35  1  0  0  0  0
 33 36  1  0  0  0  0
 31 32  1  0  0  0  0
 31 33  1  0  0  0  0
M  CHG  1  20   1
M  END
$$$$
default_name
  -OEChem-01062215323D

 36 35  0     1  0  0  0  0  0999 V2000
   -4.2256   -3.6731    1.8584 H   0  0  0  0  0  0  0  0  0  0  0  0
   -4.2396   -2.6781    1.4144 C   0  0  0  0  0  0  0  0  0  0  0  0
   -4.9506   -2.0521    1.9514 H   0  0  0  0  0  0  0  0  0  0  0  0
   -4.5266   -2.7521    0.3674 H   0  0  0  0  0  0  0  0  0  0  0  0
   -2.8576   -2.0761    1.5184 C   0  0  0  0  0  0  0  0  0  0  0  0
   -1.9456   -2.7051    2.0404 O   0  0  0  0  0  0  0  0  0  0  0  0
   -2.6926   -0.8481    1.0174 N   0  0  0  0  0  0  0  0  0  0  0  0
   -3.4926   -0.3971    0.5954 H   0  0  0  0  0  0  0  0  0  0  0  0
   -1.4216   -0.1071    1.0434 C   0  0  1  0  0  0  0  0  0  0  0  0
   -1.3883    0.4867    1.9583 H   0  0  0  0  0  0  0  0  0  0  0  0
   -0.2638   -1.1251    1.0703 C   0  0  0  0  0  0  0  0  0  0  0  0
   -0.3906   -1.8190    0.2369 H   0  0  0  0  0  0  0  0  0  0  0  0
    0.6808   -0.5951    0.9295 H   0  0  0  0  0  0  0  0  0  0  0  0
   -0.1960   -1.9397    2.3703 C   0  0  0  0  0  0  0  0  0  0  0  0
   -0.0577   -1.2687    3.2193 H   0  0  0  0  0  0  0  0  0  0  0  0
   -1.1262   -2.4944    2.4974 H   0  0  0  0  0  0  0  0  0  0  0  0
    0.9806   -2.9232    2.3099 C   0  0  0  0  0  0  0  0  0  0  0  0
    0.8475   -3.5732    1.4421 H   0  0  0  0  0  0  0  0  0  0  0  0
    1.9042   -2.3531    2.1851 H   0  0  0  0  0  0  0  0  0  0  0  0
    1.0703   -3.7467    3.5332 N   0  3  0  0  0  0  0  0  0  0  0  0
    0.4064   -3.5471    4.2618 H   0  0  0  0  0  0  0  0  0  0  0  0
    1.9382   -4.7186    3.7593 C   0  0  0  0  0  0  0  0  0  0  0  0
    2.8413   -5.0591    2.8830 N   0  0  0  0  0  0  0  0  0  0  0  0
    2.8760   -4.5669    2.0079 H   0  0  0  0  0  0  0  0  0  0  0  0
    3.4928   -5.7988    3.0706 H   0  0  0  0  0  0  0  0  0  0  0  0
    1.9161   -5.3745    4.8847 N   0  0  0  0  0  0  0  0  0  0  0  0
    1.2376   -5.1482    5.5914 H   0  0  0  0  0  0  0  0  0  0  0  0
    2.5764   -6.1112    5.0521 H   0  0  0  0  0  0  0  0  0  0  0  0
   -1.3256    0.8342   -0.1590 C   0  0  0  0  0  0  0  0  0  0  0  0
   -2.0703    0.6689   -1.1178 O   0  0  0  0  0  0  0  0  0  0  0  0
   -0.3884    1.7862   -0.1147 N   0  0  0  0  0  0  0  0  0  0  0  0
    0.1551    1.8735    0.7284 H   0  0  0  0  0  0  0  0  0  0  0  0
   -0.1662    2.7666   -1.1788 C   0  0  0  0  0  0  0  0  0  0  0  0
   -1.0481    3.4018   -1.2858 H   0  0  0  0  0  0  0  0  0  0  0  0
    0.6962    3.3922   -0.9451 H   0  0  0  0  0  0  0  0  0  0  0  0
    0.0073    2.2549   -2.1279 H   0  0  0  0  0  0  0  0  0  0  0  0
  5  6  2  0  0  0  0
  5  7  1  0  0  0  0
  2  3  1  0  0  0  0
  2  4  1  0  0  0  0
  2  5  1  0  0  0  0
  1  2  1  0  0  0  0
 29 30  2  0  0  0  0
 29 31  1  0  0  0  0
 26 27  1  0  0  0  0
 26 28  1  0  0  0  0
 23 24  1  0  0  0  0
 23 25  1  0  0  0  0
 22 23  1  0  0  0  0
 22 26  1  0  0  0  0
 20 21  1  0  0  0  0
 20 22  2  0  0  0  0
 17 18  1  0  0  0  0
 17 19  1  0  0  0  0
 17 20  1  0  0  0  0
 14 15  1  0  0  0  0
 14 16  1  0  0  0  0
 14 17  1  0  0  0  0
 11 12  1  0  0  0  0
 11 13  1  0  0  0  0
 11 14  1  0  0  0  0
  9 10  1  0  0  0  0
  9 11  1  0  0  0  0
  9 29  1  0  0  0  0
  7  8  1  0  0  0  0
  7  9  1  0  0  0  0
 33 34  1  0  0  0  0
 33 35  1  0  0  0  0
 33 36  1  0  0  0  0
 31 32  1  0  0  0  0
 31 33  1  0  0  0  0
M  CHG  1  20   1
M  END
$$$$
default_name
  -OEChem-01062215323D

 36 35  0     1  0  0  0  0  0999 V2000
   -4.2256   -3.6731    1.8584 H   0  0  0  0  0  0  0  0  0  0  0  0
   -4.2396   -2.6781    1.4144 C   0  0  0  0  0  0  0  0  0  0  0  0
   -4.9506   -2.0521    1.9514 H   0  0  0  0  0  0  0  0  0  0  0  0
   -4.5266   -2.7521    0.3674 H   0  0  0  0  0  0  0  0  0  0  0  0
   -2.8576   -2.0761    1.5184 C   0  0  0  0  0  0  0  0  0  0  0  0
   -1.9456   -2.7051    2.0404 O   0  0  0  0  0  0  0  0  0  0  0  0
   -2.6926   -0.8481    1.0174 N   0  0  0  0  0  0  0  0  0  0  0  0
   -3.4926   -0.3971    0.5954 H   0  0  0  0  0  0  0  0  0  0  0  0
   -1.4216   -0.1071    1.0434 C   0  0  1  0  0  0  0  0  0  0  0  0
   -1.2628    0.2680    2.0558 H   0  0  0  0  0  0  0  0  0  0  0  0
   -0.2808   -1.0827    0.6912 C   0  0  0  0  0  0  0  0  0  0  0  0
   -0.5226   -1.5754   -0.2527 H   0  0  0  0  0  0  0  0  0  0  0  0
    0.6427   -0.5165    0.5513 H   0  0  0  0  0  0  0  0  0  0  0  0
   -0.0518   -2.1655    1.7558 C   0  0  0  0  0  0  0  0  0  0  0  0
    0.2034   -1.6985    2.7081 H   0  0  0  0  0  0  0  0  0  0  0  0
   -0.9630   -2.7526    1.8751 H   0  0  0  0  0  0  0  0  0  0  0  0
    1.0967   -3.0877    1.3245 C   0  0  0  0  0  0  0  0  0  0  0  0
    0.8445   -3.5300    0.3580 H   0  0  0  0  0  0  0  0  0  0  0  0
    2.0018   -2.4863    1.2116 H   0  0  0  0  0  0  0  0  0  0  0  0
    1.3372   -4.1617    2.3102 N   0  3  0  0  0  0  0  0  0  0  0  0
    0.7765   -4.1427    3.1448 H   0  0  0  0  0  0  0  0  0  0  0  0
    2.2173   -5.1425    2.1983 C   0  0  0  0  0  0  0  0  0  0  0  0
    2.9944   -5.2612    1.1584 N   0  0  0  0  0  0  0  0  0  0  0  0
    2.9194   -4.5854    0.4187 H   0  0  0  0  0  0  0  0  0  0  0  0
    3.6572   -6.0113    1.0894 H   0  0  0  0  0  0  0  0  0  0  0  0
    2.3359   -6.0334    3.1414 N   0  0  0  0  0  0  0  0  0  0  0  0
    1.7581   -5.9838    3.9628 H   0  0  0  0  0  0  0  0  0  0  0  0
    3.0048   -6.7759    3.0525 H   0  0  0  0  0  0  0  0  0  0  0  0
   -1.4741    1.0805    0.0802 C   0  0  0  0  0  0  0  0  0  0  0  0
   -2.4785    1.2671   -0.5961 O   0  0  0  0  0  0  0  0  0  0  0  0
   -0.3829    1.8482   -0.0013 N   0  0  0  0  0  0  0  0  0  0  0  0
    0.3839    1.6444    0.6187 H   0  0  0  0  0  0  0  0  0  0  0  0
   -0.2697    3.0209   -0.8700 C   0  0  0  0  0  0  0  0  0  0  0  0
   -0.9892    3.7815   -0.5594 H   0  0  0  0  0  0  0  0  0  0  0  0
    0.7361    3.4393   -0.8147 H   0  0  0  0  0  0  0  0  0  0  0  0
   -0.4871    2.7425   -1.9036 H   0  0  0  0  0  0  0  0  0  0  0  0
  5  6  2  0  0  0  0
  5  7  1  0  0  0  0
  2  3  1  0  0  0  0
  2  4  1  0  0  0  0
  2  5  1  0  0  0  0
  1  2  1  0  0  0  0
 29 30  2  0  0  0  0
 29 31  1  0  0  0  0
 26 27  1  0  0  0  0
 26 28  1  0  0  0  0
 23 24  1  0  0  0  0
 23 25  1  0  0  0  0
 22 23  1  0  0  0  0
 22 26  1  0  0  0  0
 20 21  1  0  0  0  0
 20 22  2  0  0  0  0
 17 18  1  0  0  0  0
 17 19  1  0  0  0  0
 17 20  1  0  0  0  0
 14 15  1  0  0  0  0
 14 16  1  0  0  0  0
 14 17  1  0  0  0  0
 11 12  1  0  0  0  0
 11 13  1  0  0  0  0
 11 14  1  0  0  0  0
  9 10  1  0  0  0  0
  9 11  1  0  0  0  0
  9 29  1  0  0  0  0
  7  8  1  0  0  0  0
  7  9  1  0  0  0  0
 33 34  1  0  0  0  0
 33 35  1  0  0  0  0
 33 36  1  0  0  0  0
 31 32  1  0  0  0  0
 31 33  1  0  0  0  0
M  CHG  1  20   1
M  END
$$$$
default_name
  -OEChem-01062215323D

 36 35  0     1  0  0  0  0  0999 V2000
   -4.2256   -3.6731    1.8584 H   0  0  0  0  0  0  0  0  0  0  0  0
   -4.2396   -2.6781    1.4144 C   0  0  0  0  0  0  0  0  0  0  0  0
   -4.9506   -2.0521    1.9514 H   0  0  0  0  0  0  0  0  0  0  0  0
   -4.5266   -2.7521    0.3674 H   0  0  0  0  0  0  0  0  0  0  0  0
   -2.8576   -2.0761    1.5184 C   0  0  0  0  0  0  0  0  0  0  0  0
   -1.9456   -2.7051    2.0404 O   0  0  0  0  0  0  0  0  0  0  0  0
   -2.6926   -0.8481    1.0174 N   0  0  0  0  0  0  0  0  0  0  0  0
   -3.4926   -0.3971    0.5954 H   0  0  0  0  0  0  0  0  0  0  0  0
   -1.4216   -0.1071    1.0434 C   0  0  1  0  0  0  0  0  0  0  0  0
   -1.2628    0.2680    2.0558 H   0  0  0  0  0  0  0  0  0  0  0  0
   -0.2808   -1.0827    0.6912 C   0  0  0  0  0  0  0  0  0  0  0  0
   -0.5226   -1.5754   -0.2527 H   0  0  0  0  0  0  0  0  0  0  0  0
    0.6427   -0.5165    0.5513 H   0  0  0  0  0  0  0  0  0  0  0  0
   -0.0518   -2.1655    1.7558 C   0  0  0  0  0  0  0  0  0  0  0  0
    0.2034   -1.6985    2.7081 H   0  0  0  0  0  0  0  0  0  0  0  0
   -0.9630   -2.7526    1.8751 H   0  0  0  0  0  0  0  0  0  0  0  0
    1.0967   -3.0877    1.3245 C   0  0  0  0  0  0  0  0  0  0  0  0
    0.8445   -3.5300    0.3580 H   0  0  0  0  0  0  0  0  0  0  0  0
    2.0018   -2.4863    1.2116 H   0  0  0  0  0  0  0  0  0  0  0  0
    1.3372   -4.1617    2.3102 N   0  3  0  0  0  0  0  0  0  0  0  0
    0.7765   -4.1427    3.1448 H   0  0  0  0  0  0  0  0  0  0  0  0
    2.2173   -5.1425    2.1983 C   0  0  0  0  0  0  0  0  0  0  0  0
    2.9944   -5.2612    1.1584 N   0  0  0  0  0  0  0  0  0  0  0  0
    2.9194   -4.5854    0.4187 H   0  0  0  0  0  0  0  0  0  0  0  0
    3.6572   -6.0113    1.0894 H   0  0  0  0  0  0  0  0  0  0  0  0
    2.3359   -6.0334    3.1414 N   0  0  0  0  0  0  0  0  0  0  0  0
    1.7581   -5.9838    3.9628 H   0  0  0  0  0  0  0  0  0  0  0  0
    3.0048   -6.7759    3.0525 H   0  0  0  0  0  0  0  0  0  0  0  0
   -1.4741    1.0805    0.0802 C   0  0  0  0  0  0  0  0  0  0  0  0
   -2.5505    1.4344   -0.3859 O   0  0  0  0  0  0  0  0  0  0  0  0
   -0.3121    1.6596   -0.2376 N   0  0  0  0  0  0  0  0  0  0  0  0
    0.5206    1.3281    0.2213 H   0  0  0  0  0  0  0  0  0  0  0  0
   -0.1879    2.8047   -1.1411 C   0  0  0  0  0  0  0  0  0  0  0  0
   -0.6971    3.6704   -0.7123 H   0  0  0  0  0  0  0  0  0  0  0  0
    0.8626    3.0521   -1.2989 H   0  0  0  0  0  0  0  0  0  0  0  0
   -0.6514    2.5737   -2.1028 H   0  0  0  0  0  0  0  0  0  0  0  0
  5  6  2  0  0  0  0
  5  7  1  0  0  0  0
  2  3  1  0  0  0  0
  2  4  1  0  0  0  0
  2  5  1  0  0  0  0
  1  2  1  0  0  0  0
 29 30  2  0  0  0  0
 29 31  1  0  0  0  0
 26 27  1  0  0  0  0
 26 28  1  0  0  0  0
 23 24  1  0  0  0  0
 23 25  1  0  0  0  0
 22 23  1  0  0  0  0
 22 26  1  0  0  0  0
 20 21  1  0  0  0  0
 20 22  2  0  0  0  0
 17 18  1  0  0  0  0
 17 19  1  0  0  0  0
 17 20  1  0  0  0  0
 14 15  1  0  0  0  0
 14 16  1  0  0  0  0
 14 17  1  0  0  0  0
 11 12  1  0  0  0  0
 11 13  1  0  0  0  0
 11 14  1  0  0  0  0
  9 10  1  0  0  0  0
  9 11  1  0  0  0  0
  9 29  1  0  0  0  0
  7  8  1  0  0  0  0
  7  9  1  0  0  0  0
 33 34  1  0  0  0  0
 33 35  1  0  0  0  0
 33 36  1  0  0  0  0
 31 32  1  0  0  0  0
 31 33  1  0  0  0  0
M  CHG  1  20   1
M  END
$$$$
default_name
  -OEChem-01062215323D

 36 35  0     1  0  0  0  0  0999 V2000
   -4.2256   -3.6731    1.8584 H   0  0  0  0  0  0  0  0  0  0  0  0
   -4.2396   -2.6781    1.4144 C   0  0  0  0  0  0  0  0  0  0  0  0
   -4.9506   -2.0521    1.9514 H   0  0  0  0  0  0  0  0  0  0  0  0
   -4.5266   -2.7521    0.3674 H   0  0  0  0  0  0  0  0  0  0  0  0
   -2.8576   -2.0761    1.5184 C   0  0  0  0  0  0  0  0  0  0  0  0
   -1.9456   -2.7051    2.0404 O   0  0  0  0  0  0  0  0  0  0  0  0
   -2.6926   -0.8481    1.0174 N   0  0  0  0  0  0  0  0  0  0  0  0
   -3.4926   -0.3971    0.5954 H   0  0  0  0  0  0  0  0  0  0  0  0
   -1.4216   -0.1071    1.0434 C   0  0  1  0  0  0  0  0  0  0  0  0
   -1.2628    0.2680    2.0558 H   0  0  0  0  0  0  0  0  0  0  0  0
   -0.2808   -1.0827    0.6912 C   0  0  0  0  0  0  0  0  0  0  0  0
   -0.5226   -1.5754   -0.2527 H   0  0  0  0  0  0  0  0  0  0  0  0
    0.6427   -0.5165    0.5513 H   0  0  0  0  0  0  0  0  0  0  0  0
   -0.0518   -2.1655    1.7558 C   0  0  0  0  0  0  0  0  0  0  0  0
    0.2034   -1.6985    2.7081 H   0  0  0  0  0  0  0  0  0  0  0  0
   -0.9630   -2.7526    1.8751 H   0  0  0  0  0  0  0  0  0  0  0  0
    1.0967   -3.0877    1.3245 C   0  0  0  0  0  0  0  0  0  0  0  0
    0.8445   -3.5300    0.3580 H   0  0  0  0  0  0  0  0  0  0  0  0
    2.0018   -2.4863    1.2116 H   0  0  0  0  0  0  0  0  0  0  0  0
    1.3372   -4.1617    2.3102 N   0  3  0  0  0  0  0  0  0  0  0  0
    0.7765   -4.1427    3.1448 H   0  0  0  0  0  0  0  0  0  0  0  0
    2.2173   -5.1425    2.1983 C   0  0  0  0  0  0  0  0  0  0  0  0
    2.9944   -5.2612    1.1584 N   0  0  0  0  0  0  0  0  0  0  0  0
    2.9194   -4.5854    0.4187 H   0  0  0  0  0  0  0  0  0  0  0  0
    3.6572   -6.0113    1.0894 H   0  0  0  0  0  0  0  0  0  0  0  0
    2.3359   -6.0334    3.1414 N   0  0  0  0  0  0  0  0  0  0  0  0
    1.7581   -5.9838    3.9628 H   0  0  0  0  0  0  0  0  0  0  0  0
    3.0048   -6.7759    3.0525 H   0  0  0  0  0  0  0  0  0  0  0  0
   -1.4741    1.0805    0.0802 C   0  0  0  0  0  0  0  0  0  0  0  0
   -2.5505    1.6095   -0.1699 O   0  0  0  0  0  0  0  0  0  0  0  0
   -0.3219    1.4639   -0.4785 N   0  0  0  0  0  0  0  0  0  0  0  0
    0.5213    0.9969   -0.1872 H   0  0  0  0  0  0  0  0  0  0  0  0
   -0.1986    2.5801   -1.4175 C   0  0  0  0  0  0  0  0  0  0  0  0
   -0.4637    3.5142   -0.9176 H   0  0  0  0  0  0  0  0  0  0  0  0
    0.8244    2.6533   -1.7886 H   0  0  0  0  0  0  0  0  0  0  0  0
   -0.8776    2.4356   -2.2607 H   0  0  0  0  0  0  0  0  0  0  0  0
  5  6  2  0  0  0  0
  5  7  1  0  0  0  0
  2  3  1  0  0  0  0
  2  4  1  0  0  0  0
  2  5  1  0  0  0  0
  1  2  1  0  0  0  0
 29 30  2  0  0  0  0
 29 31  1  0  0  0  0
 26 27  1  0  0  0  0
 26 28  1  0  0  0  0
 23 24  1  0  0  0  0
 23 25  1  0  0  0  0
 22 23  1  0  0  0  0
 22 26  1  0  0  0  0
 20 21  1  0  0  0  0
 20 22  2  0  0  0  0
 17 18  1  0  0  0  0
 17 19  1  0  0  0  0
 17 20  1  0  0  0  0
 14 15  1  0  0  0  0
 14 16  1  0  0  0  0
 14 17  1  0  0  0  0
 11 12  1  0  0  0  0
 11 13  1  0  0  0  0
 11 14  1  0  0  0  0
  9 10  1  0  0  0  0
  9 11  1  0  0  0  0
  9 29  1  0  0  0  0
  7  8  1  0  0  0  0
  7  9  1  0  0  0  0
 33 34  1  0  0  0  0
 33 35  1  0  0  0  0
 33 36  1  0  0  0  0
 31 32  1  0  0  0  0
 31 33  1  0  0  0  0
M  CHG  1  20   1
M  END
$$$$
default_name
  -OEChem-01062215323D

 36 35  0     1  0  0  0  0  0999 V2000
   -4.2256   -3.6731    1.8584 H   0  0  0  0  0  0  0  0  0  0  0  0
   -4.2396   -2.6781    1.4144 C   0  0  0  0  0  0  0  0  0  0  0  0
   -4.9506   -2.0521    1.9514 H   0  0  0  0  0  0  0  0  0  0  0  0
   -4.5266   -2.7521    0.3674 H   0  0  0  0  0  0  0  0  0  0  0  0
   -2.8576   -2.0761    1.5184 C   0  0  0  0  0  0  0  0  0  0  0  0
   -1.9456   -2.7051    2.0404 O   0  0  0  0  0  0  0  0  0  0  0  0
   -2.6926   -0.8481    1.0174 N   0  0  0  0  0  0  0  0  0  0  0  0
   -3.4926   -0.3971    0.5954 H   0  0  0  0  0  0  0  0  0  0  0  0
   -1.4216   -0.1071    1.0434 C   0  0  1  0  0  0  0  0  0  0  0  0
   -1.2628    0.2680    2.0558 H   0  0  0  0  0  0  0  0  0  0  0  0
   -0.2808   -1.0827    0.6912 C   0  0  0  0  0  0  0  0  0  0  0  0
   -0.5226   -1.5754   -0.2527 H   0  0  0  0  0  0  0  0  0  0  0  0
    0.6427   -0.5165    0.5513 H   0  0  0  0  0  0  0  0  0  0  0  0
   -0.0518   -2.1655    1.7558 C   0  0  0  0  0  0  0  0  0  0  0  0
    0.2034   -1.6985    2.7081 H   0  0  0  0  0  0  0  0  0  0  0  0
   -0.9630   -2.7526    1.8751 H   0  0  0  0  0  0  0  0  0  0  0  0
    1.0967   -3.0877    1.3245 C   0  0  0  0  0  0  0  0  0  0  0  0
    0.8445   -3.5300    0.3580 H   0  0  0  0  0  0  0  0  0  0  0  0
    2.0018   -2.4863    1.2116 H   0  0  0  0  0  0  0  0  0  0  0  0
    1.3372   -4.1617    2.3102 N   0  3  0  0  0  0  0  0  0  0  0  0
    0.7765   -4.1427    3.1448 H   0  0  0  0  0  0  0  0  0  0  0  0
    2.2173   -5.1425    2.1983 C   0  0  0  0  0  0  0  0  0  0  0  0
    2.9944   -5.2612    1.1584 N   0  0  0  0  0  0  0  0  0  0  0  0
    2.9194   -4.5854    0.4187 H   0  0  0  0  0  0  0  0  0  0  0  0
    3.6572   -6.0113    1.0894 H   0  0  0  0  0  0  0  0  0  0  0  0
    2.3359   -6.0334    3.1414 N   0  0  0  0  0  0  0  0  0  0  0  0
    1.7581   -5.9838    3.9628 H   0  0  0  0  0  0  0  0  0  0  0  0
    3.0048   -6.7759    3.0525 H   0  0  0  0  0  0  0  0  0  0  0  0
   -1.4741    1.0805    0.0802 C   0  0  0  0  0  0  0  0  0  0  0  0
   -2.4786    1.7807    0.0372 O   0  0  0  0  0  0  0  0  0  0  0  0
   -0.4116    1.2742   -0.7074 N   0  0  0  0  0  0  0  0  0  0  0  0
    0.3859    0.6731   -0.5790 H   0  0  0  0  0  0  0  0  0  0  0  0
   -0.3011    2.3624   -1.6803 C   0  0  0  0  0  0  0  0  0  0  0  0
   -0.3050    3.3234   -1.1615 H   0  0  0  0  0  0  0  0  0  0  0  0
    0.6242    2.2699   -2.2504 H   0  0  0  0  0  0  0  0  0  0  0  0
   -1.1504    2.3377   -2.3665 H   0  0  0  0  0  0  0  0  0  0  0  0
  5  6  2  0  0  0  0
  5  7  1  0  0  0  0
  2  3  1  0  0  0  0
  2  4  1  0  0  0  0
  2  5  1  0  0  0  0
  1  2  1  0  0  0  0
 29 30  2  0  0  0  0
 29 31  1  0  0  0  0
 26 27  1  0  0  0  0
 26 28  1  0  0  0  0
 23 24  1  0  0  0  0
 23 25  1  0  0  0  0
 22 23  1  0  0  0  0
 22 26  1  0  0  0  0
 20 21  1  0  0  0  0
 20 22  2  0  0  0  0
 17 18  1  0  0  0  0
 17 19  1  0  0  0  0
 17 20  1  0  0  0  0
 14 15  1  0  0  0  0
 14 16  1  0  0  0  0
 14 17  1  0  0  0  0
 11 12  1  0  0  0  0
 11 13  1  0  0  0  0
 11 14  1  0  0  0  0
  9 10  1  0  0  0  0
  9 11  1  0  0  0  0
  9 29  1  0  0  0  0
  7  8  1  0  0  0  0
  7  9  1  0  0  0  0
 33 34  1  0  0  0  0
 33 35  1  0  0  0  0
 33 36  1  0  0  0  0
 31 32  1  0  0  0  0
 31 33  1  0  0  0  0
M  CHG  1  20   1
M  END
$$$$
default_name
  -OEChem-01062215323D

 36 35  0     1  0  0  0  0  0999 V2000
   -4.2256   -3.6731    1.8584 H   0  0  0  0  0  0  0  0  0  0  0  0
   -4.2396   -2.6781    1.4144 C   0  0  0  0  0  0  0  0  0  0  0  0
   -4.9506   -2.0521    1.9514 H   0  0  0  0  0  0  0  0  0  0  0  0
   -4.5266   -2.7521    0.3674 H   0  0  0  0  0  0  0  0  0  0  0  0
   -2.8576   -2.0761    1.5184 C   0  0  0  0  0  0  0  0  0  0  0  0
   -1.9456   -2.7051    2.0404 O   0  0  0  0  0  0  0  0  0  0  0  0
   -2.6926   -0.8481    1.0174 N   0  0  0  0  0  0  0  0  0  0  0  0
   -3.4926   -0.3971    0.5954 H   0  0  0  0  0  0  0  0  0  0  0  0
   -1.4216   -0.1071    1.0434 C   0  0  1  0  0  0  0  0  0  0  0  0
   -1.2628    0.2680    2.0558 H   0  0  0  0  0  0  0  0  0  0  0  0
   -0.2808   -1.0827    0.6912 C   0  0  0  0  0  0  0  0  0  0  0  0
   -0.5226   -1.5754   -0.2527 H   0  0  0  0  0  0  0  0  0  0  0  0
    0.6427   -0.5165    0.5513 H   0  0  0  0  0  0  0  0  0  0  0  0
   -0.0518   -2.1655    1.7558 C   0  0  0  0  0  0  0  0  0  0  0  0
    0.2034   -1.6985    2.7081 H   0  0  0  0  0  0  0  0  0  0  0  0
   -0.9630   -2.7526    1.8751 H   0  0  0  0  0  0  0  0  0  0  0  0
    1.0967   -3.0877    1.3245 C   0  0  0  0  0  0  0  0  0  0  0  0
    0.8445   -3.5300    0.3580 H   0  0  0  0  0  0  0  0  0  0  0  0
    2.0018   -2.4863    1.2116 H   0  0  0  0  0  0  0  0  0  0  0  0
    1.3372   -4.1617    2.3102 N   0  3  0  0  0  0  0  0  0  0  0  0
    0.7765   -4.1427    3.1448 H   0  0  0  0  0  0  0  0  0  0  0  0
    2.2173   -5.1425    2.1983 C   0  0  0  0  0  0  0  0  0  0  0  0
    2.9944   -5.2612    1.1584 N   0  0  0  0  0  0  0  0  0  0  0  0
    2.9194   -4.5854    0.4187 H   0  0  0  0  0  0  0  0  0  0  0  0
    3.6572   -6.0113    1.0894 H   0  0  0  0  0  0  0  0  0  0  0  0
    2.3359   -6.0334    3.1414 N   0  0  0  0  0  0  0  0  0  0  0  0
    1.7581   -5.9838    3.9628 H   0  0  0  0  0  0  0  0  0  0  0  0
    3.0048   -6.7759    3.0525 H   0  0  0  0  0  0  0  0  0  0  0  0
   -1.4741    1.0805    0.0802 C   0  0  0  0  0  0  0  0  0  0  0  0
   -2.3397    1.9361    0.2212 O   0  0  0  0  0  0  0  0  0  0  0  0
   -0.5752    1.1037   -0.9088 N   0  0  0  0  0  0  0  0  0  0  0  0
    0.1237    0.3790   -0.9273 H   0  0  0  0  0  0  0  0  0  0  0  0
   -0.4883    2.1665   -1.9116 C   0  0  0  0  0  0  0  0  0  0  0  0
   -0.2318    3.1111   -1.4273 H   0  0  0  0  0  0  0  0  0  0  0  0
    0.2756    1.9281   -2.6529 H   0  0  0  0  0  0  0  0  0  0  0  0
   -1.4511    2.2866   -2.4131 H   0  0  0  0  0  0  0  0  0  0  0  0
  5  6  2  0  0  0  0
  5  7  1  0  0  0  0
  2  3  1  0  0  0  0
  2  4  1  0  0  0  0
  2  5  1  0  0  0  0
  1  2  1  0  0  0  0
 29 30  2  0  0  0  0
 29 31  1  0  0  0  0
 26 27  1  0  0  0  0
 26 28  1  0  0  0  0
 23 24  1  0  0  0  0
 23 25  1  0  0  0  0
 22 23  1  0  0  0  0
 22 26  1  0  0  0  0
 20 21  1  0  0  0  0
 20 22  2  0  0  0  0
 17 18  1  0  0  0  0
 17 19  1  0  0  0  0
 17 20  1  0  0  0  0
 14 15  1  0  0  0  0
 14 16  1  0  0  0  0
 14 17  1  0  0  0  0
 11 12  1  0  0  0  0
 11 13  1  0  0  0  0
 11 14  1  0  0  0  0
  9 10  1  0  0  0  0
  9 11  1  0  0  0  0
  9 29  1  0  0  0  0
  7  8  1  0  0  0  0
  7  9  1  0  0  0  0
 33 34  1  0  0  0  0
 33 35  1  0  0  0  0
 33 36  1  0  0  0  0
 31 32  1  0  0  0  0
 31 33  1  0  0  0  0
M  CHG  1  20   1
M  END
$$$$
default_name
  -OEChem-01062215323D

 36 35  0     1  0  0  0  0  0999 V2000
   -4.2256   -3.6731    1.8584 H   0  0  0  0  0  0  0  0  0  0  0  0
   -4.2396   -2.6781    1.4144 C   0  0  0  0  0  0  0  0  0  0  0  0
   -4.9506   -2.0521    1.9514 H   0  0  0  0  0  0  0  0  0  0  0  0
   -4.5266   -2.7521    0.3674 H   0  0  0  0  0  0  0  0  0  0  0  0
   -2.8576   -2.0761    1.5184 C   0  0  0  0  0  0  0  0  0  0  0  0
   -1.9456   -2.7051    2.0404 O   0  0  0  0  0  0  0  0  0  0  0  0
   -2.6926   -0.8481    1.0174 N   0  0  0  0  0  0  0  0  0  0  0  0
   -3.4926   -0.3971    0.5954 H   0  0  0  0  0  0  0  0  0  0  0  0
   -1.4216   -0.1071    1.0434 C   0  0  1  0  0  0  0  0  0  0  0  0
   -1.2628    0.2680    2.0558 H   0  0  0  0  0  0  0  0  0  0  0  0
   -0.2808   -1.0827    0.6912 C   0  0  0  0  0  0  0  0  0  0  0  0
   -0.5226   -1.5754   -0.2527 H   0  0  0  0  0  0  0  0  0  0  0  0
    0.6427   -0.5165    0.5513 H   0  0  0  0  0  0  0  0  0  0  0  0
   -0.0518   -2.1655    1.7558 C   0  0  0  0  0  0  0  0  0  0  0  0
    0.2034   -1.6985    2.7081 H   0  0  0  0  0  0  0  0  0  0  0  0
   -0.9630   -2.7526    1.8751 H   0  0  0  0  0  0  0  0  0  0  0  0
    1.0967   -3.0877    1.3245 C   0  0  0  0  0  0  0  0  0  0  0  0
    0.8445   -3.5300    0.3580 H   0  0  0  0  0  0  0  0  0  0  0  0
    2.0018   -2.4863    1.2116 H   0  0  0  0  0  0  0  0  0  0  0  0
    1.3372   -4.1617    2.3102 N   0  3  0  0  0  0  0  0  0  0  0  0
    0.7765   -4.1427    3.1448 H   0  0  0  0  0  0  0  0  0  0  0  0
    2.2173   -5.1425    2.1983 C   0  0  0  0  0  0  0  0  0  0  0  0
    2.9944   -5.2612    1.1584 N   0  0  0  0  0  0  0  0  0  0  0  0
    2.9194   -4.5854    0.4187 H   0  0  0  0  0  0  0  0  0  0  0  0
    3.6572   -6.0113    1.0894 H   0  0  0  0  0  0  0  0  0  0  0  0
    2.3359   -6.0334    3.1414 N   0  0  0  0  0  0  0  0  0  0  0  0
    1.7581   -5.9838    3.9628 H   0  0  0  0  0  0  0  0  0  0  0  0
    3.0048   -6.7759    3.0525 H   0  0  0  0  0  0  0  0  0  0  0  0
   -1.4741    1.0805    0.0802 C   0  0  0  0  0  0  0  0  0  0  0  0
   -2.1432    2.0652    0.3697 O   0  0  0  0  0  0  0  0  0  0  0  0
   -0.8015    0.9637   -1.0690 N   0  0  0  0  0  0  0  0  0  0  0  0
   -0.2475    0.1346   -1.2085 H   0  0  0  0  0  0  0  0  0  0  0  0
   -0.7475    2.0057   -2.0957 C   0  0  0  0  0  0  0  0  0  0  0  0
   -0.2490    2.8918   -1.6968 H   0  0  0  0  0  0  0  0  0  0  0  0
   -0.1978    1.6512   -2.9685 H   0  0  0  0  0  0  0  0  0  0  0  0
   -1.7592    2.2858   -2.3972 H   0  0  0  0  0  0  0  0  0  0  0  0
  5  6  2  0  0  0  0
  5  7  1  0  0  0  0
  2  3  1  0  0  0  0
  2  4  1  0  0  0  0
  2  5  1  0  0  0  0
  1  2  1  0  0  0  0
 29 30  2  0  0  0  0
 29 31  1  0  0  0  0
 26 27  1  0  0  0  0
 26 28  1  0  0  0  0
 23 24  1  0  0  0  0
 23 25  1  0  0  0  0
 22 23  1  0  0  0  0
 22 26  1  0  0  0  0
 20 21  1  0  0  0  0
 20 22  2  0  0  0  0
 17 18  1  0  0  0  0
 17 19  1  0  0  0  0
 17 20  1  0  0  0  0
 14 15  1  0  0  0  0
 14 16  1  0  0  0  0
 14 17  1  0  0  0  0
 11 12  1  0  0  0  0
 11 13  1  0  0  0  0
 11 14  1  0  0  0  0
  9 10  1  0  0  0  0
  9 11  1  0  0  0  0
  9 29  1  0  0  0  0
  7  8  1  0  0  0  0
  7  9  1  0  0  0  0
 33 34  1  0  0  0  0
 33 35  1  0  0  0  0
 33 36  1  0  0  0  0
 31 32  1  0  0  0  0
 31 33  1  0  0  0  0
M  CHG  1  20   1
M  END
$$$$
default_name
  -OEChem-01062215323D

 36 35  0     1  0  0  0  0  0999 V2000
   -4.2256   -3.6731    1.8584 H   0  0  0  0  0  0  0  0  0  0  0  0
   -4.2396   -2.6781    1.4144 C   0  0  0  0  0  0  0  0  0  0  0  0
   -4.9506   -2.0521    1.9514 H   0  0  0  0  0  0  0  0  0  0  0  0
   -4.5266   -2.7521    0.3674 H   0  0  0  0  0  0  0  0  0  0  0  0
   -2.8576   -2.0761    1.5184 C   0  0  0  0  0  0  0  0  0  0  0  0
   -1.9456   -2.7051    2.0404 O   0  0  0  0  0  0  0  0  0  0  0  0
   -2.6926   -0.8481    1.0174 N   0  0  0  0  0  0  0  0  0  0  0  0
   -3.4926   -0.3971    0.5954 H   0  0  0  0  0  0  0  0  0  0  0  0
   -1.4216   -0.1071    1.0434 C   0  0  1  0  0  0  0  0  0  0  0  0
   -1.2628    0.2680    2.0558 H   0  0  0  0  0  0  0  0  0  0  0  0
   -0.2808   -1.0827    0.6912 C   0  0  0  0  0  0  0  0  0  0  0  0
   -0.5226   -1.5754   -0.2527 H   0  0  0  0  0  0  0  0  0  0  0  0
    0.6427   -0.5165    0.5513 H   0  0  0  0  0  0  0  0  0  0  0  0
   -0.0518   -2.1655    1.7558 C   0  0  0  0  0  0  0  0  0  0  0  0
    0.2034   -1.6985    2.7081 H   0  0  0  0  0  0  0  0  0  0  0  0
   -0.9630   -2.7526    1.8751 H   0  0  0  0  0  0  0  0  0  0  0  0
    1.0967   -3.0877    1.3245 C   0  0  0  0  0  0  0  0  0  0  0  0
    0.8445   -3.5300    0.3580 H   0  0  0  0  0  0  0  0  0  0  0  0
    2.0018   -2.4863    1.2116 H   0  0  0  0  0  0  0  0  0  0  0  0
    1.3372   -4.1617    2.3102 N   0  3  0  0  0  0  0  0  0  0  0  0
    0.7765   -4.1427    3.1448 H   0  0  0  0  0  0  0  0  0  0  0  0
    2.2173   -5.1425    2.1983 C   0  0  0  0  0  0  0  0  0  0  0  0
    2.9944   -5.2612    1.1584 N   0  0  0  0  0  0  0  0  0  0  0  0
    2.9194   -4.5854    0.4187 H   0  0  0  0  0  0  0  0  0  0  0  0
    3.6572   -6.0113    1.0894 H   0  0  0  0  0  0  0  0  0  0  0  0
    2.3359   -6.0334    3.1414 N   0  0  0  0  0  0  0  0  0  0  0  0
    1.7581   -5.9838    3.9628 H   0  0  0  0  0  0  0  0  0  0  0  0
    3.0048   -6.7759    3.0525 H   0  0  0  0  0  0  0  0  0  0  0  0
   -1.4741    1.0805    0.0802 C   0  0  0  0  0  0  0  0  0  0  0  0
   -1.9025    2.1593    0.4726 O   0  0  0  0  0  0  0  0  0  0  0  0
   -1.0750    0.8640   -1.1770 N   0  0  0  0  0  0  0  0  0  0  0  0
   -0.7024   -0.0436   -1.4033 H   0  0  0  0  0  0  0  0  0  0  0  0
   -1.0611    1.8911   -2.2200 C   0  0  0  0  0  0  0  0  0  0  0  0
   -0.3556    2.6803   -1.9517 H   0  0  0  0  0  0  0  0  0  0  0  0
   -0.7635    1.4580   -3.1758 H   0  0  0  0  0  0  0  0  0  0  0  0
   -2.0538    2.3355   -2.3200 H   0  0  0  0  0  0  0  0  0  0  0  0
  5  6  2  0  0  0  0
  5  7  1  0  0  0  0
  2  3  1  0  0  0  0
  2  4  1  0  0  0  0
  2  5  1  0  0  0  0
  1  2  1  0  0  0  0
 29 30  2  0  0  0  0
 29 31  1  0  0  0  0
 26 27  1  0  0  0  0
 26 28  1  0  0  0  0
 23 24  1  0  0  0  0
 23 25  1  0  0  0  0
 22 23  1  0  0  0  0
 22 26  1  0  0  0  0
 20 21  1  0  0  0  0
 20 22  2  0  0  0  0
 17 18  1  0  0  0  0
 17 19  1  0  0  0  0
 17 20  1  0  0  0  0
 14 15  1  0  0  0  0
 14 16  1  0  0  0  0
 14 17  1  0  0  0  0
 11 12  1  0  0  0  0
 11 13  1  0  0  0  0
 11 14  1  0  0  0  0
  9 10  1  0  0  0  0
  9 11  1  0  0  0  0
  9 29  1  0  0  0  0
  7  8  1  0  0  0  0
  7  9  1  0  0  0  0
 33 34  1  0  0  0  0
 33 35  1  0  0  0  0
 33 36  1  0  0  0  0
 31 32  1  0  0  0  0
 31 33  1  0  0  0  0
M  CHG  1  20   1
M  END
$$$$
default_name
  -OEChem-01062215323D

 36 35  0     1  0  0  0  0  0999 V2000
   -4.2256   -3.6731    1.8584 H   0  0  0  0  0  0  0  0  0  0  0  0
   -4.2396   -2.6781    1.4144 C   0  0  0  0  0  0  0  0  0  0  0  0
   -4.9506   -2.0521    1.9514 H   0  0  0  0  0  0  0  0  0  0  0  0
   -4.5266   -2.7521    0.3674 H   0  0  0  0  0  0  0  0  0  0  0  0
   -2.8576   -2.0761    1.5184 C   0  0  0  0  0  0  0  0  0  0  0  0
   -1.9456   -2.7051    2.0404 O   0  0  0  0  0  0  0  0  0  0  0  0
   -2.6926   -0.8481    1.0174 N   0  0  0  0  0  0  0  0  0  0  0  0
   -3.4926   -0.3971    0.5954 H   0  0  0  0  0  0  0  0  0  0  0  0
   -1.4216   -0.1071    1.0434 C   0  0  1  0  0  0  0  0  0  0  0  0
   -1.2628    0.2680    2.0558 H   0  0  0  0  0  0  0  0  0  0  0  0
   -0.2808   -1.0827    0.6912 C   0  0  0  0  0  0  0  0  0  0  0  0
   -0.5226   -1.5754   -0.2527 H   0  0  0  0  0  0  0  0  0  0  0  0
    0.6427   -0.5165    0.5513 H   0  0  0  0  0  0  0  0  0  0  0  0
   -0.0518   -2.1655    1.7558 C   0  0  0  0  0  0  0  0  0  0  0  0
    0.2034   -1.6985    2.7081 H   0  0  0  0  0  0  0  0  0  0  0  0
   -0.9630   -2.7526    1.8751 H   0  0  0  0  0  0  0  0  0  0  0  0
    1.0967   -3.0877    1.3245 C   0  0  0  0  0  0  0  0  0  0  0  0
    0.8445   -3.5300    0.3580 H   0  0  0  0  0  0  0  0  0  0  0  0
    2.0018   -2.4863    1.2116 H   0  0  0  0  0  0  0  0  0  0  0  0
    1.3372   -4.1617    2.3102 N   0  3  0  0  0  0  0  0  0  0  0  0
    0.7765   -4.1427    3.1448 H   0  0  0  0  0  0  0  0  0  0  0  0
    2.2173   -5.1425    2.1983 C   0  0  0  0  0  0  0  0  0  0  0  0
    2.9944   -5.2612    1.1584 N   0  0  0  0  0  0  0  0  0  0  0  0
    2.9194   -4.5854    0.4187 H   0  0  0  0  0  0  0  0  0  0  0  0
    3.6572   -6.0113    1.0894 H   0  0  0  0  0  0  0  0  0  0  0  0
    2.3359   -6.0334    3.1414 N   0  0  0  0  0  0  0  0  0  0  0  0
    1.7581   -5.9838    3.9628 H   0  0  0  0  0  0  0  0  0  0  0  0
    3.0048   -6.7759    3.0525 H   0  0  0  0  0  0  0  0  0  0  0  0
   -1.4741    1.0805    0.0802 C   0  0  0  0  0  0  0  0  0  0  0  0
   -1.6340    2.2118    0.5227 O   0  0  0  0  0  0  0  0  0  0  0  0
   -1.3772    0.8114   -1.2255 N   0  0  0  0  0  0  0  0  0  0  0  0
   -1.2099   -0.1433   -1.4986 H   0  0  0  0  0  0  0  0  0  0  0  0
   -1.4076    1.8303   -2.2761 C   0  0  0  0  0  0  0  0  0  0  0  0
   -0.5442    2.4912   -2.1747 H   0  0  0  0  0  0  0  0  0  0  0  0
   -1.3831    1.3617   -3.2607 H   0  0  0  0  0  0  0  0  0  0  0  0
   -2.3147    2.4321   -2.1866 H   0  0  0  0  0  0  0  0  0  0  0  0
  5  6  2  0  0  0  0
  5  7  1  0  0  0  0
  2  3  1  0  0  0  0
  2  4  1  0  0  0  0
  2  5  1  0  0  0  0
  1  2  1  0  0  0  0
 29 30  2  0  0  0  0
 29 31  1  0  0  0  0
 26 27  1  0  0  0  0
 26 28  1  0  0  0  0
 23 24  1  0  0  0  0
 23 25  1  0  0  0  0
 22 23  1  0  0  0  0
 22 26  1  0  0  0  0
 20 21  1  0  0  0  0
 20 22  2  0  0  0  0
 17 18  1  0  0  0  0
 17 19  1  0  0  0  0
 17 20  1  0  0  0  0
 14 15  1  0  0  0  0
 14 16  1  0  0  0  0
 14 17  1  0  0  0  0
 11 12  1  0  0  0  0
 11 13  1  0  0  0  0
 11 14  1  0  0  0  0
  9 10  1  0  0  0  0
  9 11  1  0  0  0  0
  9 29  1  0  0  0  0
  7  8  1  0  0  0  0
  7  9  1  0  0  0  0
 33 34  1  0  0  0  0
 33 35  1  0  0  0  0
 33 36  1  0  0  0  0
 31 32  1  0  0  0  0
 31 33  1  0  0  0  0
M  CHG  1  20   1
M  END
$$$$
default_name
  -OEChem-01062215323D

 36 35  0     1  0  0  0  0  0999 V2000
   -4.2256   -3.6731    1.8584 H   0  0  0  0  0  0  0  0  0  0  0  0
   -4.2396   -2.6781    1.4144 C   0  0  0  0  0  0  0  0  0  0  0  0
   -4.9506   -2.0521    1.9514 H   0  0  0  0  0  0  0  0  0  0  0  0
   -4.5266   -2.7521    0.3674 H   0  0  0  0  0  0  0  0  0  0  0  0
   -2.8576   -2.0761    1.5184 C   0  0  0  0  0  0  0  0  0  0  0  0
   -1.9456   -2.7051    2.0404 O   0  0  0  0  0  0  0  0  0  0  0  0
   -2.6926   -0.8481    1.0174 N   0  0  0  0  0  0  0  0  0  0  0  0
   -3.4926   -0.3971    0.5954 H   0  0  0  0  0  0  0  0  0  0  0  0
   -1.4216   -0.1071    1.0434 C   0  0  1  0  0  0  0  0  0  0  0  0
   -1.2628    0.2680    2.0558 H   0  0  0  0  0  0  0  0  0  0  0  0
   -0.2808   -1.0827    0.6912 C   0  0  0  0  0  0  0  0  0  0  0  0
   -0.5226   -1.5754   -0.2527 H   0  0  0  0  0  0  0  0  0  0  0  0
    0.6427   -0.5165    0.5513 H   0  0  0  0  0  0  0  0  0  0  0  0
   -0.0518   -2.1655    1.7558 C   0  0  0  0  0  0  0  0  0  0  0  0
    0.2034   -1.6985    2.7081 H   0  0  0  0  0  0  0  0  0  0  0  0
   -0.9630   -2.7526    1.8751 H   0  0  0  0  0  0  0  0  0  0  0  0
    1.0967   -3.0877    1.3245 C   0  0  0  0  0  0  0  0  0  0  0  0
    0.8445   -3.5300    0.3580 H   0  0  0  0  0  0  0  0  0  0  0  0
    2.0018   -2.4863    1.2116 H   0  0  0  0  0  0  0  0  0  0  0  0
    1.3372   -4.1617    2.3102 N   0  3  0  0  0  0  0  0  0  0  0  0
    0.7765   -4.1427    3.1448 H   0  0  0  0  0  0  0  0  0  0  0  0
    2.2173   -5.1425    2.1983 C   0  0  0  0  0  0  0  0  0  0  0  0
    2.9944   -5.2612    1.1584 N   0  0  0  0  0  0  0  0  0  0  0  0
    2.9194   -4.5854    0.4187 H   0  0  0  0  0  0  0  0  0  0  0  0
    3.6572   -6.0113    1.0894 H   0  0  0  0  0  0  0  0  0  0  0  0
    2.3359   -6.0334    3.1414 N   0  0  0  0  0  0  0  0  0  0  0  0
    1.7581   -5.9838    3.9628 H   0  0  0  0  0  0  0  0  0  0  0  0
    3.0048   -6.7759    3.0525 H   0  0  0  0  0  0  0  0  0  0  0  0
   -1.4741    1.0805    0.0802 C   0  0  0  0  0  0  0  0  0  0  0  0
   -1.3561    2.2192    0.5167 O   0  0  0  0  0  0  0  0  0  0  0  0
   -1.6874    0.8093   -1.2111 N   0  0  0  0  0  0  0  0  0  0  0  0
   -1.7356   -0.1577   -1.4877 H   0  0  0  0  0  0  0  0  0  0  0  0
   -1.7635    1.8275   -2.2600 C   0  0  0  0  0  0  0  0  0  0  0  0
   -0.8019    2.3372   -2.3505 H   0  0  0  0  0  0  0  0  0  0  0  0
   -2.0143    1.3689   -3.2174 H   0  0  0  0  0  0  0  0  0  0  0  0
   -2.5242    2.5691   -2.0062 H   0  0  0  0  0  0  0  0  0  0  0  0
  5  6  2  0  0  0  0
  5  7  1  0  0  0  0
  2  3  1  0  0  0  0
  2  4  1  0  0  0  0
  2  5  1  0  0  0  0
  1  2  1  0  0  0  0
 29 30  2  0  0  0  0
 29 31  1  0  0  0  0
 26 27  1  0  0  0  0
 26 28  1  0  0  0  0
 23 24  1  0  0  0  0
 23 25  1  0  0  0  0
 22 23  1  0  0  0  0
 22 26  1  0  0  0  0
 20 21  1  0  0  0  0
 20 22  2  0  0  0  0
 17 18  1  0  0  0  0
 17 19  1  0  0  0  0
 17 20  1  0  0  0  0
 14 15  1  0  0  0  0
 14 16  1  0  0  0  0
 14 17  1  0  0  0  0
 11 12  1  0  0  0  0
 11 13  1  0  0  0  0
 11 14  1  0  0  0  0
  9 10  1  0  0  0  0
  9 11  1  0  0  0  0
  9 29  1  0  0  0  0
  7  8  1  0  0  0  0
  7  9  1  0  0  0  0
 33 34  1  0  0  0  0
 33 35  1  0  0  0  0
 33 36  1  0  0  0  0
 31 32  1  0  0  0  0
 31 33  1  0  0  0  0
M  CHG  1  20   1
M  END
$$$$
default_name
  -OEChem-01062215323D

 36 35  0     1  0  0  0  0  0999 V2000
   -4.2256   -3.6731    1.8584 H   0  0  0  0  0  0  0  0  0  0  0  0
   -4.2396   -2.6781    1.4144 C   0  0  0  0  0  0  0  0  0  0  0  0
   -4.9506   -2.0521    1.9514 H   0  0  0  0  0  0  0  0  0  0  0  0
   -4.5266   -2.7521    0.3674 H   0  0  0  0  0  0  0  0  0  0  0  0
   -2.8576   -2.0761    1.5184 C   0  0  0  0  0  0  0  0  0  0  0  0
   -1.9456   -2.7051    2.0404 O   0  0  0  0  0  0  0  0  0  0  0  0
   -2.6926   -0.8481    1.0174 N   0  0  0  0  0  0  0  0  0  0  0  0
   -3.4926   -0.3971    0.5954 H   0  0  0  0  0  0  0  0  0  0  0  0
   -1.4216   -0.1071    1.0434 C   0  0  1  0  0  0  0  0  0  0  0  0
   -1.2628    0.2680    2.0558 H   0  0  0  0  0  0  0  0  0  0  0  0
   -0.2808   -1.0827    0.6912 C   0  0  0  0  0  0  0  0  0  0  0  0
   -0.5226   -1.5754   -0.2527 H   0  0  0  0  0  0  0  0  0  0  0  0
    0.6427   -0.5165    0.5513 H   0  0  0  0  0  0  0  0  0  0  0  0
   -0.0518   -2.1655    1.7558 C   0  0  0  0  0  0  0  0  0  0  0  0
    0.2034   -1.6985    2.7081 H   0  0  0  0  0  0  0  0  0  0  0  0
   -0.9630   -2.7526    1.8751 H   0  0  0  0  0  0  0  0  0  0  0  0
    1.0967   -3.0877    1.3245 C   0  0  0  0  0  0  0  0  0  0  0  0
    0.8445   -3.5300    0.3580 H   0  0  0  0  0  0  0  0  0  0  0  0
    2.0018   -2.4863    1.2116 H   0  0  0  0  0  0  0  0  0  0  0  0
    1.3372   -4.1617    2.3102 N   0  3  0  0  0  0  0  0  0  0  0  0
    0.7765   -4.1427    3.1448 H   0  0  0  0  0  0  0  0  0  0  0  0
    2.2173   -5.1425    2.1983 C   0  0  0  0  0  0  0  0  0  0  0  0
    2.9944   -5.2612    1.1584 N   0  0  0  0  0  0  0  0  0  0  0  0
    2.9194   -4.5854    0.4187 H   0  0  0  0  0  0  0  0  0  0  0  0
    3.6572   -6.0113    1.0894 H   0  0  0  0  0  0  0  0  0  0  0  0
    2.3359   -6.0334    3.1414 N   0  0  0  0  0  0  0  0  0  0  0  0
    1.7581   -5.9838    3.9628 H   0  0  0  0  0  0  0  0  0  0  0  0
    3.0048   -6.7759    3.0525 H   0  0  0  0  0  0  0  0  0  0  0  0
   -1.4741    1.0805    0.0802 C   0  0  0  0  0  0  0  0  0  0  0  0
   -1.0876    2.1811    0.4550 O   0  0  0  0  0  0  0  0  0  0  0  0
   -1.9845    0.8579   -1.1350 N   0  0  0  0  0  0  0  0  0  0  0  0
   -2.2435   -0.0859   -1.3715 H   0  0  0  0  0  0  0  0  0  0  0  0
   -2.1046    1.8830   -2.1730 C   0  0  0  0  0  0  0  0  0  0  0  0
   -1.1113    2.2289   -2.4671 H   0  0  0  0  0  0  0  0  0  0  0  0
   -2.6141    1.4791   -3.0488 H   0  0  0  0  0  0  0  0  0  0  0  0
   -2.6680    2.7372   -1.7912 H   0  0  0  0  0  0  0  0  0  0  0  0
  5  6  2  0  0  0  0
  5  7  1  0  0  0  0
  2  3  1  0  0  0  0
  2  4  1  0  0  0  0
  2  5  1  0  0  0  0
  1  2  1  0  0  0  0
 29 30  2  0  0  0  0
 29 31  1  0  0  0  0
 26 27  1  0  0  0  0
 26 28  1  0  0  0  0
 23 24  1  0  0  0  0
 23 25  1  0  0  0  0
 22 23  1  0  0  0  0
 22 26  1  0  0  0  0
 20 21  1  0  0  0  0
 20 22  2  0  0  0  0
 17 18  1  0  0  0  0
 17 19  1  0  0  0  0
 17 20  1  0  0  0  0
 14 15  1  0  0  0  0
 14 16  1  0  0  0  0
 14 17  1  0  0  0  0
 11 12  1  0  0  0  0
 11 13  1  0  0  0  0
 11 14  1  0  0  0  0
  9 10  1  0  0  0  0
  9 11  1  0  0  0  0
  9 29  1  0  0  0  0
  7  8  1  0  0  0  0
  7  9  1  0  0  0  0
 33 34  1  0  0  0  0
 33 35  1  0  0  0  0
 33 36  1  0  0  0  0
 31 32  1  0  0  0  0
 31 33  1  0  0  0  0
M  CHG  1  20   1
M  END
$$$$
default_name
  -OEChem-01062215323D

 36 35  0     1  0  0  0  0  0999 V2000
   -4.2256   -3.6731    1.8584 H   0  0  0  0  0  0  0  0  0  0  0  0
   -4.2396   -2.6781    1.4144 C   0  0  0  0  0  0  0  0  0  0  0  0
   -4.9506   -2.0521    1.9514 H   0  0  0  0  0  0  0  0  0  0  0  0
   -4.5266   -2.7521    0.3674 H   0  0  0  0  0  0  0  0  0  0  0  0
   -2.8576   -2.0761    1.5184 C   0  0  0  0  0  0  0  0  0  0  0  0
   -1.9456   -2.7051    2.0404 O   0  0  0  0  0  0  0  0  0  0  0  0
   -2.6926   -0.8481    1.0174 N   0  0  0  0  0  0  0  0  0  0  0  0
   -3.4926   -0.3971    0.5954 H   0  0  0  0  0  0  0  0  0  0  0  0
   -1.4216   -0.1071    1.0434 C   0  0  1  0  0  0  0  0  0  0  0  0
   -1.2628    0.2680    2.0558 H   0  0  0  0  0  0  0  0  0  0  0  0
   -0.2808   -1.0827    0.6912 C   0  0  0  0  0  0  0  0  0  0  0  0
   -0.5226   -1.5754   -0.2527 H   0  0  0  0  0  0  0  0  0  0  0  0
    0.6427   -0.5165    0.5513 H   0  0  0  0  0  0  0  0  0  0  0  0
   -0.0518   -2.1655    1.7558 C   0  0  0  0  0  0  0  0  0  0  0  0
    0.2034   -1.6985    2.7081 H   0  0  0  0  0  0  0  0  0  0  0  0
   -0.9630   -2.7526    1.8751 H   0  0  0  0  0  0  0  0  0  0  0  0
    1.0967   -3.0877    1.3245 C   0  0  0  0  0  0  0  0  0  0  0  0
    0.8445   -3.5300    0.3580 H   0  0  0  0  0  0  0  0  0  0  0  0
    2.0018   -2.4863    1.2116 H   0  0  0  0  0  0  0  0  0  0  0  0
    1.3372   -4.1617    2.3102 N   0  3  0  0  0  0  0  0  0  0  0  0
    0.7765   -4.1427    3.1448 H   0  0  0  0  0  0  0  0  0  0  0  0
    2.2173   -5.1425    2.1983 C   0  0  0  0  0  0  0  0  0  0  0  0
    2.9944   -5.2612    1.1584 N   0  0  0  0  0  0  0  0  0  0  0  0
    2.9194   -4.5854    0.4187 H   0  0  0  0  0  0  0  0  0  0  0  0
    3.6572   -6.0113    1.0894 H   0  0  0  0  0  0  0  0  0  0  0  0
    2.3359   -6.0334    3.1414 N   0  0  0  0  0  0  0  0  0  0  0  0
    1.7581   -5.9838    3.9628 H   0  0  0  0  0  0  0  0  0  0  0  0
    3.0048   -6.7759    3.0525 H   0  0  0  0  0  0  0  0  0  0  0  0
   -1.4741    1.0805    0.0802 C   0  0  0  0  0  0  0  0  0  0  0  0
   -0.8468    2.1000    0.3418 O   0  0  0  0  0  0  0  0  0  0  0  0
   -2.2482    0.9540   -1.0021 N   0  0  0  0  0  0  0  0  0  0  0  0
   -2.6990    0.0672   -1.1579 H   0  0  0  0  0  0  0  0  0  0  0  0
   -2.4074    1.9929   -2.0210 C   0  0  0  0  0  0  0  0  0  0  0  0
   -1.4512    2.1737   -2.5166 H   0  0  0  0  0  0  0  0  0  0  0  0
   -3.1417    1.6848   -2.7664 H   0  0  0  0  0  0  0  0  0  0  0  0
   -2.7363    2.9248   -1.5560 H   0  0  0  0  0  0  0  0  0  0  0  0
  5  6  2  0  0  0  0
  5  7  1  0  0  0  0
  2  3  1  0  0  0  0
  2  4  1  0  0  0  0
  2  5  1  0  0  0  0
  1  2  1  0  0  0  0
 29 30  2  0  0  0  0
 29 31  1  0  0  0  0
 26 27  1  0  0  0  0
 26 28  1  0  0  0  0
 23 24  1  0  0  0  0
 23 25  1  0  0  0  0
 22 23  1  0  0  0  0
 22 26  1  0  0  0  0
 20 21  1  0  0  0  0
 20 22  2  0  0  0  0
 17 18  1  0  0  0  0
 17 19  1  0  0  0  0
 17 20  1  0  0  0  0
 14 15  1  0  0  0  0
 14 16  1  0  0  0  0
 14 17  1  0  0  0  0
 11 12  1  0  0  0  0
 11 13  1  0  0  0  0
 11 14  1  0  0  0  0
  9 10  1  0  0  0  0
  9 11  1  0  0  0  0
  9 29  1  0  0  0  0
  7  8  1  0  0  0  0
  7  9  1  0  0  0  0
 33 34  1  0  0  0  0
 33 35  1  0  0  0  0
 33 36  1  0  0  0  0
 31 32  1  0  0  0  0
 31 33  1  0  0  0  0
M  CHG  1  20   1
M  END
$$$$
default_name
  -OEChem-01062215323D

 36 35  0     1  0  0  0  0  0999 V2000
   -4.2256   -3.6731    1.8584 H   0  0  0  0  0  0  0  0  0  0  0  0
   -4.2396   -2.6781    1.4144 C   0  0  0  0  0  0  0  0  0  0  0  0
   -4.9506   -2.0521    1.9514 H   0  0  0  0  0  0  0  0  0  0  0  0
   -4.5266   -2.7521    0.3674 H   0  0  0  0  0  0  0  0  0  0  0  0
   -2.8576   -2.0761    1.5184 C   0  0  0  0  0  0  0  0  0  0  0  0
   -1.9456   -2.7051    2.0404 O   0  0  0  0  0  0  0  0  0  0  0  0
   -2.6926   -0.8481    1.0174 N   0  0  0  0  0  0  0  0  0  0  0  0
   -3.4926   -0.3971    0.5954 H   0  0  0  0  0  0  0  0  0  0  0  0
   -1.4216   -0.1071    1.0434 C   0  0  1  0  0  0  0  0  0  0  0  0
   -1.2628    0.2680    2.0558 H   0  0  0  0  0  0  0  0  0  0  0  0
   -0.2808   -1.0827    0.6912 C   0  0  0  0  0  0  0  0  0  0  0  0
   -0.5226   -1.5754   -0.2527 H   0  0  0  0  0  0  0  0  0  0  0  0
    0.6427   -0.5165    0.5513 H   0  0  0  0  0  0  0  0  0  0  0  0
   -0.0518   -2.1655    1.7558 C   0  0  0  0  0  0  0  0  0  0  0  0
    0.2034   -1.6985    2.7081 H   0  0  0  0  0  0  0  0  0  0  0  0
   -0.9630   -2.7526    1.8751 H   0  0  0  0  0  0  0  0  0  0  0  0
    1.0967   -3.0877    1.3245 C   0  0  0  0  0  0  0  0  0  0  0  0
    0.8445   -3.5300    0.3580 H   0  0  0  0  0  0  0  0  0  0  0  0
    2.0018   -2.4863    1.2116 H   0  0  0  0  0  0  0  0  0  0  0  0
    1.3372   -4.1617    2.3102 N   0  3  0  0  0  0  0  0  0  0  0  0
    0.7765   -4.1427    3.1448 H   0  0  0  0  0  0  0  0  0  0  0  0
    2.2173   -5.1425    2.1983 C   0  0  0  0  0  0  0  0  0  0  0  0
    2.9944   -5.2612    1.1584 N   0  0  0  0  0  0  0  0  0  0  0  0
    2.9194   -4.5854    0.4187 H   0  0  0  0  0  0  0  0  0  0  0  0
    3.6572   -6.0113    1.0894 H   0  0  0  0  0  0  0  0  0  0  0  0
    2.3359   -6.0334    3.1414 N   0  0  0  0  0  0  0  0  0  0  0  0
    1.7581   -5.9838    3.9628 H   0  0  0  0  0  0  0  0  0  0  0  0
    3.0048   -6.7759    3.0525 H   0  0  0  0  0  0  0  0  0  0  0  0
   -1.4741    1.0805    0.0802 C   0  0  0  0  0  0  0  0  0  0  0  0
   -0.6503    1.9813    0.1848 O   0  0  0  0  0  0  0  0  0  0  0  0
   -2.4606    1.0909   -0.8217 N   0  0  0  0  0  0  0  0  0  0  0  0
   -3.0711    0.2912   -0.8613 H   0  0  0  0  0  0  0  0  0  0  0  0
   -2.6515    2.1498   -1.8142 C   0  0  0  0  0  0  0  0  0  0  0  0
   -1.7985    2.1753   -2.4957 H   0  0  0  0  0  0  0  0  0  0  0  0
   -3.5610    1.9719   -2.3895 H   0  0  0  0  0  0  0  0  0  0  0  0
   -2.7244    3.1194   -1.3168 H   0  0  0  0  0  0  0  0  0  0  0  0
  5  6  2  0  0  0  0
  5  7  1  0  0  0  0
  2  3  1  0  0  0  0
  2  4  1  0  0  0  0
  2  5  1  0  0  0  0
  1  2  1  0  0  0  0
 29 30  2  0  0  0  0
 29 31  1  0  0  0  0
 26 27  1  0  0  0  0
 26 28  1  0  0  0  0
 23 24  1  0  0  0  0
 23 25  1  0  0  0  0
 22 23  1  0  0  0  0
 22 26  1  0  0  0  0
 20 21  1  0  0  0  0
 20 22  2  0  0  0  0
 17 18  1  0  0  0  0
 17 19  1  0  0  0  0
 17 20  1  0  0  0  0
 14 15  1  0  0  0  0
 14 16  1  0  0  0  0
 14 17  1  0  0  0  0
 11 12  1  0  0  0  0
 11 13  1  0  0  0  0
 11 14  1  0  0  0  0
  9 10  1  0  0  0  0
  9 11  1  0  0  0  0
  9 29  1  0  0  0  0
  7  8  1  0  0  0  0
  7  9  1  0  0  0  0
 33 34  1  0  0  0  0
 33 35  1  0  0  0  0
 33 36  1  0  0  0  0
 31 32  1  0  0  0  0
 31 33  1  0  0  0  0
M  CHG  1  20   1
M  END
$$$$
default_name
  -OEChem-01062215323D

 36 35  0     1  0  0  0  0  0999 V2000
   -4.2256   -3.6731    1.8584 H   0  0  0  0  0  0  0  0  0  0  0  0
   -4.2396   -2.6781    1.4144 C   0  0  0  0  0  0  0  0  0  0  0  0
   -4.9506   -2.0521    1.9514 H   0  0  0  0  0  0  0  0  0  0  0  0
   -4.5266   -2.7521    0.3674 H   0  0  0  0  0  0  0  0  0  0  0  0
   -2.8576   -2.0761    1.5184 C   0  0  0  0  0  0  0  0  0  0  0  0
   -1.9456   -2.7051    2.0404 O   0  0  0  0  0  0  0  0  0  0  0  0
   -2.6926   -0.8481    1.0174 N   0  0  0  0  0  0  0  0  0  0  0  0
   -3.4926   -0.3971    0.5954 H   0  0  0  0  0  0  0  0  0  0  0  0
   -1.4216   -0.1071    1.0434 C   0  0  1  0  0  0  0  0  0  0  0  0
   -1.2628    0.2680    2.0558 H   0  0  0  0  0  0  0  0  0  0  0  0
   -0.2808   -1.0827    0.6912 C   0  0  0  0  0  0  0  0  0  0  0  0
   -0.5226   -1.5754   -0.2527 H   0  0  0  0  0  0  0  0  0  0  0  0
    0.6427   -0.5165    0.5513 H   0  0  0  0  0  0  0  0  0  0  0  0
   -0.0518   -2.1655    1.7558 C   0  0  0  0  0  0  0  0  0  0  0  0
    0.2034   -1.6985    2.7081 H   0  0  0  0  0  0  0  0  0  0  0  0
   -0.9630   -2.7526    1.8751 H   0  0  0  0  0  0  0  0  0  0  0  0
    1.0967   -3.0877    1.3245 C   0  0  0  0  0  0  0  0  0  0  0  0
    0.8445   -3.5300    0.3580 H   0  0  0  0  0  0  0  0  0  0  0  0
    2.0018   -2.4863    1.2116 H   0  0  0  0  0  0  0  0  0  0  0  0
    1.3372   -4.1617    2.3102 N   0  3  0  0  0  0  0  0  0  0  0  0
    0.7765   -4.1427    3.1448 H   0  0  0  0  0  0  0  0  0  0  0  0
    2.2173   -5.1425    2.1983 C   0  0  0  0  0  0  0  0  0  0  0  0
    2.9944   -5.2612    1.1584 N   0  0  0  0  0  0  0  0  0  0  0  0
    2.9194   -4.5854    0.4187 H   0  0  0  0  0  0  0  0  0  0  0  0
    3.6572   -6.0113    1.0894 H   0  0  0  0  0  0  0  0  0  0  0  0
    2.3359   -6.0334    3.1414 N   0  0  0  0  0  0  0  0  0  0  0  0
    1.7581   -5.9838    3.9628 H   0  0  0  0  0  0  0  0  0  0  0  0
    3.0048   -6.7759    3.0525 H   0  0  0  0  0  0  0  0  0  0  0  0
   -1.4741    1.0805    0.0802 C   0  0  0  0  0  0  0  0  0  0  0  0
   -0.5113    1.8334   -0.0052 O   0  0  0  0  0  0  0  0  0  0  0  0
   -2.6072    1.2594   -0.6059 N   0  0  0  0  0  0  0  0  0  0  0  0
   -3.3345    0.5708   -0.5021 H   0  0  0  0  0  0  0  0  0  0  0  0
   -2.8202    2.3429   -1.5669 C   0  0  0  0  0  0  0  0  0  0  0  0
   -2.1295    2.2336   -2.4057 H   0  0  0  0  0  0  0  0  0  0  0  0
   -3.8436    2.3209   -1.9438 H   0  0  0  0  0  0  0  0  0  0  0  0
   -2.6332    3.3074   -1.0899 H   0  0  0  0  0  0  0  0  0  0  0  0
  5  6  2  0  0  0  0
  5  7  1  0  0  0  0
  2  3  1  0  0  0  0
  2  4  1  0  0  0  0
  2  5  1  0  0  0  0
  1  2  1  0  0  0  0
 29 30  2  0  0  0  0
 29 31  1  0  0  0  0
 26 27  1  0  0  0  0
 26 28  1  0  0  0  0
 23 24  1  0  0  0  0
 23 25  1  0  0  0  0
 22 23  1  0  0  0  0
 22 26  1  0  0  0  0
 20 21  1  0  0  0  0
 20 22  2  0  0  0  0
 17 18  1  0  0  0  0
 17 19  1  0  0  0  0
 17 20  1  0  0  0  0
 14 15  1  0  0  0  0
 14 16  1  0  0  0  0
 14 17  1  0  0  0  0
 11 12  1  0  0  0  0
 11 13  1  0  0  0  0
 11 14  1  0  0  0  0
  9 10  1  0  0  0  0
  9 11  1  0  0  0  0
  9 29  1  0  0  0  0
  7  8  1  0  0  0  0
  7  9  1  0  0  0  0
 33 34  1  0  0  0  0
 33 35  1  0  0  0  0
 33 36  1  0  0  0  0
 31 32  1  0  0  0  0
 31 33  1  0  0  0  0
M  CHG  1  20   1
M  END
$$$$
default_name
  -OEChem-01062215323D

 36 35  0     1  0  0  0  0  0999 V2000
   -4.2256   -3.6731    1.8584 H   0  0  0  0  0  0  0  0  0  0  0  0
   -4.2396   -2.6781    1.4144 C   0  0  0  0  0  0  0  0  0  0  0  0
   -4.9506   -2.0521    1.9514 H   0  0  0  0  0  0  0  0  0  0  0  0
   -4.5266   -2.7521    0.3674 H   0  0  0  0  0  0  0  0  0  0  0  0
   -2.8576   -2.0761    1.5184 C   0  0  0  0  0  0  0  0  0  0  0  0
   -1.9456   -2.7051    2.0404 O   0  0  0  0  0  0  0  0  0  0  0  0
   -2.6926   -0.8481    1.0174 N   0  0  0  0  0  0  0  0  0  0  0  0
   -3.4926   -0.3971    0.5954 H   0  0  0  0  0  0  0  0  0  0  0  0
   -1.4216   -0.1071    1.0434 C   0  0  1  0  0  0  0  0  0  0  0  0
   -1.2628    0.2680    2.0558 H   0  0  0  0  0  0  0  0  0  0  0  0
   -0.2808   -1.0827    0.6912 C   0  0  0  0  0  0  0  0  0  0  0  0
   -0.5226   -1.5754   -0.2527 H   0  0  0  0  0  0  0  0  0  0  0  0
    0.6427   -0.5165    0.5513 H   0  0  0  0  0  0  0  0  0  0  0  0
   -0.0518   -2.1655    1.7558 C   0  0  0  0  0  0  0  0  0  0  0  0
    0.2034   -1.6985    2.7081 H   0  0  0  0  0  0  0  0  0  0  0  0
   -0.9630   -2.7526    1.8751 H   0  0  0  0  0  0  0  0  0  0  0  0
    1.0967   -3.0877    1.3245 C   0  0  0  0  0  0  0  0  0  0  0  0
    0.8445   -3.5300    0.3580 H   0  0  0  0  0  0  0  0  0  0  0  0
    2.0018   -2.4863    1.2116 H   0  0  0  0  0  0  0  0  0  0  0  0
    1.3372   -4.1617    2.3102 N   0  3  0  0  0  0  0  0  0  0  0  0
    0.7765   -4.1427    3.1448 H   0  0  0  0  0  0  0  0  0  0  0  0
    2.2173   -5.1425    2.1983 C   0  0  0  0  0  0  0  0  0  0  0  0
    2.9944   -5.2612    1.1584 N   0  0  0  0  0  0  0  0  0  0  0  0
    2.9194   -4.5854    0.4187 H   0  0  0  0  0  0  0  0  0  0  0  0
    3.6572   -6.0113    1.0894 H   0  0  0  0  0  0  0  0  0  0  0  0
    2.3359   -6.0334    3.1414 N   0  0  0  0  0  0  0  0  0  0  0  0
    1.7581   -5.9838    3.9628 H   0  0  0  0  0  0  0  0  0  0  0  0
    3.0048   -6.7759    3.0525 H   0  0  0  0  0  0  0  0  0  0  0  0
   -1.4741    1.0805    0.0802 C   0  0  0  0  0  0  0  0  0  0  0  0
   -0.4393    1.6661   -0.2154 O   0  0  0  0  0  0  0  0  0  0  0  0
   -2.6780    1.4480   -0.3696 N   0  0  0  0  0  0  0  0  0  0  0  0
   -3.4712    0.8871   -0.1047 H   0  0  0  0  0  0  0  0  0  0  0  0
   -2.9020    2.5591   -1.2958 C   0  0  0  0  0  0  0  0  0  0  0  0
   -2.4217    2.3447   -2.2529 H   0  0  0  0  0  0  0  0  0  0  0  0
   -3.9701    2.7080   -1.4595 H   0  0  0  0  0  0  0  0  0  0  0  0
   -2.4689    3.4763   -0.8907 H   0  0  0  0  0  0  0  0  0  0  0  0
  5  6  2  0  0  0  0
  5  7  1  0  0  0  0
  2  3  1  0  0  0  0
  2  4  1  0  0  0  0
  2  5  1  0  0  0  0
  1  2  1  0  0  0  0
 29 30  2  0  0  0  0
 29 31  1  0  0  0  0
 26 27  1  0  0  0  0
 26 28  1  0  0  0  0
 23 24  1  0  0  0  0
 23 25  1  0  0  0  0
 22 23  1  0  0  0  0
 22 26  1  0  0  0  0
 20 21  1  0  0  0  0
 20 22  2  0  0  0  0
 17 18  1  0  0  0  0
 17 19  1  0  0  0  0
 17 20  1  0  0  0  0
 14 15  1  0  0  0  0
 14 16  1  0  0  0  0
 14 17  1  0  0  0  0
 11 12  1  0  0  0  0
 11 13  1  0  0  0  0
 11 14  1  0  0  0  0
  9 10  1  0  0  0  0
  9 11  1  0  0  0  0
  9 29  1  0  0  0  0
  7  8  1  0  0  0  0
  7  9  1  0  0  0  0
 33 34  1  0  0  0  0
 33 35  1  0  0  0  0
 33 36  1  0  0  0  0
 31 32  1  0  0  0  0
 31 33  1  0  0  0  0
M  CHG  1  20   1
M  END
$$$$
default_name
  -OEChem-01062215323D

 36 35  0     1  0  0  0  0  0999 V2000
   -4.2256   -3.6731    1.8584 H   0  0  0  0  0  0  0  0  0  0  0  0
   -4.2396   -2.6781    1.4144 C   0  0  0  0  0  0  0  0  0  0  0  0
   -4.9506   -2.0521    1.9514 H   0  0  0  0  0  0  0  0  0  0  0  0
   -4.5266   -2.7521    0.3674 H   0  0  0  0  0  0  0  0  0  0  0  0
   -2.8576   -2.0761    1.5184 C   0  0  0  0  0  0  0  0  0  0  0  0
   -1.9456   -2.7051    2.0404 O   0  0  0  0  0  0  0  0  0  0  0  0
   -2.6926   -0.8481    1.0174 N   0  0  0  0  0  0  0  0  0  0  0  0
   -3.4926   -0.3971    0.5954 H   0  0  0  0  0  0  0  0  0  0  0  0
   -1.4216   -0.1071    1.0434 C   0  0  1  0  0  0  0  0  0  0  0  0
   -1.2628    0.2680    2.0558 H   0  0  0  0  0  0  0  0  0  0  0  0
   -0.2808   -1.0827    0.6912 C   0  0  0  0  0  0  0  0  0  0  0  0
   -0.5226   -1.5754   -0.2527 H   0  0  0  0  0  0  0  0  0  0  0  0
    0.6427   -0.5165    0.5513 H   0  0  0  0  0  0  0  0  0  0  0  0
   -0.0518   -2.1655    1.7558 C   0  0  0  0  0  0  0  0  0  0  0  0
    0.2034   -1.6985    2.7081 H   0  0  0  0  0  0  0  0  0  0  0  0
   -0.9630   -2.7526    1.8751 H   0  0  0  0  0  0  0  0  0  0  0  0
    1.0967   -3.0877    1.3245 C   0  0  0  0  0  0  0  0  0  0  0  0
    0.8445   -3.5300    0.3580 H   0  0  0  0  0  0  0  0  0  0  0  0
    2.0018   -2.4863    1.2116 H   0  0  0  0  0  0  0  0  0  0  0  0
    1.3372   -4.1617    2.3102 N   0  3  0  0  0  0  0  0  0  0  0  0
    0.7765   -4.1427    3.1448 H   0  0  0  0  0  0  0  0  0  0  0  0
    2.2173   -5.1425    2.1983 C   0  0  0  0  0  0  0  0  0  0  0  0
    2.9944   -5.2612    1.1584 N   0  0  0  0  0  0  0  0  0  0  0  0
    2.9194   -4.5854    0.4187 H   0  0  0  0  0  0  0  0  0  0  0  0
    3.6572   -6.0113    1.0894 H   0  0  0  0  0  0  0  0  0  0  0  0
    2.3359   -6.0334    3.1414 N   0  0  0  0  0  0  0  0  0  0  0  0
    1.7581   -5.9838    3.9628 H   0  0  0  0  0  0  0  0  0  0  0  0
    3.0048   -6.7759    3.0525 H   0  0  0  0  0  0  0  0  0  0  0  0
   -1.4741    1.0805    0.0802 C   0  0  0  0  0  0  0  0  0  0  0  0
   -0.4393    1.4909   -0.4314 O   0  0  0  0  0  0  0  0  0  0  0  0
   -2.6682    1.6437   -0.1287 N   0  0  0  0  0  0  0  0  0  0  0  0
   -3.4719    1.2183    0.3038 H   0  0  0  0  0  0  0  0  0  0  0  0
   -2.8913    2.7837   -1.0195 C   0  0  0  0  0  0  0  0  0  0  0  0
   -2.6550    2.5009   -2.0475 H   0  0  0  0  0  0  0  0  0  0  0  0
   -3.9319    3.1069   -0.9698 H   0  0  0  0  0  0  0  0  0  0  0  0
   -2.2426    3.6143   -0.7327 H   0  0  0  0  0  0  0  0  0  0  0  0
  5  6  2  0  0  0  0
  5  7  1  0  0  0  0
  2  3  1  0  0  0  0
  2  4  1  0  0  0  0
  2  5  1  0  0  0  0
  1  2  1  0  0  0  0
 29 30  2  0  0  0  0
 29 31  1  0  0  0  0
 26 27  1  0  0  0  0
 26 28  1  0  0  0  0
 23 24  1  0  0  0  0
 23 25  1  0  0  0  0
 22 23  1  0  0  0  0
 22 26  1  0  0  0  0
 20 21  1  0  0  0  0
 20 22  2  0  0  0  0
 17 18  1  0  0  0  0
 17 19  1  0  0  0  0
 17 20  1  0  0  0  0
 14 15  1  0  0  0  0
 14 16  1  0  0  0  0
 14 17  1  0  0  0  0
 11 12  1  0  0  0  0
 11 13  1  0  0  0  0
 11 14  1  0  0  0  0
  9 10  1  0  0  0  0
  9 11  1  0  0  0  0
  9 29  1  0  0  0  0
  7  8  1  0  0  0  0
  7  9  1  0  0  0  0
 33 34  1  0  0  0  0
 33 35  1  0  0  0  0
 33 36  1  0  0  0  0
 31 32  1  0  0  0  0
 31 33  1  0  0  0  0
M  CHG  1  20   1
M  END
$$$$
default_name
  -OEChem-01062215323D

 36 35  0     1  0  0  0  0  0999 V2000
   -4.2256   -3.6731    1.8584 H   0  0  0  0  0  0  0  0  0  0  0  0
   -4.2396   -2.6781    1.4144 C   0  0  0  0  0  0  0  0  0  0  0  0
   -4.9506   -2.0521    1.9514 H   0  0  0  0  0  0  0  0  0  0  0  0
   -4.5266   -2.7521    0.3674 H   0  0  0  0  0  0  0  0  0  0  0  0
   -2.8576   -2.0761    1.5184 C   0  0  0  0  0  0  0  0  0  0  0  0
   -1.9456   -2.7051    2.0404 O   0  0  0  0  0  0  0  0  0  0  0  0
   -2.6926   -0.8481    1.0174 N   0  0  0  0  0  0  0  0  0  0  0  0
   -3.4926   -0.3971    0.5954 H   0  0  0  0  0  0  0  0  0  0  0  0
   -1.4216   -0.1071    1.0434 C   0  0  1  0  0  0  0  0  0  0  0  0
   -1.2628    0.2680    2.0558 H   0  0  0  0  0  0  0  0  0  0  0  0
   -0.2808   -1.0827    0.6912 C   0  0  0  0  0  0  0  0  0  0  0  0
   -0.5226   -1.5754   -0.2527 H   0  0  0  0  0  0  0  0  0  0  0  0
    0.6427   -0.5165    0.5513 H   0  0  0  0  0  0  0  0  0  0  0  0
   -0.0518   -2.1655    1.7558 C   0  0  0  0  0  0  0  0  0  0  0  0
    0.2034   -1.6985    2.7081 H   0  0  0  0  0  0  0  0  0  0  0  0
   -0.9630   -2.7526    1.8751 H   0  0  0  0  0  0  0  0  0  0  0  0
    1.0967   -3.0877    1.3245 C   0  0  0  0  0  0  0  0  0  0  0  0
    0.8445   -3.5300    0.3580 H   0  0  0  0  0  0  0  0  0  0  0  0
    2.0018   -2.4863    1.2116 H   0  0  0  0  0  0  0  0  0  0  0  0
    1.3372   -4.1617    2.3102 N   0  3  0  0  0  0  0  0  0  0  0  0
    0.7765   -4.1427    3.1448 H   0  0  0  0  0  0  0  0  0  0  0  0
    2.2173   -5.1425    2.1983 C   0  0  0  0  0  0  0  0  0  0  0  0
    2.9944   -5.2612    1.1584 N   0  0  0  0  0  0  0  0  0  0  0  0
    2.9194   -4.5854    0.4187 H   0  0  0  0  0  0  0  0  0  0  0  0
    3.6572   -6.0113    1.0894 H   0  0  0  0  0  0  0  0  0  0  0  0
    2.3359   -6.0334    3.1414 N   0  0  0  0  0  0  0  0  0  0  0  0
    1.7581   -5.9838    3.9628 H   0  0  0  0  0  0  0  0  0  0  0  0
    3.0048   -6.7759    3.0525 H   0  0  0  0  0  0  0  0  0  0  0  0
   -1.4741    1.0805    0.0802 C   0  0  0  0  0  0  0  0  0  0  0  0
   -0.5112    1.3198   -0.6385 O   0  0  0  0  0  0  0  0  0  0  0  0
   -2.5785    1.8334    0.1002 N   0  0  0  0  0  0  0  0  0  0  0  0
   -3.3365    1.5421    0.6955 H   0  0  0  0  0  0  0  0  0  0  0  0
   -2.7888    3.0014   -0.7567 C   0  0  0  0  0  0  0  0  0  0  0  0
   -2.8137    2.6917   -1.8036 H   0  0  0  0  0  0  0  0  0  0  0  0
   -3.7317    3.4903   -0.5080 H   0  0  0  0  0  0  0  0  0  0  0  0
   -1.9699    3.7123   -0.6269 H   0  0  0  0  0  0  0  0  0  0  0  0
  5  6  2  0  0  0  0
  5  7  1  0  0  0  0
  2  3  1  0  0  0  0
  2  4  1  0  0  0  0
  2  5  1  0  0  0  0
  1  2  1  0  0  0  0
 29 30  2  0  0  0  0
 29 31  1  0  0  0  0
 26 27  1  0  0  0  0
 26 28  1  0  0  0  0
 23 24  1  0  0  0  0
 23 25  1  0  0  0  0
 22 23  1  0  0  0  0
 22 26  1  0  0  0  0
 20 21  1  0  0  0  0
 20 22  2  0  0  0  0
 17 18  1  0  0  0  0
 17 19  1  0  0  0  0
 17 20  1  0  0  0  0
 14 15  1  0  0  0  0
 14 16  1  0  0  0  0
 14 17  1  0  0  0  0
 11 12  1  0  0  0  0
 11 13  1  0  0  0  0
 11 14  1  0  0  0  0
  9 10  1  0  0  0  0
  9 11  1  0  0  0  0
  9 29  1  0  0  0  0
  7  8  1  0  0  0  0
  7  9  1  0  0  0  0
 33 34  1  0  0  0  0
 33 35  1  0  0  0  0
 33 36  1  0  0  0  0
 31 32  1  0  0  0  0
 31 33  1  0  0  0  0
M  CHG  1  20   1
M  END
$$$$
default_name
  -OEChem-01062215323D

 36 35  0     1  0  0  0  0  0999 V2000
   -4.2256   -3.6731    1.8584 H   0  0  0  0  0  0  0  0  0  0  0  0
   -4.2396   -2.6781    1.4144 C   0  0  0  0  0  0  0  0  0  0  0  0
   -4.9506   -2.0521    1.9514 H   0  0  0  0  0  0  0  0  0  0  0  0
   -4.5266   -2.7521    0.3674 H   0  0  0  0  0  0  0  0  0  0  0  0
   -2.8576   -2.0761    1.5184 C   0  0  0  0  0  0  0  0  0  0  0  0
   -1.9456   -2.7051    2.0404 O   0  0  0  0  0  0  0  0  0  0  0  0
   -2.6926   -0.8481    1.0174 N   0  0  0  0  0  0  0  0  0  0  0  0
   -3.4926   -0.3971    0.5954 H   0  0  0  0  0  0  0  0  0  0  0  0
   -1.4216   -0.1071    1.0434 C   0  0  1  0  0  0  0  0  0  0  0  0
   -1.2628    0.2680    2.0558 H   0  0  0  0  0  0  0  0  0  0  0  0
   -0.2808   -1.0827    0.6912 C   0  0  0  0  0  0  0  0  0  0  0  0
   -0.5226   -1.5754   -0.2527 H   0  0  0  0  0  0  0  0  0  0  0  0
    0.6427   -0.5165    0.5513 H   0  0  0  0  0  0  0  0  0  0  0  0
   -0.0518   -2.1655    1.7558 C   0  0  0  0  0  0  0  0  0  0  0  0
    0.2034   -1.6985    2.7081 H   0  0  0  0  0  0  0  0  0  0  0  0
   -0.9630   -2.7526    1.8751 H   0  0  0  0  0  0  0  0  0  0  0  0
    1.0967   -3.0877    1.3245 C   0  0  0  0  0  0  0  0  0  0  0  0
    0.8445   -3.5300    0.3580 H   0  0  0  0  0  0  0  0  0  0  0  0
    2.0018   -2.4863    1.2116 H   0  0  0  0  0  0  0  0  0  0  0  0
    1.3372   -4.1617    2.3102 N   0  3  0  0  0  0  0  0  0  0  0  0
    0.7765   -4.1427    3.1448 H   0  0  0  0  0  0  0  0  0  0  0  0
    2.2173   -5.1425    2.1983 C   0  0  0  0  0  0  0  0  0  0  0  0
    2.9944   -5.2612    1.1584 N   0  0  0  0  0  0  0  0  0  0  0  0
    2.9194   -4.5854    0.4187 H   0  0  0  0  0  0  0  0  0  0  0  0
    3.6572   -6.0113    1.0894 H   0  0  0  0  0  0  0  0  0  0  0  0
    2.3359   -6.0334    3.1414 N   0  0  0  0  0  0  0  0  0  0  0  0
    1.7581   -5.9838    3.9628 H   0  0  0  0  0  0  0  0  0  0  0  0
    3.0048   -6.7759    3.0525 H   0  0  0  0  0  0  0  0  0  0  0  0
   -1.4741    1.0805    0.0802 C   0  0  0  0  0  0  0  0  0  0  0  0
   -0.6501    1.1643   -0.8226 O   0  0  0  0  0  0  0  0  0  0  0  0
   -2.4149    2.0039    0.3016 N   0  0  0  0  0  0  0  0  0  0  0  0
   -3.0743    1.8362    1.0439 H   0  0  0  0  0  0  0  0  0  0  0  0
   -2.6016    3.1973   -0.5253 C   0  0  0  0  0  0  0  0  0  0  0  0
   -2.8870    2.9039   -1.5379 H   0  0  0  0  0  0  0  0  0  0  0  0
   -3.3830    3.8321   -0.1056 H   0  0  0  0  0  0  0  0  0  0  0  0
   -1.6692    3.7633   -0.5803 H   0  0  0  0  0  0  0  0  0  0  0  0
  5  6  2  0  0  0  0
  5  7  1  0  0  0  0
  2  3  1  0  0  0  0
  2  4  1  0  0  0  0
  2  5  1  0  0  0  0
  1  2  1  0  0  0  0
 29 30  2  0  0  0  0
 29 31  1  0  0  0  0
 26 27  1  0  0  0  0
 26 28  1  0  0  0  0
 23 24  1  0  0  0  0
 23 25  1  0  0  0  0
 22 23  1  0  0  0  0
 22 26  1  0  0  0  0
 20 21  1  0  0  0  0
 20 22  2  0  0  0  0
 17 18  1  0  0  0  0
 17 19  1  0  0  0  0
 17 20  1  0  0  0  0
 14 15  1  0  0  0  0
 14 16  1  0  0  0  0
 14 17  1  0  0  0  0
 11 12  1  0  0  0  0
 11 13  1  0  0  0  0
 11 14  1  0  0  0  0
  9 10  1  0  0  0  0
  9 11  1  0  0  0  0
  9 29  1  0  0  0  0
  7  8  1  0  0  0  0
  7  9  1  0  0  0  0
 33 34  1  0  0  0  0
 33 35  1  0  0  0  0
 33 36  1  0  0  0  0
 31 32  1  0  0  0  0
 31 33  1  0  0  0  0
M  CHG  1  20   1
M  END
$$$$
default_name
  -OEChem-01062215323D

 36 35  0     1  0  0  0  0  0999 V2000
   -4.2256   -3.6731    1.8584 H   0  0  0  0  0  0  0  0  0  0  0  0
   -4.2396   -2.6781    1.4144 C   0  0  0  0  0  0  0  0  0  0  0  0
   -4.9506   -2.0521    1.9514 H   0  0  0  0  0  0  0  0  0  0  0  0
   -4.5266   -2.7521    0.3674 H   0  0  0  0  0  0  0  0  0  0  0  0
   -2.8576   -2.0761    1.5184 C   0  0  0  0  0  0  0  0  0  0  0  0
   -1.9456   -2.7051    2.0404 O   0  0  0  0  0  0  0  0  0  0  0  0
   -2.6926   -0.8481    1.0174 N   0  0  0  0  0  0  0  0  0  0  0  0
   -3.4926   -0.3971    0.5954 H   0  0  0  0  0  0  0  0  0  0  0  0
   -1.4216   -0.1071    1.0434 C   0  0  1  0  0  0  0  0  0  0  0  0
   -1.2628    0.2680    2.0558 H   0  0  0  0  0  0  0  0  0  0  0  0
   -0.2808   -1.0827    0.6912 C   0  0  0  0  0  0  0  0  0  0  0  0
   -0.5226   -1.5754   -0.2527 H   0  0  0  0  0  0  0  0  0  0  0  0
    0.6427   -0.5165    0.5513 H   0  0  0  0  0  0  0  0  0  0  0  0
   -0.0518   -2.1655    1.7558 C   0  0  0  0  0  0  0  0  0  0  0  0
    0.2034   -1.6985    2.7081 H   0  0  0  0  0  0  0  0  0  0  0  0
   -0.9630   -2.7526    1.8751 H   0  0  0  0  0  0  0  0  0  0  0  0
    1.0967   -3.0877    1.3245 C   0  0  0  0  0  0  0  0  0  0  0  0
    0.8445   -3.5300    0.3580 H   0  0  0  0  0  0  0  0  0  0  0  0
    2.0018   -2.4863    1.2116 H   0  0  0  0  0  0  0  0  0  0  0  0
    1.3372   -4.1617    2.3102 N   0  3  0  0  0  0  0  0  0  0  0  0
    0.7765   -4.1427    3.1448 H   0  0  0  0  0  0  0  0  0  0  0  0
    2.2173   -5.1425    2.1983 C   0  0  0  0  0  0  0  0  0  0  0  0
    2.9944   -5.2612    1.1584 N   0  0  0  0  0  0  0  0  0  0  0  0
    2.9194   -4.5854    0.4187 H   0  0  0  0  0  0  0  0  0  0  0  0
    3.6572   -6.0113    1.0894 H   0  0  0  0  0  0  0  0  0  0  0  0
    2.3359   -6.0334    3.1414 N   0  0  0  0  0  0  0  0  0  0  0  0
    1.7581   -5.9838    3.9628 H   0  0  0  0  0  0  0  0  0  0  0  0
    3.0048   -6.7759    3.0525 H   0  0  0  0  0  0  0  0  0  0  0  0
   -1.4741    1.0805    0.0802 C   0  0  0  0  0  0  0  0  0  0  0  0
   -0.8466    1.0352   -0.9711 O   0  0  0  0  0  0  0  0  0  0  0  0
   -2.1886    2.1439    0.4618 N   0  0  0  0  0  0  0  0  0  0  0  0
   -2.7031    2.0806    1.3250 H   0  0  0  0  0  0  0  0  0  0  0  0
   -2.3424    3.3580   -0.3413 C   0  0  0  0  0  0  0  0  0  0  0  0
   -2.8697    3.1233   -1.2683 H   0  0  0  0  0  0  0  0  0  0  0  0
   -2.9097    4.1090    0.2101 H   0  0  0  0  0  0  0  0  0  0  0  0
   -1.3611    3.7641   -0.5962 H   0  0  0  0  0  0  0  0  0  0  0  0
  5  6  2  0  0  0  0
  5  7  1  0  0  0  0
  2  3  1  0  0  0  0
  2  4  1  0  0  0  0
  2  5  1  0  0  0  0
  1  2  1  0  0  0  0
 29 30  2  0  0  0  0
 29 31  1  0  0  0  0
 26 27  1  0  0  0  0
 26 28  1  0  0  0  0
 23 24  1  0  0  0  0
 23 25  1  0  0  0  0
 22 23  1  0  0  0  0
 22 26  1  0  0  0  0
 20 21  1  0  0  0  0
 20 22  2  0  0  0  0
 17 18  1  0  0  0  0
 17 19  1  0  0  0  0
 17 20  1  0  0  0  0
 14 15  1  0  0  0  0
 14 16  1  0  0  0  0
 14 17  1  0  0  0  0
 11 12  1  0  0  0  0
 11 13  1  0  0  0  0
 11 14  1  0  0  0  0
  9 10  1  0  0  0  0
  9 11  1  0  0  0  0
  9 29  1  0  0  0  0
  7  8  1  0  0  0  0
  7  9  1  0  0  0  0
 33 34  1  0  0  0  0
 33 35  1  0  0  0  0
 33 36  1  0  0  0  0
 31 32  1  0  0  0  0
 31 33  1  0  0  0  0
M  CHG  1  20   1
M  END
$$$$
default_name
  -OEChem-01062215323D

 36 35  0     1  0  0  0  0  0999 V2000
   -4.2256   -3.6731    1.8584 H   0  0  0  0  0  0  0  0  0  0  0  0
   -4.2396   -2.6781    1.4144 C   0  0  0  0  0  0  0  0  0  0  0  0
   -4.9506   -2.0521    1.9514 H   0  0  0  0  0  0  0  0  0  0  0  0
   -4.5266   -2.7521    0.3674 H   0  0  0  0  0  0  0  0  0  0  0  0
   -2.8576   -2.0761    1.5184 C   0  0  0  0  0  0  0  0  0  0  0  0
   -1.9456   -2.7051    2.0404 O   0  0  0  0  0  0  0  0  0  0  0  0
   -2.6926   -0.8481    1.0174 N   0  0  0  0  0  0  0  0  0  0  0  0
   -3.4926   -0.3971    0.5954 H   0  0  0  0  0  0  0  0  0  0  0  0
   -1.4216   -0.1071    1.0434 C   0  0  1  0  0  0  0  0  0  0  0  0
   -1.2628    0.2680    2.0558 H   0  0  0  0  0  0  0  0  0  0  0  0
   -0.2808   -1.0827    0.6912 C   0  0  0  0  0  0  0  0  0  0  0  0
   -0.5226   -1.5754   -0.2527 H   0  0  0  0  0  0  0  0  0  0  0  0
    0.6427   -0.5165    0.5513 H   0  0  0  0  0  0  0  0  0  0  0  0
   -0.0518   -2.1655    1.7558 C   0  0  0  0  0  0  0  0  0  0  0  0
    0.2034   -1.6985    2.7081 H   0  0  0  0  0  0  0  0  0  0  0  0
   -0.9630   -2.7526    1.8751 H   0  0  0  0  0  0  0  0  0  0  0  0
    1.0967   -3.0877    1.3245 C   0  0  0  0  0  0  0  0  0  0  0  0
    0.8445   -3.5300    0.3580 H   0  0  0  0  0  0  0  0  0  0  0  0
    2.0018   -2.4863    1.2116 H   0  0  0  0  0  0  0  0  0  0  0  0
    1.3372   -4.1617    2.3102 N   0  3  0  0  0  0  0  0  0  0  0  0
    0.7765   -4.1427    3.1448 H   0  0  0  0  0  0  0  0  0  0  0  0
    2.2173   -5.1425    2.1983 C   0  0  0  0  0  0  0  0  0  0  0  0
    2.9944   -5.2612    1.1584 N   0  0  0  0  0  0  0  0  0  0  0  0
    2.9194   -4.5854    0.4187 H   0  0  0  0  0  0  0  0  0  0  0  0
    3.6572   -6.0113    1.0894 H   0  0  0  0  0  0  0  0  0  0  0  0
    2.3359   -6.0334    3.1414 N   0  0  0  0  0  0  0  0  0  0  0  0
    1.7581   -5.9838    3.9628 H   0  0  0  0  0  0  0  0  0  0  0  0
    3.0048   -6.7759    3.0525 H   0  0  0  0  0  0  0  0  0  0  0  0
   -1.4741    1.0805    0.0802 C   0  0  0  0  0  0  0  0  0  0  0  0
   -1.0873    0.9412   -1.0739 O   0  0  0  0  0  0  0  0  0  0  0  0
   -1.9150    2.2436    0.5698 N   0  0  0  0  0  0  0  0  0  0  0  0
   -2.2482    2.2588    1.5199 H   0  0  0  0  0  0  0  0  0  0  0  0
   -2.0288    3.4727   -0.2169 C   0  0  0  0  0  0  0  0  0  0  0  0
   -2.7632    3.3347   -1.0134 H   0  0  0  0  0  0  0  0  0  0  0  0
   -2.3440    4.3022    0.4174 H   0  0  0  0  0  0  0  0  0  0  0  0
   -1.0665    3.7145   -0.6735 H   0  0  0  0  0  0  0  0  0  0  0  0
  5  6  2  0  0  0  0
  5  7  1  0  0  0  0
  2  3  1  0  0  0  0
  2  4  1  0  0  0  0
  2  5  1  0  0  0  0
  1  2  1  0  0  0  0
 29 30  2  0  0  0  0
 29 31  1  0  0  0  0
 26 27  1  0  0  0  0
 26 28  1  0  0  0  0
 23 24  1  0  0  0  0
 23 25  1  0  0  0  0
 22 23  1  0  0  0  0
 22 26  1  0  0  0  0
 20 21  1  0  0  0  0
 20 22  2  0  0  0  0
 17 18  1  0  0  0  0
 17 19  1  0  0  0  0
 17 20  1  0  0  0  0
 14 15  1  0  0  0  0
 14 16  1  0  0  0  0
 14 17  1  0  0  0  0
 11 12  1  0  0  0  0
 11 13  1  0  0  0  0
 11 14  1  0  0  0  0
  9 10  1  0  0  0  0
  9 11  1  0  0  0  0
  9 29  1  0  0  0  0
  7  8  1  0  0  0  0
  7  9  1  0  0  0  0
 33 34  1  0  0  0  0
 33 35  1  0  0  0  0
 33 36  1  0  0  0  0
 31 32  1  0  0  0  0
 31 33  1  0  0  0  0
M  CHG  1  20   1
M  END
$$$$
default_name
  -OEChem-01062215323D

 36 35  0     1  0  0  0  0  0999 V2000
   -4.2256   -3.6731    1.8584 H   0  0  0  0  0  0  0  0  0  0  0  0
   -4.2396   -2.6781    1.4144 C   0  0  0  0  0  0  0  0  0  0  0  0
   -4.9506   -2.0521    1.9514 H   0  0  0  0  0  0  0  0  0  0  0  0
   -4.5266   -2.7521    0.3674 H   0  0  0  0  0  0  0  0  0  0  0  0
   -2.8576   -2.0761    1.5184 C   0  0  0  0  0  0  0  0  0  0  0  0
   -1.9456   -2.7051    2.0404 O   0  0  0  0  0  0  0  0  0  0  0  0
   -2.6926   -0.8481    1.0174 N   0  0  0  0  0  0  0  0  0  0  0  0
   -3.4926   -0.3971    0.5954 H   0  0  0  0  0  0  0  0  0  0  0  0
   -1.4216   -0.1071    1.0434 C   0  0  1  0  0  0  0  0  0  0  0  0
   -1.2628    0.2680    2.0558 H   0  0  0  0  0  0  0  0  0  0  0  0
   -0.2808   -1.0827    0.6912 C   0  0  0  0  0  0  0  0  0  0  0  0
   -0.5226   -1.5754   -0.2527 H   0  0  0  0  0  0  0  0  0  0  0  0
    0.6427   -0.5165    0.5513 H   0  0  0  0  0  0  0  0  0  0  0  0
   -0.0518   -2.1655    1.7558 C   0  0  0  0  0  0  0  0  0  0  0  0
    0.2034   -1.6985    2.7081 H   0  0  0  0  0  0  0  0  0  0  0  0
   -0.9630   -2.7526    1.8751 H   0  0  0  0  0  0  0  0  0  0  0  0
    1.0967   -3.0877    1.3245 C   0  0  0  0  0  0  0  0  0  0  0  0
    0.8445   -3.5300    0.3580 H   0  0  0  0  0  0  0  0  0  0  0  0
    2.0018   -2.4863    1.2116 H   0  0  0  0  0  0  0  0  0  0  0  0
    1.3372   -4.1617    2.3102 N   0  3  0  0  0  0  0  0  0  0  0  0
    0.7765   -4.1427    3.1448 H   0  0  0  0  0  0  0  0  0  0  0  0
    2.2173   -5.1425    2.1983 C   0  0  0  0  0  0  0  0  0  0  0  0
    2.9944   -5.2612    1.1584 N   0  0  0  0  0  0  0  0  0  0  0  0
    2.9194   -4.5854    0.4187 H   0  0  0  0  0  0  0  0  0  0  0  0
    3.6572   -6.0113    1.0894 H   0  0  0  0  0  0  0  0  0  0  0  0
    2.3359   -6.0334    3.1414 N   0  0  0  0  0  0  0  0  0  0  0  0
    1.7581   -5.9838    3.9628 H   0  0  0  0  0  0  0  0  0  0  0  0
    3.0048   -6.7759    3.0525 H   0  0  0  0  0  0  0  0  0  0  0  0
   -1.4741    1.0805    0.0802 C   0  0  0  0  0  0  0  0  0  0  0  0
   -1.3558    0.8886   -1.1240 O   0  0  0  0  0  0  0  0  0  0  0  0
   -1.6129    2.2962    0.6183 N   0  0  0  0  0  0  0  0  0  0  0  0
   -1.7407    2.3585    1.6151 H   0  0  0  0  0  0  0  0  0  0  0  0
   -1.6823    3.5335   -0.1609 C   0  0  0  0  0  0  0  0  0  0  0  0
   -2.5746    3.5239   -0.7905 H   0  0  0  0  0  0  0  0  0  0  0  0
   -1.7244    4.3985    0.5023 H   0  0  0  0  0  0  0  0  0  0  0  0
   -0.8056    3.6179   -0.8068 H   0  0  0  0  0  0  0  0  0  0  0  0
  5  6  2  0  0  0  0
  5  7  1  0  0  0  0
  2  3  1  0  0  0  0
  2  4  1  0  0  0  0
  2  5  1  0  0  0  0
  1  2  1  0  0  0  0
 29 30  2  0  0  0  0
 29 31  1  0  0  0  0
 26 27  1  0  0  0  0
 26 28  1  0  0  0  0
 23 24  1  0  0  0  0
 23 25  1  0  0  0  0
 22 23  1  0  0  0  0
 22 26  1  0  0  0  0
 20 21  1  0  0  0  0
 20 22  2  0  0  0  0
 17 18  1  0  0  0  0
 17 19  1  0  0  0  0
 17 20  1  0  0  0  0
 14 15  1  0  0  0  0
 14 16  1  0  0  0  0
 14 17  1  0  0  0  0
 11 12  1  0  0  0  0
 11 13  1  0  0  0  0
 11 14  1  0  0  0  0
  9 10  1  0  0  0  0
  9 11  1  0  0  0  0
  9 29  1  0  0  0  0
  7  8  1  0  0  0  0
  7  9  1  0  0  0  0
 33 34  1  0  0  0  0
 33 35  1  0  0  0  0
 33 36  1  0  0  0  0
 31 32  1  0  0  0  0
 31 33  1  0  0  0  0
M  CHG  1  20   1
M  END
$$$$
default_name
  -OEChem-01062215323D

 36 35  0     1  0  0  0  0  0999 V2000
   -4.2256   -3.6731    1.8584 H   0  0  0  0  0  0  0  0  0  0  0  0
   -4.2396   -2.6781    1.4144 C   0  0  0  0  0  0  0  0  0  0  0  0
   -4.9506   -2.0521    1.9514 H   0  0  0  0  0  0  0  0  0  0  0  0
   -4.5266   -2.7521    0.3674 H   0  0  0  0  0  0  0  0  0  0  0  0
   -2.8576   -2.0761    1.5184 C   0  0  0  0  0  0  0  0  0  0  0  0
   -1.9456   -2.7051    2.0404 O   0  0  0  0  0  0  0  0  0  0  0  0
   -2.6926   -0.8481    1.0174 N   0  0  0  0  0  0  0  0  0  0  0  0
   -3.4926   -0.3971    0.5954 H   0  0  0  0  0  0  0  0  0  0  0  0
   -1.4216   -0.1071    1.0434 C   0  0  1  0  0  0  0  0  0  0  0  0
   -1.2628    0.2680    2.0558 H   0  0  0  0  0  0  0  0  0  0  0  0
   -0.2808   -1.0827    0.6912 C   0  0  0  0  0  0  0  0  0  0  0  0
   -0.5226   -1.5754   -0.2527 H   0  0  0  0  0  0  0  0  0  0  0  0
    0.6427   -0.5165    0.5513 H   0  0  0  0  0  0  0  0  0  0  0  0
   -0.0518   -2.1655    1.7558 C   0  0  0  0  0  0  0  0  0  0  0  0
    0.2034   -1.6985    2.7081 H   0  0  0  0  0  0  0  0  0  0  0  0
   -0.9630   -2.7526    1.8751 H   0  0  0  0  0  0  0  0  0  0  0  0
    1.0967   -3.0877    1.3245 C   0  0  0  0  0  0  0  0  0  0  0  0
    0.8445   -3.5300    0.3580 H   0  0  0  0  0  0  0  0  0  0  0  0
    2.0018   -2.4863    1.2116 H   0  0  0  0  0  0  0  0  0  0  0  0
    1.3372   -4.1617    2.3102 N   0  3  0  0  0  0  0  0  0  0  0  0
    0.7765   -4.1427    3.1448 H   0  0  0  0  0  0  0  0  0  0  0  0
    2.2173   -5.1425    2.1983 C   0  0  0  0  0  0  0  0  0  0  0  0
    2.9944   -5.2612    1.1584 N   0  0  0  0  0  0  0  0  0  0  0  0
    2.9194   -4.5854    0.4187 H   0  0  0  0  0  0  0  0  0  0  0  0
    3.6572   -6.0113    1.0894 H   0  0  0  0  0  0  0  0  0  0  0  0
    2.3359   -6.0334    3.1414 N   0  0  0  0  0  0  0  0  0  0  0  0
    1.7581   -5.9838    3.9628 H   0  0  0  0  0  0  0  0  0  0  0  0
    3.0048   -6.7759    3.0525 H   0  0  0  0  0  0  0  0  0  0  0  0
   -1.4741    1.0805    0.0802 C   0  0  0  0  0  0  0  0  0  0  0  0
   -1.6337    0.8812   -1.1180 O   0  0  0  0  0  0  0  0  0  0  0  0
   -1.3027    2.2983    0.6040 N   0  0  0  0  0  0  0  0  0  0  0  0
   -1.2150    2.3729    1.6043 H   0  0  0  0  0  0  0  0  0  0  0  0
   -1.3264    3.5363   -0.1769 C   0  0  0  0  0  0  0  0  0  0  0  0
   -2.3168    3.6779   -0.6147 H   0  0  0  0  0  0  0  0  0  0  0  0
   -1.0932    4.3913    0.4590 H   0  0  0  0  0  0  0  0  0  0  0  0
   -0.5961    3.4809   -0.9872 H   0  0  0  0  0  0  0  0  0  0  0  0
  5  6  2  0  0  0  0
  5  7  1  0  0  0  0
  2  3  1  0  0  0  0
  2  4  1  0  0  0  0
  2  5  1  0  0  0  0
  1  2  1  0  0  0  0
 29 30  2  0  0  0  0
 29 31  1  0  0  0  0
 26 27  1  0  0  0  0
 26 28  1  0  0  0  0
 23 24  1  0  0  0  0
 23 25  1  0  0  0  0
 22 23  1  0  0  0  0
 22 26  1  0  0  0  0
 20 21  1  0  0  0  0
 20 22  2  0  0  0  0
 17 18  1  0  0  0  0
 17 19  1  0  0  0  0
 17 20  1  0  0  0  0
 14 15  1  0  0  0  0
 14 16  1  0  0  0  0
 14 17  1  0  0  0  0
 11 12  1  0  0  0  0
 11 13  1  0  0  0  0
 11 14  1  0  0  0  0
  9 10  1  0  0  0  0
  9 11  1  0  0  0  0
  9 29  1  0  0  0  0
  7  8  1  0  0  0  0
  7  9  1  0  0  0  0
 33 34  1  0  0  0  0
 33 35  1  0  0  0  0
 33 36  1  0  0  0  0
 31 32  1  0  0  0  0
 31 33  1  0  0  0  0
M  CHG  1  20   1
M  END
$$$$
default_name
  -OEChem-01062215323D

 36 35  0     1  0  0  0  0  0999 V2000
   -4.2256   -3.6731    1.8584 H   0  0  0  0  0  0  0  0  0  0  0  0
   -4.2396   -2.6781    1.4144 C   0  0  0  0  0  0  0  0  0  0  0  0
   -4.9506   -2.0521    1.9514 H   0  0  0  0  0  0  0  0  0  0  0  0
   -4.5266   -2.7521    0.3674 H   0  0  0  0  0  0  0  0  0  0  0  0
   -2.8576   -2.0761    1.5184 C   0  0  0  0  0  0  0  0  0  0  0  0
   -1.9456   -2.7051    2.0404 O   0  0  0  0  0  0  0  0  0  0  0  0
   -2.6926   -0.8481    1.0174 N   0  0  0  0  0  0  0  0  0  0  0  0
   -3.4926   -0.3971    0.5954 H   0  0  0  0  0  0  0  0  0  0  0  0
   -1.4216   -0.1071    1.0434 C   0  0  1  0  0  0  0  0  0  0  0  0
   -1.2628    0.2680    2.0558 H   0  0  0  0  0  0  0  0  0  0  0  0
   -0.2808   -1.0827    0.6912 C   0  0  0  0  0  0  0  0  0  0  0  0
   -0.5226   -1.5754   -0.2527 H   0  0  0  0  0  0  0  0  0  0  0  0
    0.6427   -0.5165    0.5513 H   0  0  0  0  0  0  0  0  0  0  0  0
   -0.0518   -2.1655    1.7558 C   0  0  0  0  0  0  0  0  0  0  0  0
    0.2034   -1.6985    2.7081 H   0  0  0  0  0  0  0  0  0  0  0  0
   -0.9630   -2.7526    1.8751 H   0  0  0  0  0  0  0  0  0  0  0  0
    1.0967   -3.0877    1.3245 C   0  0  0  0  0  0  0  0  0  0  0  0
    0.8445   -3.5300    0.3580 H   0  0  0  0  0  0  0  0  0  0  0  0
    2.0018   -2.4863    1.2116 H   0  0  0  0  0  0  0  0  0  0  0  0
    1.3372   -4.1617    2.3102 N   0  3  0  0  0  0  0  0  0  0  0  0
    0.7765   -4.1427    3.1448 H   0  0  0  0  0  0  0  0  0  0  0  0
    2.2173   -5.1425    2.1983 C   0  0  0  0  0  0  0  0  0  0  0  0
    2.9944   -5.2612    1.1584 N   0  0  0  0  0  0  0  0  0  0  0  0
    2.9194   -4.5854    0.4187 H   0  0  0  0  0  0  0  0  0  0  0  0
    3.6572   -6.0113    1.0894 H   0  0  0  0  0  0  0  0  0  0  0  0
    2.3359   -6.0334    3.1414 N   0  0  0  0  0  0  0  0  0  0  0  0
    1.7581   -5.9838    3.9628 H   0  0  0  0  0  0  0  0  0  0  0  0
    3.0048   -6.7759    3.0525 H   0  0  0  0  0  0  0  0  0  0  0  0
   -1.4741    1.0805    0.0802 C   0  0  0  0  0  0  0  0  0  0  0  0
   -1.9022    0.9193   -1.0564 O   0  0  0  0  0  0  0  0  0  0  0  0
   -1.0056    2.2497    0.5278 N   0  0  0  0  0  0  0  0  0  0  0  0
   -0.7072    2.3012    1.4881 H   0  0  0  0  0  0  0  0  0  0  0  0
   -0.9854    3.4808   -0.2639 C   0  0  0  0  0  0  0  0  0  0  0  0
   -2.0074    3.7862   -0.4980 H   0  0  0  0  0  0  0  0  0  0  0  0
   -0.4933    4.2811    0.2904 H   0  0  0  0  0  0  0  0  0  0  0  0
   -0.4523    3.3128   -1.2023 H   0  0  0  0  0  0  0  0  0  0  0  0
  5  6  2  0  0  0  0
  5  7  1  0  0  0  0
  2  3  1  0  0  0  0
  2  4  1  0  0  0  0
  2  5  1  0  0  0  0
  1  2  1  0  0  0  0
 29 30  2  0  0  0  0
 29 31  1  0  0  0  0
 26 27  1  0  0  0  0
 26 28  1  0  0  0  0
 23 24  1  0  0  0  0
 23 25  1  0  0  0  0
 22 23  1  0  0  0  0
 22 26  1  0  0  0  0
 20 21  1  0  0  0  0
 20 22  2  0  0  0  0
 17 18  1  0  0  0  0
 17 19  1  0  0  0  0
 17 20  1  0  0  0  0
 14 15  1  0  0  0  0
 14 16  1  0  0  0  0
 14 17  1  0  0  0  0
 11 12  1  0  0  0  0
 11 13  1  0  0  0  0
 11 14  1  0  0  0  0
  9 10  1  0  0  0  0
  9 11  1  0  0  0  0
  9 29  1  0  0  0  0
  7  8  1  0  0  0  0
  7  9  1  0  0  0  0
 33 34  1  0  0  0  0
 33 35  1  0  0  0  0
 33 36  1  0  0  0  0
 31 32  1  0  0  0  0
 31 33  1  0  0  0  0
M  CHG  1  20   1
M  END
$$$$
default_name
  -OEChem-01062215323D

 36 35  0     1  0  0  0  0  0999 V2000
   -4.2256   -3.6731    1.8584 H   0  0  0  0  0  0  0  0  0  0  0  0
   -4.2396   -2.6781    1.4144 C   0  0  0  0  0  0  0  0  0  0  0  0
   -4.9506   -2.0521    1.9514 H   0  0  0  0  0  0  0  0  0  0  0  0
   -4.5266   -2.7521    0.3674 H   0  0  0  0  0  0  0  0  0  0  0  0
   -2.8576   -2.0761    1.5184 C   0  0  0  0  0  0  0  0  0  0  0  0
   -1.9456   -2.7051    2.0404 O   0  0  0  0  0  0  0  0  0  0  0  0
   -2.6926   -0.8481    1.0174 N   0  0  0  0  0  0  0  0  0  0  0  0
   -3.4926   -0.3971    0.5954 H   0  0  0  0  0  0  0  0  0  0  0  0
   -1.4216   -0.1071    1.0434 C   0  0  1  0  0  0  0  0  0  0  0  0
   -1.2628    0.2680    2.0558 H   0  0  0  0  0  0  0  0  0  0  0  0
   -0.2808   -1.0827    0.6912 C   0  0  0  0  0  0  0  0  0  0  0  0
   -0.5226   -1.5754   -0.2527 H   0  0  0  0  0  0  0  0  0  0  0  0
    0.6427   -0.5165    0.5513 H   0  0  0  0  0  0  0  0  0  0  0  0
   -0.0518   -2.1655    1.7558 C   0  0  0  0  0  0  0  0  0  0  0  0
    0.2034   -1.6985    2.7081 H   0  0  0  0  0  0  0  0  0  0  0  0
   -0.9630   -2.7526    1.8751 H   0  0  0  0  0  0  0  0  0  0  0  0
    1.0967   -3.0877    1.3245 C   0  0  0  0  0  0  0  0  0  0  0  0
    0.8445   -3.5300    0.3580 H   0  0  0  0  0  0  0  0  0  0  0  0
    2.0018   -2.4863    1.2116 H   0  0  0  0  0  0  0  0  0  0  0  0
    1.3372   -4.1617    2.3102 N   0  3  0  0  0  0  0  0  0  0  0  0
    0.7765   -4.1427    3.1448 H   0  0  0  0  0  0  0  0  0  0  0  0
    2.2173   -5.1425    2.1983 C   0  0  0  0  0  0  0  0  0  0  0  0
    2.9944   -5.2612    1.1584 N   0  0  0  0  0  0  0  0  0  0  0  0
    2.9194   -4.5854    0.4187 H   0  0  0  0  0  0  0  0  0  0  0  0
    3.6572   -6.0113    1.0894 H   0  0  0  0  0  0  0  0  0  0  0  0
    2.3359   -6.0334    3.1414 N   0  0  0  0  0  0  0  0  0  0  0  0
    1.7581   -5.9838    3.9628 H   0  0  0  0  0  0  0  0  0  0  0  0
    3.0048   -6.7759    3.0525 H   0  0  0  0  0  0  0  0  0  0  0  0
   -1.4741    1.0805    0.0802 C   0  0  0  0  0  0  0  0  0  0  0  0
   -2.1429    1.0005   -0.9432 O   0  0  0  0  0  0  0  0  0  0  0  0
   -0.7419    2.1536    0.3949 N   0  0  0  0  0  0  0  0  0  0  0  0
   -0.2516    2.1480    1.2744 H   0  0  0  0  0  0  0  0  0  0  0  0
   -0.6825    3.3709   -0.4160 C   0  0  0  0  0  0  0  0  0  0  0  0
   -1.6675    3.8414   -0.4485 H   0  0  0  0  0  0  0  0  0  0  0  0
    0.0342    4.0754    0.0080 H   0  0  0  0  0  0  0  0  0  0  0  0
   -0.3840    3.1251   -1.4374 H   0  0  0  0  0  0  0  0  0  0  0  0
  5  6  2  0  0  0  0
  5  7  1  0  0  0  0
  2  3  1  0  0  0  0
  2  4  1  0  0  0  0
  2  5  1  0  0  0  0
  1  2  1  0  0  0  0
 29 30  2  0  0  0  0
 29 31  1  0  0  0  0
 26 27  1  0  0  0  0
 26 28  1  0  0  0  0
 23 24  1  0  0  0  0
 23 25  1  0  0  0  0
 22 23  1  0  0  0  0
 22 26  1  0  0  0  0
 20 21  1  0  0  0  0
 20 22  2  0  0  0  0
 17 18  1  0  0  0  0
 17 19  1  0  0  0  0
 17 20  1  0  0  0  0
 14 15  1  0  0  0  0
 14 16  1  0  0  0  0
 14 17  1  0  0  0  0
 11 12  1  0  0  0  0
 11 13  1  0  0  0  0
 11 14  1  0  0  0  0
  9 10  1  0  0  0  0
  9 11  1  0  0  0  0
  9 29  1  0  0  0  0
  7  8  1  0  0  0  0
  7  9  1  0  0  0  0
 33 34  1  0  0  0  0
 33 35  1  0  0  0  0
 33 36  1  0  0  0  0
 31 32  1  0  0  0  0
 31 33  1  0  0  0  0
M  CHG  1  20   1
M  END
$$$$
default_name
  -OEChem-01062215323D

 36 35  0     1  0  0  0  0  0999 V2000
   -4.2256   -3.6731    1.8584 H   0  0  0  0  0  0  0  0  0  0  0  0
   -4.2396   -2.6781    1.4144 C   0  0  0  0  0  0  0  0  0  0  0  0
   -4.9506   -2.0521    1.9514 H   0  0  0  0  0  0  0  0  0  0  0  0
   -4.5266   -2.7521    0.3674 H   0  0  0  0  0  0  0  0  0  0  0  0
   -2.8576   -2.0761    1.5184 C   0  0  0  0  0  0  0  0  0  0  0  0
   -1.9456   -2.7051    2.0404 O   0  0  0  0  0  0  0  0  0  0  0  0
   -2.6926   -0.8481    1.0174 N   0  0  0  0  0  0  0  0  0  0  0  0
   -3.4926   -0.3971    0.5954 H   0  0  0  0  0  0  0  0  0  0  0  0
   -1.4216   -0.1071    1.0434 C   0  0  1  0  0  0  0  0  0  0  0  0
   -1.2628    0.2680    2.0558 H   0  0  0  0  0  0  0  0  0  0  0  0
   -0.2808   -1.0827    0.6912 C   0  0  0  0  0  0  0  0  0  0  0  0
   -0.5226   -1.5754   -0.2527 H   0  0  0  0  0  0  0  0  0  0  0  0
    0.6427   -0.5165    0.5513 H   0  0  0  0  0  0  0  0  0  0  0  0
   -0.0518   -2.1655    1.7558 C   0  0  0  0  0  0  0  0  0  0  0  0
    0.2034   -1.6985    2.7081 H   0  0  0  0  0  0  0  0  0  0  0  0
   -0.9630   -2.7526    1.8751 H   0  0  0  0  0  0  0  0  0  0  0  0
    1.0967   -3.0877    1.3245 C   0  0  0  0  0  0  0  0  0  0  0  0
    0.8445   -3.5300    0.3580 H   0  0  0  0  0  0  0  0  0  0  0  0
    2.0018   -2.4863    1.2116 H   0  0  0  0  0  0  0  0  0  0  0  0
    1.3372   -4.1617    2.3102 N   0  3  0  0  0  0  0  0  0  0  0  0
    0.7765   -4.1427    3.1448 H   0  0  0  0  0  0  0  0  0  0  0  0
    2.2173   -5.1425    2.1983 C   0  0  0  0  0  0  0  0  0  0  0  0
    2.9944   -5.2612    1.1584 N   0  0  0  0  0  0  0  0  0  0  0  0
    2.9194   -4.5854    0.4187 H   0  0  0  0  0  0  0  0  0  0  0  0
    3.6572   -6.0113    1.0894 H   0  0  0  0  0  0  0  0  0  0  0  0
    2.3359   -6.0334    3.1414 N   0  0  0  0  0  0  0  0  0  0  0  0
    1.7581   -5.9838    3.9628 H   0  0  0  0  0  0  0  0  0  0  0  0
    3.0048   -6.7759    3.0525 H   0  0  0  0  0  0  0  0  0  0  0  0
   -1.4741    1.0805    0.0802 C   0  0  0  0  0  0  0  0  0  0  0  0
   -2.3395    1.1191   -0.7862 O   0  0  0  0  0  0  0  0  0  0  0  0
   -0.5295    2.0167    0.2145 N   0  0  0  0  0  0  0  0  0  0  0  0
    0.1205    1.9240    0.9779 H   0  0  0  0  0  0  0  0  0  0  0  0
   -0.4384    3.2140   -0.6227 C   0  0  0  0  0  0  0  0  0  0  0  0
   -1.3202    3.8398   -0.4694 H   0  0  0  0  0  0  0  0  0  0  0  0
    0.4536    3.7883   -0.3689 H   0  0  0  0  0  0  0  0  0  0  0  0
   -0.3959    2.9306   -1.6766 H   0  0  0  0  0  0  0  0  0  0  0  0
  5  6  2  0  0  0  0
  5  7  1  0  0  0  0
  2  3  1  0  0  0  0
  2  4  1  0  0  0  0
  2  5  1  0  0  0  0
  1  2  1  0  0  0  0
 29 30  2  0  0  0  0
 29 31  1  0  0  0  0
 26 27  1  0  0  0  0
 26 28  1  0  0  0  0
 23 24  1  0  0  0  0
 23 25  1  0  0  0  0
 22 23  1  0  0  0  0
 22 26  1  0  0  0  0
 20 21  1  0  0  0  0
 20 22  2  0  0  0  0
 17 18  1  0  0  0  0
 17 19  1  0  0  0  0
 17 20  1  0  0  0  0
 14 15  1  0  0  0  0
 14 16  1  0  0  0  0
 14 17  1  0  0  0  0
 11 12  1  0  0  0  0
 11 13  1  0  0  0  0
 11 14  1  0  0  0  0
  9 10  1  0  0  0  0
  9 11  1  0  0  0  0
  9 29  1  0  0  0  0
  7  8  1  0  0  0  0
  7  9  1  0  0  0  0
 33 34  1  0  0  0  0
 33 35  1  0  0  0  0
 33 36  1  0  0  0  0
 31 32  1  0  0  0  0
 31 33  1  0  0  0  0
M  CHG  1  20   1
M  END
$$$$
