
  -OEChem-02172215453D

 36 35  0     1  0  0  0  0  0999 V2000
   -4.3754   -1.7428    1.2263 H   0  0  0  0  0  0  0  0  0  0  0  0
   -4.2068   -0.7709    0.7545 C   0  0  0  0  0  0  0  0  0  0  0  0
   -4.9578   -0.0667    1.1216 H   0  0  0  0  0  0  0  0  0  0  0  0
   -4.3198   -0.8794   -0.3268 H   0  0  0  0  0  0  0  0  0  0  0  0
   -2.8176   -0.2603    1.0847 C   0  0  0  0  0  0  0  0  0  0  0  0
   -2.1453   -0.8400    1.9240 O   0  0  0  0  0  0  0  0  0  0  0  0
   -2.3883    0.9290    0.5333 N   0  0  0  0  0  0  0  0  0  0  0  0
   -3.0625    1.4101   -0.0667 H   0  0  0  0  0  0  0  0  0  0  0  0
   -1.0516    1.5567    0.5776 C   0  0  1  0  0  0  0  0  0  0  0  0
   -0.7741    1.7609    1.6168 H   0  0  0  0  0  0  0  0  0  0  0  0
    0.0772    0.7494   -0.1390 C   0  0  0  0  0  0  0  0  0  0  0  0
   -0.2367    0.5729   -1.1743 H   0  0  0  0  0  0  0  0  0  0  0  0
    0.9835    1.3622   -0.1718 H   0  0  0  0  0  0  0  0  0  0  0  0
    0.4746   -0.5944    0.4834 C   0  0  0  0  0  0  0  0  0  0  0  0
    0.7714   -0.4508    1.5281 H   0  0  0  0  0  0  0  0  0  0  0  0
   -0.3717   -1.2794    0.4473 H   0  0  0  0  0  0  0  0  0  0  0  0
    1.5873   -1.2608   -0.3200 C   0  0  0  0  0  0  0  0  0  0  0  0
    1.2496   -1.4091   -1.3516 H   0  0  0  0  0  0  0  0  0  0  0  0
    2.4697   -0.6115   -0.3294 H   0  0  0  0  0  0  0  0  0  0  0  0
    1.9098   -2.5549    0.3085 N   0  3  0  0  0  0  0  0  0  0  0  0
    1.3907   -2.7962    1.1531 H   0  0  0  0  0  0  0  0  0  0  0  0
    2.7797   -3.3984   -0.1652 C   0  0  0  0  0  0  0  0  0  0  0  0
    3.4851   -3.1419   -1.3186 N   0  0  0  0  0  0  0  0  0  0  0  0
    3.1924   -2.3509   -1.8883 H   0  0  0  0  0  0  0  0  0  0  0  0
    3.9655   -3.9126   -1.7785 H   0  0  0  0  0  0  0  0  0  0  0  0
    3.0029   -4.5822    0.4960 N   0  0  0  0  0  0  0  0  0  0  0  0
    2.6130   -4.7030    1.4291 H   0  0  0  0  0  0  0  0  0  0  0  0
    3.8198   -5.1352    0.2438 H   0  0  0  0  0  0  0  0  0  0  0  0
   -1.1429    2.8975   -0.2055 C   0  0  0  0  0  0  0  0  0  0  0  0
   -2.1817    3.1970   -0.7854 O   0  0  0  0  0  0  0  0  0  0  0  0
   -0.0472    3.7335   -0.3466 N   0  0  0  0  0  0  0  0  0  0  0  0
    0.7779    3.5254    0.2076 H   0  0  0  0  0  0  0  0  0  0  0  0
   -0.1073    5.0104   -1.0530 C   0  0  0  0  0  0  0  0  0  0  0  0
   -0.8062    5.6915   -0.5554 H   0  0  0  0  0  0  0  0  0  0  0  0
    0.8801    5.4815   -1.0725 H   0  0  0  0  0  0  0  0  0  0  0  0
   -0.4372    4.8635   -2.0872 H   0  0  0  0  0  0  0  0  0  0  0  0
  1  2  1  0  0  0  0
  2  3  1  0  0  0  0
  2  4  1  0  0  0  0
  2  5  1  0  0  0  0
  5  6  2  0  0  0  0
  5  7  1  0  0  0  0
  7  8  1  0  0  0  0
  7  9  1  0  0  0  0
  9 10  1  0  0  0  0
  9 11  1  0  0  0  0
  9 29  1  0  0  0  0
 11 12  1  0  0  0  0
 11 13  1  0  0  0  0
 11 14  1  0  0  0  0
 14 15  1  0  0  0  0
 14 16  1  0  0  0  0
 14 17  1  0  0  0  0
 17 18  1  0  0  0  0
 17 19  1  0  0  0  0
 17 20  1  0  0  0  0
 20 21  1  0  0  0  0
 20 22  2  0  0  0  0
 22 23  1  0  0  0  0
 22 26  1  0  0  0  0
 23 24  1  0  0  0  0
 23 25  1  0  0  0  0
 26 27  1  0  0  0  0
 26 28  1  0  0  0  0
 29 30  2  0  0  0  0
 29 31  1  0  0  0  0
 31 32  1  0  0  0  0
 31 33  1  0  0  0  0
 33 34  1  0  0  0  0
 33 35  1  0  0  0  0
 33 36  1  0  0  0  0
M  CHG  1  20   1
M  END
$$$$

  -OEChem-02172215453D

 36 35  0     1  0  0  0  0  0999 V2000
   -4.3849   -1.7203    1.2107 H   0  0  0  0  0  0  0  0  0  0  0  0
   -4.2084   -0.7445    0.7497 C   0  0  0  0  0  0  0  0  0  0  0  0
   -4.9376   -0.0318    1.1436 H   0  0  0  0  0  0  0  0  0  0  0  0
   -4.3462   -0.8345   -0.3305 H   0  0  0  0  0  0  0  0  0  0  0  0
   -2.8029   -0.2650    1.0577 C   0  0  0  0  0  0  0  0  0  0  0  0
   -2.1282   -0.8702    1.8766 O   0  0  0  0  0  0  0  0  0  0  0  0
   -2.3672    0.9289    0.5206 N   0  0  0  0  0  0  0  0  0  0  0  0
   -3.0625    1.4517   -0.0177 H   0  0  0  0  0  0  0  0  0  0  0  0
   -1.0284    1.5549    0.5595 C   0  0  1  0  0  0  0  0  0  0  0  0
   -0.7445    1.7555    1.5977 H   0  0  0  0  0  0  0  0  0  0  0  0
    0.0998    0.7436   -0.1594 C   0  0  0  0  0  0  0  0  0  0  0  0
   -0.2125    0.5692   -1.1952 H   0  0  0  0  0  0  0  0  0  0  0  0
    1.0101    1.3498   -0.1866 H   0  0  0  0  0  0  0  0  0  0  0  0
    0.4973   -0.5995    0.4647 C   0  0  0  0  0  0  0  0  0  0  0  0
    0.7916   -0.4548    1.5101 H   0  0  0  0  0  0  0  0  0  0  0  0
   -0.3484   -1.2841    0.4255 H   0  0  0  0  0  0  0  0  0  0  0  0
    1.6074   -1.2752   -0.3340 C   0  0  0  0  0  0  0  0  0  0  0  0
    1.2696   -1.4306   -1.3646 H   0  0  0  0  0  0  0  0  0  0  0  0
    2.4936   -0.6307   -0.3465 H   0  0  0  0  0  0  0  0  0  0  0  0
    1.9186   -2.5657    0.3080 N   0  3  0  0  0  0  0  0  0  0  0  0
    1.3929   -2.7943    1.1521 H   0  0  0  0  0  0  0  0  0  0  0  0
    2.7831   -3.4221   -0.1526 C   0  0  0  0  0  0  0  0  0  0  0  0
    3.4956   -3.1857   -1.3059 N   0  0  0  0  0  0  0  0  0  0  0  0
    3.2123   -2.3993   -1.8864 H   0  0  0  0  0  0  0  0  0  0  0  0
    3.9671   -3.9677   -1.7557 H   0  0  0  0  0  0  0  0  0  0  0  0
    2.9938   -4.6002    0.5233 N   0  0  0  0  0  0  0  0  0  0  0  0
    2.5967   -4.7087    1.4550 H   0  0  0  0  0  0  0  0  0  0  0  0
    3.8093   -5.1610    0.2834 H   0  0  0  0  0  0  0  0  0  0  0  0
   -1.1413    2.9066   -0.2106 C   0  0  0  0  0  0  0  0  0  0  0  0
   -2.2463    3.3240   -0.5418 O   0  0  0  0  0  0  0  0  0  0  0  0
   -0.0315    3.6204   -0.6351 N   0  0  0  0  0  0  0  0  0  0  0  0
    0.8772    3.3241   -0.2935 H   0  0  0  0  0  0  0  0  0  0  0  0
   -0.1257    4.8940   -1.3439 C   0  0  0  0  0  0  0  0  0  0  0  0
   -0.6231    5.6451   -0.7208 H   0  0  0  0  0  0  0  0  0  0  0  0
    0.8729    5.2626   -1.5983 H   0  0  0  0  0  0  0  0  0  0  0  0
   -0.6950    4.7765   -2.2722 H   0  0  0  0  0  0  0  0  0  0  0  0
  1  2  1  0  0  0  0
  2  3  1  0  0  0  0
  2  4  1  0  0  0  0
  2  5  1  0  0  0  0
  5  6  2  0  0  0  0
  5  7  1  0  0  0  0
  7  8  1  0  0  0  0
  7  9  1  0  0  0  0
  9 10  1  0  0  0  0
  9 11  1  0  0  0  0
  9 29  1  0  0  0  0
 11 12  1  0  0  0  0
 11 13  1  0  0  0  0
 11 14  1  0  0  0  0
 14 15  1  0  0  0  0
 14 16  1  0  0  0  0
 14 17  1  0  0  0  0
 17 18  1  0  0  0  0
 17 19  1  0  0  0  0
 17 20  1  0  0  0  0
 20 21  1  0  0  0  0
 20 22  2  0  0  0  0
 22 23  1  0  0  0  0
 22 26  1  0  0  0  0
 23 24  1  0  0  0  0
 23 25  1  0  0  0  0
 26 27  1  0  0  0  0
 26 28  1  0  0  0  0
 29 30  2  0  0  0  0
 29 31  1  0  0  0  0
 31 32  1  0  0  0  0
 31 33  1  0  0  0  0
 33 34  1  0  0  0  0
 33 35  1  0  0  0  0
 33 36  1  0  0  0  0
M  CHG  1  20   1
M  END
$$$$

  -OEChem-02172215453D

 36 35  0     1  0  0  0  0  0999 V2000
   -4.4211   -1.6778    1.2022 H   0  0  0  0  0  0  0  0  0  0  0  0
   -4.2295   -0.7005    0.7501 C   0  0  0  0  0  0  0  0  0  0  0  0
   -4.9269    0.0260    1.1749 H   0  0  0  0  0  0  0  0  0  0  0  0
   -4.4008   -0.7710   -0.3267 H   0  0  0  0  0  0  0  0  0  0  0  0
   -2.8026   -0.2655    1.0243 C   0  0  0  0  0  0  0  0  0  0  0  0
   -2.1251   -0.9061    1.8129 O   0  0  0  0  0  0  0  0  0  0  0  0
   -2.3537    0.9311    0.5033 N   0  0  0  0  0  0  0  0  0  0  0  0
   -3.0644    1.4997    0.0371 H   0  0  0  0  0  0  0  0  0  0  0  0
   -1.0074    1.5432    0.5362 C   0  0  1  0  0  0  0  0  0  0  0  0
   -0.7197    1.7389    1.5744 H   0  0  0  0  0  0  0  0  0  0  0  0
    0.1242    0.7325   -0.1798 C   0  0  0  0  0  0  0  0  0  0  0  0
   -0.1815    0.5590   -1.2178 H   0  0  0  0  0  0  0  0  0  0  0  0
    1.0349    1.3391   -0.1957 H   0  0  0  0  0  0  0  0  0  0  0  0
    0.5198   -0.6104    0.4453 C   0  0  0  0  0  0  0  0  0  0  0  0
    0.8071   -0.4654    1.4926 H   0  0  0  0  0  0  0  0  0  0  0  0
   -0.3256   -1.2943    0.3998 H   0  0  0  0  0  0  0  0  0  0  0  0
    1.6336   -1.2917   -0.3442 C   0  0  0  0  0  0  0  0  0  0  0  0
    1.3050   -1.4487   -1.3773 H   0  0  0  0  0  0  0  0  0  0  0  0
    2.5228   -0.6518   -0.3497 H   0  0  0  0  0  0  0  0  0  0  0  0
    1.9335   -2.5800    0.3072 N   0  3  0  0  0  0  0  0  0  0  0  0
    1.3976   -2.8020    1.1467 H   0  0  0  0  0  0  0  0  0  0  0  0
    2.7970   -3.4444   -0.1395 C   0  0  0  0  0  0  0  0  0  0  0  0
    3.5219   -3.2207   -1.2877 N   0  0  0  0  0  0  0  0  0  0  0  0
    3.2542   -2.4330   -1.8737 H   0  0  0  0  0  0  0  0  0  0  0  0
    3.9952   -4.0075   -1.7274 H   0  0  0  0  0  0  0  0  0  0  0  0
    2.9916   -4.6189    0.5477 N   0  0  0  0  0  0  0  0  0  0  0  0
    2.5829   -4.7168    1.4756 H   0  0  0  0  0  0  0  0  0  0  0  0
    3.8070   -5.1860    0.3230 H   0  0  0  0  0  0  0  0  0  0  0  0
   -1.1364    2.9055   -0.2157 C   0  0  0  0  0  0  0  0  0  0  0  0
   -2.2348    3.4469   -0.2773 O   0  0  0  0  0  0  0  0  0  0  0  0
   -0.0979    3.4966   -0.9198 N   0  0  0  0  0  0  0  0  0  0  0  0
    0.8260    3.0865   -0.8349 H   0  0  0  0  0  0  0  0  0  0  0  0
   -0.2344    4.7654   -1.6311 C   0  0  0  0  0  0  0  0  0  0  0  0
   -0.4957    5.5699   -0.9350 H   0  0  0  0  0  0  0  0  0  0  0  0
    0.7060    5.0282   -2.1253 H   0  0  0  0  0  0  0  0  0  0  0  0
   -1.0161    4.6957   -2.3954 H   0  0  0  0  0  0  0  0  0  0  0  0
  1  2  1  0  0  0  0
  2  3  1  0  0  0  0
  2  4  1  0  0  0  0
  2  5  1  0  0  0  0
  5  6  2  0  0  0  0
  5  7  1  0  0  0  0
  7  8  1  0  0  0  0
  7  9  1  0  0  0  0
  9 10  1  0  0  0  0
  9 11  1  0  0  0  0
  9 29  1  0  0  0  0
 11 12  1  0  0  0  0
 11 13  1  0  0  0  0
 11 14  1  0  0  0  0
 14 15  1  0  0  0  0
 14 16  1  0  0  0  0
 14 17  1  0  0  0  0
 17 18  1  0  0  0  0
 17 19  1  0  0  0  0
 17 20  1  0  0  0  0
 20 21  1  0  0  0  0
 20 22  2  0  0  0  0
 22 23  1  0  0  0  0
 22 26  1  0  0  0  0
 23 24  1  0  0  0  0
 23 25  1  0  0  0  0
 26 27  1  0  0  0  0
 26 28  1  0  0  0  0
 29 30  2  0  0  0  0
 29 31  1  0  0  0  0
 31 32  1  0  0  0  0
 31 33  1  0  0  0  0
 33 34  1  0  0  0  0
 33 35  1  0  0  0  0
 33 36  1  0  0  0  0
M  CHG  1  20   1
M  END
$$$$

  -OEChem-02172215453D

 36 35  0     1  0  0  0  0  0999 V2000
   -4.4711   -1.6259    1.2074 H   0  0  0  0  0  0  0  0  0  0  0  0
   -4.2598   -0.6542    0.7525 C   0  0  0  0  0  0  0  0  0  0  0  0
   -4.9295    0.0910    1.1891 H   0  0  0  0  0  0  0  0  0  0  0  0
   -4.4507   -0.7193   -0.3214 H   0  0  0  0  0  0  0  0  0  0  0  0
   -2.8168   -0.2589    1.0019 C   0  0  0  0  0  0  0  0  0  0  0  0
   -2.1379   -0.9306    1.7621 O   0  0  0  0  0  0  0  0  0  0  0  0
   -2.3547    0.9363    0.4887 N   0  0  0  0  0  0  0  0  0  0  0  0
   -3.0722    1.5343    0.0745 H   0  0  0  0  0  0  0  0  0  0  0  0
   -0.9998    1.5299    0.5132 C   0  0  1  0  0  0  0  0  0  0  0  0
   -0.7096    1.7234    1.5513 H   0  0  0  0  0  0  0  0  0  0  0  0
    0.1350    0.7175   -0.1929 C   0  0  0  0  0  0  0  0  0  0  0  0
   -0.1662    0.5362   -1.2307 H   0  0  0  0  0  0  0  0  0  0  0  0
    1.0417    1.3311   -0.2061 H   0  0  0  0  0  0  0  0  0  0  0  0
    0.5303   -0.6225    0.4388 C   0  0  0  0  0  0  0  0  0  0  0  0
    0.8134   -0.4732    1.4867 H   0  0  0  0  0  0  0  0  0  0  0  0
   -0.3127   -1.3088    0.3922 H   0  0  0  0  0  0  0  0  0  0  0  0
    1.6482   -1.3030   -0.3447 C   0  0  0  0  0  0  0  0  0  0  0  0
    1.3230   -1.4642   -1.3783 H   0  0  0  0  0  0  0  0  0  0  0  0
    2.5351   -0.6599   -0.3503 H   0  0  0  0  0  0  0  0  0  0  0  0
    1.9495   -2.5889    0.3109 N   0  3  0  0  0  0  0  0  0  0  0  0
    1.4116   -2.8103    1.1495 H   0  0  0  0  0  0  0  0  0  0  0  0
    2.8171   -3.4517   -0.1312 C   0  0  0  0  0  0  0  0  0  0  0  0
    3.5446   -3.2280   -1.2777 N   0  0  0  0  0  0  0  0  0  0  0  0
    3.2684   -2.4484   -1.8706 H   0  0  0  0  0  0  0  0  0  0  0  0
    4.0230   -4.0146   -1.7122 H   0  0  0  0  0  0  0  0  0  0  0  0
    3.0156   -4.6236    0.5594 N   0  0  0  0  0  0  0  0  0  0  0  0
    2.6090   -4.7189    1.4885 H   0  0  0  0  0  0  0  0  0  0  0  0
    3.8325   -5.1888    0.3355 H   0  0  0  0  0  0  0  0  0  0  0  0
   -1.1300    2.8971   -0.2249 C   0  0  0  0  0  0  0  0  0  0  0  0
   -2.1430    3.5612   -0.0432 O   0  0  0  0  0  0  0  0  0  0  0  0
   -0.2304    3.3560   -1.1760 N   0  0  0  0  0  0  0  0  0  0  0  0
    0.6045    2.8061   -1.3464 H   0  0  0  0  0  0  0  0  0  0  0  0
   -0.3948    4.6184   -1.8923 C   0  0  0  0  0  0  0  0  0  0  0  0
   -0.4194    5.4581   -1.1892 H   0  0  0  0  0  0  0  0  0  0  0  0
    0.4375    4.7739   -2.5858 H   0  0  0  0  0  0  0  0  0  0  0  0
   -1.3269    4.6154   -2.4678 H   0  0  0  0  0  0  0  0  0  0  0  0
  1  2  1  0  0  0  0
  2  3  1  0  0  0  0
  2  4  1  0  0  0  0
  2  5  1  0  0  0  0
  5  6  2  0  0  0  0
  5  7  1  0  0  0  0
  7  8  1  0  0  0  0
  7  9  1  0  0  0  0
  9 10  1  0  0  0  0
  9 11  1  0  0  0  0
  9 29  1  0  0  0  0
 11 12  1  0  0  0  0
 11 13  1  0  0  0  0
 11 14  1  0  0  0  0
 14 15  1  0  0  0  0
 14 16  1  0  0  0  0
 14 17  1  0  0  0  0
 17 18  1  0  0  0  0
 17 19  1  0  0  0  0
 17 20  1  0  0  0  0
 20 21  1  0  0  0  0
 20 22  2  0  0  0  0
 22 23  1  0  0  0  0
 22 26  1  0  0  0  0
 23 24  1  0  0  0  0
 23 25  1  0  0  0  0
 26 27  1  0  0  0  0
 26 28  1  0  0  0  0
 29 30  2  0  0  0  0
 29 31  1  0  0  0  0
 31 32  1  0  0  0  0
 31 33  1  0  0  0  0
 33 34  1  0  0  0  0
 33 35  1  0  0  0  0
 33 36  1  0  0  0  0
M  CHG  1  20   1
M  END
$$$$

  -OEChem-02172215453D

 36 35  0     1  0  0  0  0  0999 V2000
   -4.4961   -1.6002    1.2157 H   0  0  0  0  0  0  0  0  0  0  0  0
   -4.2790   -0.6297    0.7606 C   0  0  0  0  0  0  0  0  0  0  0  0
   -4.9306    0.1229    1.2118 H   0  0  0  0  0  0  0  0  0  0  0  0
   -4.4903   -0.6880   -0.3098 H   0  0  0  0  0  0  0  0  0  0  0  0
   -2.8263   -0.2553    0.9861 C   0  0  0  0  0  0  0  0  0  0  0  0
   -2.1423   -0.9448    1.7252 O   0  0  0  0  0  0  0  0  0  0  0  0
   -2.3602    0.9402    0.4760 N   0  0  0  0  0  0  0  0  0  0  0  0
   -3.0816    1.5489    0.0871 H   0  0  0  0  0  0  0  0  0  0  0  0
   -0.9994    1.5197    0.4897 C   0  0  1  0  0  0  0  0  0  0  0  0
   -0.7062    1.7086    1.5279 H   0  0  0  0  0  0  0  0  0  0  0  0
    0.1390    0.7103   -0.2132 C   0  0  0  0  0  0  0  0  0  0  0  0
   -0.1645    0.5159   -1.2478 H   0  0  0  0  0  0  0  0  0  0  0  0
    1.0393    1.3346   -0.2352 H   0  0  0  0  0  0  0  0  0  0  0  0
    0.5375   -0.6263    0.4227 C   0  0  0  0  0  0  0  0  0  0  0  0
    0.8169   -0.4742    1.4710 H   0  0  0  0  0  0  0  0  0  0  0  0
   -0.3038   -1.3146    0.3753 H   0  0  0  0  0  0  0  0  0  0  0  0
    1.6592   -1.3080   -0.3547 C   0  0  0  0  0  0  0  0  0  0  0  0
    1.3377   -1.4744   -1.3887 H   0  0  0  0  0  0  0  0  0  0  0  0
    2.5457   -0.6639   -0.3603 H   0  0  0  0  0  0  0  0  0  0  0  0
    1.9593   -2.5898    0.3096 N   0  3  0  0  0  0  0  0  0  0  0  0
    1.4202   -2.8056    1.1489 H   0  0  0  0  0  0  0  0  0  0  0  0
    2.8292   -3.4543   -0.1238 C   0  0  0  0  0  0  0  0  0  0  0  0
    3.5611   -3.2376   -1.2686 N   0  0  0  0  0  0  0  0  0  0  0  0
    3.2934   -2.4569   -1.8638 H   0  0  0  0  0  0  0  0  0  0  0  0
    4.0411   -4.0263   -1.6975 H   0  0  0  0  0  0  0  0  0  0  0  0
    3.0264   -4.6209    0.5752 N   0  0  0  0  0  0  0  0  0  0  0  0
    2.6161   -4.7097    1.5032 H   0  0  0  0  0  0  0  0  0  0  0  0
    3.8475   -5.1839    0.3611 H   0  0  0  0  0  0  0  0  0  0  0  0
   -1.1214    2.8908   -0.2340 C   0  0  0  0  0  0  0  0  0  0  0  0
   -1.9801    3.6705    0.1545 O   0  0  0  0  0  0  0  0  0  0  0  0
   -0.4223    3.2249   -1.3843 N   0  0  0  0  0  0  0  0  0  0  0  0
    0.2451    2.5529   -1.7471 H   0  0  0  0  0  0  0  0  0  0  0  0
   -0.6177    4.4801   -2.1052 C   0  0  0  0  0  0  0  0  0  0  0  0
   -0.3941    5.3341   -1.4566 H   0  0  0  0  0  0  0  0  0  0  0  0
    0.0440    4.5262   -2.9757 H   0  0  0  0  0  0  0  0  0  0  0  0
   -1.6525    4.5663   -2.4541 H   0  0  0  0  0  0  0  0  0  0  0  0
  1  2  1  0  0  0  0
  2  3  1  0  0  0  0
  2  4  1  0  0  0  0
  2  5  1  0  0  0  0
  5  6  2  0  0  0  0
  5  7  1  0  0  0  0
  7  8  1  0  0  0  0
  7  9  1  0  0  0  0
  9 10  1  0  0  0  0
  9 11  1  0  0  0  0
  9 29  1  0  0  0  0
 11 12  1  0  0  0  0
 11 13  1  0  0  0  0
 11 14  1  0  0  0  0
 14 15  1  0  0  0  0
 14 16  1  0  0  0  0
 14 17  1  0  0  0  0
 17 18  1  0  0  0  0
 17 19  1  0  0  0  0
 17 20  1  0  0  0  0
 20 21  1  0  0  0  0
 20 22  2  0  0  0  0
 22 23  1  0  0  0  0
 22 26  1  0  0  0  0
 23 24  1  0  0  0  0
 23 25  1  0  0  0  0
 26 27  1  0  0  0  0
 26 28  1  0  0  0  0
 29 30  2  0  0  0  0
 29 31  1  0  0  0  0
 31 32  1  0  0  0  0
 31 33  1  0  0  0  0
 33 34  1  0  0  0  0
 33 35  1  0  0  0  0
 33 36  1  0  0  0  0
M  CHG  1  20   1
M  END
$$$$

  -OEChem-02172215453D

 36 35  0     1  0  0  0  0  0999 V2000
   -4.5080   -1.5932    1.2381 H   0  0  0  0  0  0  0  0  0  0  0  0
   -4.2946   -0.6259    0.7746 C   0  0  0  0  0  0  0  0  0  0  0  0
   -4.9425    0.1296    1.2265 H   0  0  0  0  0  0  0  0  0  0  0  0
   -4.5146   -0.6919   -0.2935 H   0  0  0  0  0  0  0  0  0  0  0  0
   -2.8400   -0.2517    0.9860 C   0  0  0  0  0  0  0  0  0  0  0  0
   -2.1499   -0.9424    1.7175 O   0  0  0  0  0  0  0  0  0  0  0  0
   -2.3768    0.9418    0.4674 N   0  0  0  0  0  0  0  0  0  0  0  0
   -3.1008    1.5443    0.0765 H   0  0  0  0  0  0  0  0  0  0  0  0
   -1.0119    1.5124    0.4673 C   0  0  1  0  0  0  0  0  0  0  0  0
   -0.7144    1.7003    1.5049 H   0  0  0  0  0  0  0  0  0  0  0  0
    0.1279    0.7024   -0.2305 C   0  0  0  0  0  0  0  0  0  0  0  0
   -0.1770    0.4924   -1.2612 H   0  0  0  0  0  0  0  0  0  0  0  0
    1.0219    1.3352   -0.2661 H   0  0  0  0  0  0  0  0  0  0  0  0
    0.5324   -0.6279    0.4146 C   0  0  0  0  0  0  0  0  0  0  0  0
    0.8146   -0.4645    1.4607 H   0  0  0  0  0  0  0  0  0  0  0  0
   -0.3062   -1.3202    0.3762 H   0  0  0  0  0  0  0  0  0  0  0  0
    1.6556   -1.3090   -0.3608 C   0  0  0  0  0  0  0  0  0  0  0  0
    1.3322   -1.4841   -1.3925 H   0  0  0  0  0  0  0  0  0  0  0  0
    2.5382   -0.6595   -0.3721 H   0  0  0  0  0  0  0  0  0  0  0  0
    1.9654   -2.5856    0.3089 N   0  3  0  0  0  0  0  0  0  0  0  0
    1.4319   -2.7990    1.1524 H   0  0  0  0  0  0  0  0  0  0  0  0
    2.8393   -3.4474   -0.1226 C   0  0  0  0  0  0  0  0  0  0  0  0
    3.5676   -3.2337   -1.2704 N   0  0  0  0  0  0  0  0  0  0  0  0
    3.2978   -2.4569   -1.8698 H   0  0  0  0  0  0  0  0  0  0  0  0
    4.0564   -4.0204   -1.6930 H   0  0  0  0  0  0  0  0  0  0  0  0
    3.0449   -4.6088    0.5830 N   0  0  0  0  0  0  0  0  0  0  0  0
    2.6374   -4.6946    1.5126 H   0  0  0  0  0  0  0  0  0  0  0  0
    3.8681   -5.1689    0.3694 H   0  0  0  0  0  0  0  0  0  0  0  0
   -1.1163    2.8823   -0.2538 C   0  0  0  0  0  0  0  0  0  0  0  0
   -1.7471    3.7731    0.2944 O   0  0  0  0  0  0  0  0  0  0  0  0
   -0.6660    3.1041   -1.5462 N   0  0  0  0  0  0  0  0  0  0  0  0
   -0.2269    2.3313   -2.0352 H   0  0  0  0  0  0  0  0  0  0  0  0
   -0.8707    4.3615   -2.2606 C   0  0  0  0  0  0  0  0  0  0  0  0
   -0.4061    5.1917   -1.7175 H   0  0  0  0  0  0  0  0  0  0  0  0
   -0.4239    4.3101   -3.2582 H   0  0  0  0  0  0  0  0  0  0  0  0
   -1.9401    4.5709   -2.3714 H   0  0  0  0  0  0  0  0  0  0  0  0
  1  2  1  0  0  0  0
  2  3  1  0  0  0  0
  2  4  1  0  0  0  0
  2  5  1  0  0  0  0
  5  6  2  0  0  0  0
  5  7  1  0  0  0  0
  7  8  1  0  0  0  0
  7  9  1  0  0  0  0
  9 10  1  0  0  0  0
  9 11  1  0  0  0  0
  9 29  1  0  0  0  0
 11 12  1  0  0  0  0
 11 13  1  0  0  0  0
 11 14  1  0  0  0  0
 14 15  1  0  0  0  0
 14 16  1  0  0  0  0
 14 17  1  0  0  0  0
 17 18  1  0  0  0  0
 17 19  1  0  0  0  0
 17 20  1  0  0  0  0
 20 21  1  0  0  0  0
 20 22  2  0  0  0  0
 22 23  1  0  0  0  0
 22 26  1  0  0  0  0
 23 24  1  0  0  0  0
 23 25  1  0  0  0  0
 26 27  1  0  0  0  0
 26 28  1  0  0  0  0
 29 30  2  0  0  0  0
 29 31  1  0  0  0  0
 31 32  1  0  0  0  0
 31 33  1  0  0  0  0
 33 34  1  0  0  0  0
 33 35  1  0  0  0  0
 33 36  1  0  0  0  0
M  CHG  1  20   1
M  END
$$$$

  -OEChem-02172215453D

 36 35  0     1  0  0  0  0  0999 V2000
   -4.5045   -1.6124    1.2685 H   0  0  0  0  0  0  0  0  0  0  0  0
   -4.3029   -0.6470    0.7958 C   0  0  0  0  0  0  0  0  0  0  0  0
   -4.9553    0.1058    1.2456 H   0  0  0  0  0  0  0  0  0  0  0  0
   -4.5284   -0.7238   -0.2703 H   0  0  0  0  0  0  0  0  0  0  0  0
   -2.8504   -0.2576    0.9959 C   0  0  0  0  0  0  0  0  0  0  0  0
   -2.1490   -0.9384    1.7254 O   0  0  0  0  0  0  0  0  0  0  0  0
   -2.3991    0.9349    0.4641 N   0  0  0  0  0  0  0  0  0  0  0  0
   -3.1274    1.5211    0.0583 H   0  0  0  0  0  0  0  0  0  0  0  0
   -1.0341    1.5058    0.4525 C   0  0  1  0  0  0  0  0  0  0  0  0
   -0.7330    1.6963    1.4890 H   0  0  0  0  0  0  0  0  0  0  0  0
    0.1086    0.7027   -0.2468 C   0  0  0  0  0  0  0  0  0  0  0  0
   -0.1947    0.4864   -1.2762 H   0  0  0  0  0  0  0  0  0  0  0  0
    0.9967    1.3439   -0.2884 H   0  0  0  0  0  0  0  0  0  0  0  0
    0.5219   -0.6224    0.4028 C   0  0  0  0  0  0  0  0  0  0  0  0
    0.8063   -0.4533    1.4473 H   0  0  0  0  0  0  0  0  0  0  0  0
   -0.3129   -1.3196    0.3697 H   0  0  0  0  0  0  0  0  0  0  0  0
    1.6474   -1.2998   -0.3722 C   0  0  0  0  0  0  0  0  0  0  0  0
    1.3234   -1.4811   -1.4027 H   0  0  0  0  0  0  0  0  0  0  0  0
    2.5258   -0.6449   -0.3881 H   0  0  0  0  0  0  0  0  0  0  0  0
    1.9638   -2.5715    0.3040 N   0  3  0  0  0  0  0  0  0  0  0  0
    1.4327   -2.7826    1.1495 H   0  0  0  0  0  0  0  0  0  0  0  0
    2.8412   -3.4314   -0.1236 C   0  0  0  0  0  0  0  0  0  0  0  0
    3.5674   -3.2201   -1.2732 N   0  0  0  0  0  0  0  0  0  0  0  0
    3.3003   -2.4417   -1.8716 H   0  0  0  0  0  0  0  0  0  0  0  0
    4.0587   -4.0059   -1.6948 H   0  0  0  0  0  0  0  0  0  0  0  0
    3.0509   -4.5888    0.5874 N   0  0  0  0  0  0  0  0  0  0  0  0
    2.6469   -4.6696    1.5190 H   0  0  0  0  0  0  0  0  0  0  0  0
    3.8748   -5.1484    0.3751 H   0  0  0  0  0  0  0  0  0  0  0  0
   -1.1265    2.8703   -0.2731 C   0  0  0  0  0  0  0  0  0  0  0  0
   -1.4557    3.8534    0.3714 O   0  0  0  0  0  0  0  0  0  0  0  0
   -0.9601    3.0027   -1.6423 N   0  0  0  0  0  0  0  0  0  0  0  0
   -0.7844    2.1613   -2.1814 H   0  0  0  0  0  0  0  0  0  0  0  0
   -1.1408    4.2670   -2.3503 C   0  0  0  0  0  0  0  0  0  0  0  0
   -0.4422    5.0215   -1.9727 H   0  0  0  0  0  0  0  0  0  0  0  0
   -0.9572    4.1336   -3.4208 H   0  0  0  0  0  0  0  0  0  0  0  0
   -2.1628    4.6388   -2.2191 H   0  0  0  0  0  0  0  0  0  0  0  0
  1  2  1  0  0  0  0
  2  3  1  0  0  0  0
  2  4  1  0  0  0  0
  2  5  1  0  0  0  0
  5  6  2  0  0  0  0
  5  7  1  0  0  0  0
  7  8  1  0  0  0  0
  7  9  1  0  0  0  0
  9 10  1  0  0  0  0
  9 11  1  0  0  0  0
  9 29  1  0  0  0  0
 11 12  1  0  0  0  0
 11 13  1  0  0  0  0
 11 14  1  0  0  0  0
 14 15  1  0  0  0  0
 14 16  1  0  0  0  0
 14 17  1  0  0  0  0
 17 18  1  0  0  0  0
 17 19  1  0  0  0  0
 17 20  1  0  0  0  0
 20 21  1  0  0  0  0
 20 22  2  0  0  0  0
 22 23  1  0  0  0  0
 22 26  1  0  0  0  0
 23 24  1  0  0  0  0
 23 25  1  0  0  0  0
 26 27  1  0  0  0  0
 26 28  1  0  0  0  0
 29 30  2  0  0  0  0
 29 31  1  0  0  0  0
 31 32  1  0  0  0  0
 31 33  1  0  0  0  0
 33 34  1  0  0  0  0
 33 35  1  0  0  0  0
 33 36  1  0  0  0  0
M  CHG  1  20   1
M  END
$$$$

  -OEChem-02172215453D

 36 35  0     1  0  0  0  0  0999 V2000
   -4.4995   -1.6422    1.3017 H   0  0  0  0  0  0  0  0  0  0  0  0
   -4.3120   -0.6780    0.8205 C   0  0  0  0  0  0  0  0  0  0  0  0
   -4.9790    0.0679    1.2604 H   0  0  0  0  0  0  0  0  0  0  0  0
   -4.5315   -0.7696   -0.2458 H   0  0  0  0  0  0  0  0  0  0  0  0
   -2.8669   -0.2633    1.0226 C   0  0  0  0  0  0  0  0  0  0  0  0
   -2.1567   -0.9262    1.7599 O   0  0  0  0  0  0  0  0  0  0  0  0
   -2.4282    0.9269    0.4738 N   0  0  0  0  0  0  0  0  0  0  0  0
   -3.1580    1.4897    0.0402 H   0  0  0  0  0  0  0  0  0  0  0  0
   -1.0646    1.5024    0.4559 C   0  0  1  0  0  0  0  0  0  0  0  0
   -0.7627    1.6974    1.4914 H   0  0  0  0  0  0  0  0  0  0  0  0
    0.0796    0.7066   -0.2463 C   0  0  0  0  0  0  0  0  0  0  0  0
   -0.2235    0.4910   -1.2760 H   0  0  0  0  0  0  0  0  0  0  0  0
    0.9644    1.3524   -0.2901 H   0  0  0  0  0  0  0  0  0  0  0  0
    0.5003   -0.6154    0.4041 C   0  0  0  0  0  0  0  0  0  0  0  0
    0.7883   -0.4428    1.4469 H   0  0  0  0  0  0  0  0  0  0  0  0
   -0.3322   -1.3159    0.3769 H   0  0  0  0  0  0  0  0  0  0  0  0
    1.6273   -1.2853   -0.3750 C   0  0  0  0  0  0  0  0  0  0  0  0
    1.3019   -1.4676   -1.4049 H   0  0  0  0  0  0  0  0  0  0  0  0
    2.5012   -0.6244   -0.3931 H   0  0  0  0  0  0  0  0  0  0  0  0
    1.9561   -2.5555    0.2973 N   0  3  0  0  0  0  0  0  0  0  0  0
    1.4346   -2.7693    1.1479 H   0  0  0  0  0  0  0  0  0  0  0  0
    2.8381   -3.4073   -0.1367 C   0  0  0  0  0  0  0  0  0  0  0  0
    3.5559   -3.1857   -1.2894 N   0  0  0  0  0  0  0  0  0  0  0  0
    3.2803   -2.4061   -1.8825 H   0  0  0  0  0  0  0  0  0  0  0  0
    4.0539   -3.9647   -1.7155 H   0  0  0  0  0  0  0  0  0  0  0  0
    3.0614   -4.5650    0.5694 N   0  0  0  0  0  0  0  0  0  0  0  0
    2.6621   -4.6524    1.5023 H   0  0  0  0  0  0  0  0  0  0  0  0
    3.8903   -5.1149    0.3520 H   0  0  0  0  0  0  0  0  0  0  0  0
   -1.1436    2.8578   -0.2821 C   0  0  0  0  0  0  0  0  0  0  0  0
   -1.1189    3.8915    0.3661 O   0  0  0  0  0  0  0  0  0  0  0  0
   -1.2734    2.9306   -1.6592 N   0  0  0  0  0  0  0  0  0  0  0  0
   -1.3503    2.0589   -2.1739 H   0  0  0  0  0  0  0  0  0  0  0  0
   -1.4075    4.1918   -2.3824 C   0  0  0  0  0  0  0  0  0  0  0  0
   -0.5324    4.8279   -2.2105 H   0  0  0  0  0  0  0  0  0  0  0  0
   -1.4933    4.0069   -3.4576 H   0  0  0  0  0  0  0  0  0  0  0  0
   -2.3020    4.7311   -2.0518 H   0  0  0  0  0  0  0  0  0  0  0  0
  1  2  1  0  0  0  0
  2  3  1  0  0  0  0
  2  4  1  0  0  0  0
  2  5  1  0  0  0  0
  5  6  2  0  0  0  0
  5  7  1  0  0  0  0
  7  8  1  0  0  0  0
  7  9  1  0  0  0  0
  9 10  1  0  0  0  0
  9 11  1  0  0  0  0
  9 29  1  0  0  0  0
 11 12  1  0  0  0  0
 11 13  1  0  0  0  0
 11 14  1  0  0  0  0
 14 15  1  0  0  0  0
 14 16  1  0  0  0  0
 14 17  1  0  0  0  0
 17 18  1  0  0  0  0
 17 19  1  0  0  0  0
 17 20  1  0  0  0  0
 20 21  1  0  0  0  0
 20 22  2  0  0  0  0
 22 23  1  0  0  0  0
 22 26  1  0  0  0  0
 23 24  1  0  0  0  0
 23 25  1  0  0  0  0
 26 27  1  0  0  0  0
 26 28  1  0  0  0  0
 29 30  2  0  0  0  0
 29 31  1  0  0  0  0
 31 32  1  0  0  0  0
 31 33  1  0  0  0  0
 33 34  1  0  0  0  0
 33 35  1  0  0  0  0
 33 36  1  0  0  0  0
M  CHG  1  20   1
M  END
$$$$

  -OEChem-02172215453D

 36 35  0     1  0  0  0  0  0999 V2000
   -4.5034   -1.6655    1.3496 H   0  0  0  0  0  0  0  0  0  0  0  0
   -4.3267   -0.7061    0.8550 C   0  0  0  0  0  0  0  0  0  0  0  0
   -5.0021    0.0383    1.2844 H   0  0  0  0  0  0  0  0  0  0  0  0
   -4.5455   -0.8146   -0.2100 H   0  0  0  0  0  0  0  0  0  0  0  0
   -2.8861   -0.2735    1.0518 C   0  0  0  0  0  0  0  0  0  0  0  0
   -2.1679   -0.9187    1.7967 O   0  0  0  0  0  0  0  0  0  0  0  0
   -2.4591    0.9139    0.4883 N   0  0  0  0  0  0  0  0  0  0  0  0
   -3.1930    1.4645    0.0465 H   0  0  0  0  0  0  0  0  0  0  0  0
   -1.0991    1.4995    0.4752 C   0  0  1  0  0  0  0  0  0  0  0  0
   -0.8008    1.6995    1.5109 H   0  0  0  0  0  0  0  0  0  0  0  0
    0.0473    0.7122   -0.2295 C   0  0  0  0  0  0  0  0  0  0  0  0
   -0.2544    0.5058   -1.2618 H   0  0  0  0  0  0  0  0  0  0  0  0
    0.9295    1.3616   -0.2679 H   0  0  0  0  0  0  0  0  0  0  0  0
    0.4750   -0.6109    0.4139 C   0  0  0  0  0  0  0  0  0  0  0  0
    0.7663   -0.4408    1.4563 H   0  0  0  0  0  0  0  0  0  0  0  0
   -0.3548   -1.3155    0.3874 H   0  0  0  0  0  0  0  0  0  0  0  0
    1.6048   -1.2677   -0.3728 C   0  0  0  0  0  0  0  0  0  0  0  0
    1.2770   -1.4430   -1.4033 H   0  0  0  0  0  0  0  0  0  0  0  0
    2.4737   -0.6000   -0.3886 H   0  0  0  0  0  0  0  0  0  0  0  0
    1.9466   -2.5413    0.2870 N   0  3  0  0  0  0  0  0  0  0  0  0
    1.4333   -2.7657    1.1399 H   0  0  0  0  0  0  0  0  0  0  0  0
    2.8344   -3.3813   -0.1588 C   0  0  0  0  0  0  0  0  0  0  0  0
    3.5459   -3.1431   -1.3126 N   0  0  0  0  0  0  0  0  0  0  0  0
    3.2640   -2.3584   -1.8962 H   0  0  0  0  0  0  0  0  0  0  0  0
    4.0493   -3.9134   -1.7481 H   0  0  0  0  0  0  0  0  0  0  0  0
    3.0720   -4.5428    0.5367 N   0  0  0  0  0  0  0  0  0  0  0  0
    2.6781   -4.6415    1.4709 H   0  0  0  0  0  0  0  0  0  0  0  0
    3.9047   -5.0836    0.3105 H   0  0  0  0  0  0  0  0  0  0  0  0
   -1.1655    2.8449   -0.2788 C   0  0  0  0  0  0  0  0  0  0  0  0
   -0.8218    3.8702    0.2870 O   0  0  0  0  0  0  0  0  0  0  0  0
   -1.5793    2.9037   -1.5992 N   0  0  0  0  0  0  0  0  0  0  0  0
   -1.8432    2.0345   -2.0527 H   0  0  0  0  0  0  0  0  0  0  0  0
   -1.6638    4.1501   -2.3542 C   0  0  0  0  0  0  0  0  0  0  0  0
   -0.6805    4.6286   -2.4171 H   0  0  0  0  0  0  0  0  0  0  0  0
   -2.0187    3.9562   -3.3711 H   0  0  0  0  0  0  0  0  0  0  0  0
   -2.3609    4.8442   -1.8721 H   0  0  0  0  0  0  0  0  0  0  0  0
  1  2  1  0  0  0  0
  2  3  1  0  0  0  0
  2  4  1  0  0  0  0
  2  5  1  0  0  0  0
  5  6  2  0  0  0  0
  5  7  1  0  0  0  0
  7  8  1  0  0  0  0
  7  9  1  0  0  0  0
  9 10  1  0  0  0  0
  9 11  1  0  0  0  0
  9 29  1  0  0  0  0
 11 12  1  0  0  0  0
 11 13  1  0  0  0  0
 11 14  1  0  0  0  0
 14 15  1  0  0  0  0
 14 16  1  0  0  0  0
 14 17  1  0  0  0  0
 17 18  1  0  0  0  0
 17 19  1  0  0  0  0
 17 20  1  0  0  0  0
 20 21  1  0  0  0  0
 20 22  2  0  0  0  0
 22 23  1  0  0  0  0
 22 26  1  0  0  0  0
 23 24  1  0  0  0  0
 23 25  1  0  0  0  0
 26 27  1  0  0  0  0
 26 28  1  0  0  0  0
 29 30  2  0  0  0  0
 29 31  1  0  0  0  0
 31 32  1  0  0  0  0
 31 33  1  0  0  0  0
 33 34  1  0  0  0  0
 33 35  1  0  0  0  0
 33 36  1  0  0  0  0
M  CHG  1  20   1
M  END
$$$$

  -OEChem-02172215453D

 36 35  0     1  0  0  0  0  0999 V2000
   -4.5198   -1.6823    1.4019 H   0  0  0  0  0  0  0  0  0  0  0  0
   -4.3472   -0.7293    0.8936 C   0  0  0  0  0  0  0  0  0  0  0  0
   -5.0213    0.0196    1.3172 H   0  0  0  0  0  0  0  0  0  0  0  0
   -4.5713   -0.8522   -0.1685 H   0  0  0  0  0  0  0  0  0  0  0  0
   -2.9065   -0.2909    1.0768 C   0  0  0  0  0  0  0  0  0  0  0  0
   -2.1828   -0.9257    1.8250 O   0  0  0  0  0  0  0  0  0  0  0  0
   -2.4876    0.8945    0.5024 N   0  0  0  0  0  0  0  0  0  0  0  0
   -3.2290    1.4484    0.0784 H   0  0  0  0  0  0  0  0  0  0  0  0
   -1.1320    1.4927    0.4980 C   0  0  1  0  0  0  0  0  0  0  0  0
   -0.8399    1.6999    1.5340 H   0  0  0  0  0  0  0  0  0  0  0  0
    0.0174    0.7101   -0.2062 C   0  0  0  0  0  0  0  0  0  0  0  0
   -0.2843    0.5094   -1.2399 H   0  0  0  0  0  0  0  0  0  0  0  0
    0.8990    1.3612   -0.2422 H   0  0  0  0  0  0  0  0  0  0  0  0
    0.4517   -0.6136    0.4309 C   0  0  0  0  0  0  0  0  0  0  0  0
    0.7456   -0.4470    1.4731 H   0  0  0  0  0  0  0  0  0  0  0  0
   -0.3748   -1.3224    0.4043 H   0  0  0  0  0  0  0  0  0  0  0  0
    1.5844   -1.2553   -0.3645 C   0  0  0  0  0  0  0  0  0  0  0  0
    1.2546   -1.4235   -1.3954 H   0  0  0  0  0  0  0  0  0  0  0  0
    2.4477   -0.5801   -0.3775 H   0  0  0  0  0  0  0  0  0  0  0  0
    1.9413   -2.5319    0.2806 N   0  3  0  0  0  0  0  0  0  0  0  0
    1.4350   -2.7701    1.1338 H   0  0  0  0  0  0  0  0  0  0  0  0
    2.8354   -3.3571   -0.1796 C   0  0  0  0  0  0  0  0  0  0  0  0
    3.5377   -3.0969   -1.3343 N   0  0  0  0  0  0  0  0  0  0  0  0
    3.2433   -2.3081   -1.9063 H   0  0  0  0  0  0  0  0  0  0  0  0
    4.0461   -3.8563   -1.7826 H   0  0  0  0  0  0  0  0  0  0  0  0
    3.0891   -4.5244    0.5000 N   0  0  0  0  0  0  0  0  0  0  0  0
    2.7019   -4.6386    1.4352 H   0  0  0  0  0  0  0  0  0  0  0  0
    3.9272   -5.0521    0.2634 H   0  0  0  0  0  0  0  0  0  0  0  0
   -1.1848    2.8306   -0.2704 C   0  0  0  0  0  0  0  0  0  0  0  0
   -0.5882    3.8009    0.1689 O   0  0  0  0  0  0  0  0  0  0  0  0
   -1.8548    2.9328   -1.4784 N   0  0  0  0  0  0  0  0  0  0  0  0
   -2.2517    2.0853   -1.8722 H   0  0  0  0  0  0  0  0  0  0  0  0
   -1.9027    4.1648   -2.2603 C   0  0  0  0  0  0  0  0  0  0  0  0
   -0.8945    4.4674   -2.5629 H   0  0  0  0  0  0  0  0  0  0  0  0
   -2.5059    4.0207   -3.1620 H   0  0  0  0  0  0  0  0  0  0  0  0
   -2.3504    4.9744   -1.6735 H   0  0  0  0  0  0  0  0  0  0  0  0
  1  2  1  0  0  0  0
  2  3  1  0  0  0  0
  2  4  1  0  0  0  0
  2  5  1  0  0  0  0
  5  6  2  0  0  0  0
  5  7  1  0  0  0  0
  7  8  1  0  0  0  0
  7  9  1  0  0  0  0
  9 10  1  0  0  0  0
  9 11  1  0  0  0  0
  9 29  1  0  0  0  0
 11 12  1  0  0  0  0
 11 13  1  0  0  0  0
 11 14  1  0  0  0  0
 14 15  1  0  0  0  0
 14 16  1  0  0  0  0
 14 17  1  0  0  0  0
 17 18  1  0  0  0  0
 17 19  1  0  0  0  0
 17 20  1  0  0  0  0
 20 21  1  0  0  0  0
 20 22  2  0  0  0  0
 22 23  1  0  0  0  0
 22 26  1  0  0  0  0
 23 24  1  0  0  0  0
 23 25  1  0  0  0  0
 26 27  1  0  0  0  0
 26 28  1  0  0  0  0
 29 30  2  0  0  0  0
 29 31  1  0  0  0  0
 31 32  1  0  0  0  0
 31 33  1  0  0  0  0
 33 34  1  0  0  0  0
 33 35  1  0  0  0  0
 33 36  1  0  0  0  0
M  CHG  1  20   1
M  END
$$$$

  -OEChem-02172215453D

 36 35  0     1  0  0  0  0  0999 V2000
   -4.5092   -1.7170    1.4305 H   0  0  0  0  0  0  0  0  0  0  0  0
   -4.3461   -0.7643    0.9185 C   0  0  0  0  0  0  0  0  0  0  0  0
   -5.0302   -0.0213    1.3362 H   0  0  0  0  0  0  0  0  0  0  0  0
   -4.5647   -0.8950   -0.1438 H   0  0  0  0  0  0  0  0  0  0  0  0
   -2.9110   -0.3090    1.1032 C   0  0  0  0  0  0  0  0  0  0  0  0
   -2.1838   -0.9286    1.8606 O   0  0  0  0  0  0  0  0  0  0  0  0
   -2.5039    0.8757    0.5183 N   0  0  0  0  0  0  0  0  0  0  0  0
   -3.2557    1.4296    0.1145 H   0  0  0  0  0  0  0  0  0  0  0  0
   -1.1546    1.4907    0.5198 C   0  0  1  0  0  0  0  0  0  0  0  0
   -0.8659    1.7037    1.5553 H   0  0  0  0  0  0  0  0  0  0  0  0
   -0.0060    0.7068   -0.1861 C   0  0  0  0  0  0  0  0  0  0  0  0
   -0.3111    0.5087   -1.2194 H   0  0  0  0  0  0  0  0  0  0  0  0
    0.8773    1.3556   -0.2247 H   0  0  0  0  0  0  0  0  0  0  0  0
    0.4345   -0.6165    0.4474 C   0  0  0  0  0  0  0  0  0  0  0  0
    0.7320   -0.4515    1.4891 H   0  0  0  0  0  0  0  0  0  0  0  0
   -0.3891   -1.3287    0.4212 H   0  0  0  0  0  0  0  0  0  0  0  0
    1.5651   -1.2499   -0.3572 C   0  0  0  0  0  0  0  0  0  0  0  0
    1.2292   -1.4158   -1.3867 H   0  0  0  0  0  0  0  0  0  0  0  0
    2.4242   -0.5694   -0.3736 H   0  0  0  0  0  0  0  0  0  0  0  0
    1.9346   -2.5276    0.2783 N   0  3  0  0  0  0  0  0  0  0  0  0
    1.4360   -2.7735    1.1338 H   0  0  0  0  0  0  0  0  0  0  0  0
    2.8307   -3.3445   -0.1936 C   0  0  0  0  0  0  0  0  0  0  0  0
    3.5224   -3.0737   -1.3522 N   0  0  0  0  0  0  0  0  0  0  0  0
    3.2171   -2.2856   -1.9194 H   0  0  0  0  0  0  0  0  0  0  0  0
    4.0358   -3.8262   -1.8065 H   0  0  0  0  0  0  0  0  0  0  0  0
    3.1011   -4.5125    0.4786 N   0  0  0  0  0  0  0  0  0  0  0  0
    2.7276   -4.6305    1.4187 H   0  0  0  0  0  0  0  0  0  0  0  0
    3.9436   -5.0290    0.2330 H   0  0  0  0  0  0  0  0  0  0  0  0
   -1.1954    2.8242   -0.2612 C   0  0  0  0  0  0  0  0  0  0  0  0
   -0.4197    3.7189    0.0387 O   0  0  0  0  0  0  0  0  0  0  0  0
   -2.0811    3.0173   -1.3093 N   0  0  0  0  0  0  0  0  0  0  0  0
   -2.5925    2.2081   -1.6462 H   0  0  0  0  0  0  0  0  0  0  0  0
   -2.1262    4.2483   -2.0930 C   0  0  0  0  0  0  0  0  0  0  0  0
   -1.1779    4.4065   -2.6174 H   0  0  0  0  0  0  0  0  0  0  0  0
   -2.9284    4.1974   -2.8356 H   0  0  0  0  0  0  0  0  0  0  0  0
   -2.3152    5.1100   -1.4436 H   0  0  0  0  0  0  0  0  0  0  0  0
  1  2  1  0  0  0  0
  2  3  1  0  0  0  0
  2  4  1  0  0  0  0
  2  5  1  0  0  0  0
  5  6  2  0  0  0  0
  5  7  1  0  0  0  0
  7  8  1  0  0  0  0
  7  9  1  0  0  0  0
  9 10  1  0  0  0  0
  9 11  1  0  0  0  0
  9 29  1  0  0  0  0
 11 12  1  0  0  0  0
 11 13  1  0  0  0  0
 11 14  1  0  0  0  0
 14 15  1  0  0  0  0
 14 16  1  0  0  0  0
 14 17  1  0  0  0  0
 17 18  1  0  0  0  0
 17 19  1  0  0  0  0
 17 20  1  0  0  0  0
 20 21  1  0  0  0  0
 20 22  2  0  0  0  0
 22 23  1  0  0  0  0
 22 26  1  0  0  0  0
 23 24  1  0  0  0  0
 23 25  1  0  0  0  0
 26 27  1  0  0  0  0
 26 28  1  0  0  0  0
 29 30  2  0  0  0  0
 29 31  1  0  0  0  0
 31 32  1  0  0  0  0
 31 33  1  0  0  0  0
 33 34  1  0  0  0  0
 33 35  1  0  0  0  0
 33 36  1  0  0  0  0
M  CHG  1  20   1
M  END
$$$$

  -OEChem-02172215453D

 36 35  0     1  0  0  0  0  0999 V2000
   -4.4860   -1.7558    1.4645 H   0  0  0  0  0  0  0  0  0  0  0  0
   -4.3340   -0.8111    0.9347 C   0  0  0  0  0  0  0  0  0  0  0  0
   -5.0354   -0.0722    1.3303 H   0  0  0  0  0  0  0  0  0  0  0  0
   -4.5400   -0.9679   -0.1266 H   0  0  0  0  0  0  0  0  0  0  0  0
   -2.9085   -0.3276    1.1244 C   0  0  0  0  0  0  0  0  0  0  0  0
   -2.1799   -0.9195    1.9026 O   0  0  0  0  0  0  0  0  0  0  0  0
   -2.5163    0.8565    0.5277 N   0  0  0  0  0  0  0  0  0  0  0  0
   -3.2758    1.3943    0.1199 H   0  0  0  0  0  0  0  0  0  0  0  0
   -1.1734    1.4885    0.5286 C   0  0  1  0  0  0  0  0  0  0  0  0
   -0.8853    1.7082    1.5629 H   0  0  0  0  0  0  0  0  0  0  0  0
   -0.0272    0.6921   -0.1727 C   0  0  0  0  0  0  0  0  0  0  0  0
   -0.3385    0.4865   -1.2026 H   0  0  0  0  0  0  0  0  0  0  0  0
    0.8599    1.3344   -0.2228 H   0  0  0  0  0  0  0  0  0  0  0  0
    0.4210   -0.6258    0.4672 C   0  0  0  0  0  0  0  0  0  0  0  0
    0.7282   -0.4536    1.5048 H   0  0  0  0  0  0  0  0  0  0  0  0
   -0.3988   -1.3426    0.4527 H   0  0  0  0  0  0  0  0  0  0  0  0
    1.5467   -1.2562   -0.3462 C   0  0  0  0  0  0  0  0  0  0  0  0
    1.2001   -1.4263   -1.3713 H   0  0  0  0  0  0  0  0  0  0  0  0
    2.4009   -0.5702   -0.3735 H   0  0  0  0  0  0  0  0  0  0  0  0
    1.9339   -2.5304    0.2856 N   0  3  0  0  0  0  0  0  0  0  0  0
    1.4483   -2.7801    1.1473 H   0  0  0  0  0  0  0  0  0  0  0  0
    2.8309   -3.3387   -0.1988 C   0  0  0  0  0  0  0  0  0  0  0  0
    3.5037   -3.0587   -1.3664 N   0  0  0  0  0  0  0  0  0  0  0  0
    3.1817   -2.2727   -1.9274 H   0  0  0  0  0  0  0  0  0  0  0  0
    4.0154   -3.8060   -1.8311 H   0  0  0  0  0  0  0  0  0  0  0  0
    3.1233   -4.5038    0.4693 N   0  0  0  0  0  0  0  0  0  0  0  0
    2.7659   -4.6254    1.4153 H   0  0  0  0  0  0  0  0  0  0  0  0
    3.9681   -5.0106    0.2115 H   0  0  0  0  0  0  0  0  0  0  0  0
   -1.2043    2.8208   -0.2640 C   0  0  0  0  0  0  0  0  0  0  0  0
   -0.3009    3.6296   -0.1082 O   0  0  0  0  0  0  0  0  0  0  0  0
   -2.2513    3.1473   -1.1126 N   0  0  0  0  0  0  0  0  0  0  0  0
   -2.8894    2.4057   -1.3781 H   0  0  0  0  0  0  0  0  0  0  0  0
   -2.3014    4.4019   -1.8585 C   0  0  0  0  0  0  0  0  0  0  0  0
   -1.4626    4.4672   -2.5595 H   0  0  0  0  0  0  0  0  0  0  0  0
   -3.2346    4.4702   -2.4262 H   0  0  0  0  0  0  0  0  0  0  0  0
   -2.2539    5.2568   -1.1751 H   0  0  0  0  0  0  0  0  0  0  0  0
  1  2  1  0  0  0  0
  2  3  1  0  0  0  0
  2  4  1  0  0  0  0
  2  5  1  0  0  0  0
  5  6  2  0  0  0  0
  5  7  1  0  0  0  0
  7  8  1  0  0  0  0
  7  9  1  0  0  0  0
  9 10  1  0  0  0  0
  9 11  1  0  0  0  0
  9 29  1  0  0  0  0
 11 12  1  0  0  0  0
 11 13  1  0  0  0  0
 11 14  1  0  0  0  0
 14 15  1  0  0  0  0
 14 16  1  0  0  0  0
 14 17  1  0  0  0  0
 17 18  1  0  0  0  0
 17 19  1  0  0  0  0
 17 20  1  0  0  0  0
 20 21  1  0  0  0  0
 20 22  2  0  0  0  0
 22 23  1  0  0  0  0
 22 26  1  0  0  0  0
 23 24  1  0  0  0  0
 23 25  1  0  0  0  0
 26 27  1  0  0  0  0
 26 28  1  0  0  0  0
 29 30  2  0  0  0  0
 29 31  1  0  0  0  0
 31 32  1  0  0  0  0
 31 33  1  0  0  0  0
 33 34  1  0  0  0  0
 33 35  1  0  0  0  0
 33 36  1  0  0  0  0
M  CHG  1  20   1
M  END
$$$$

  -OEChem-02172215453D

 36 35  0     1  0  0  0  0  0999 V2000
   -4.1696   -1.9428    1.3302 H   0  0  0  0  0  0  0  0  0  0  0  0
   -4.0992   -0.9889    0.7999 C   0  0  0  0  0  0  0  0  0  0  0  0
   -4.9564   -0.3706    1.0779 H   0  0  0  0  0  0  0  0  0  0  0  0
   -4.1303   -1.1823   -0.2750 H   0  0  0  0  0  0  0  0  0  0  0  0
   -2.8096   -0.2805    1.1687 C   0  0  0  0  0  0  0  0  0  0  0  0
   -2.1225   -0.7157    2.0782 O   0  0  0  0  0  0  0  0  0  0  0  0
   -2.4873    0.9131    0.5526 N   0  0  0  0  0  0  0  0  0  0  0  0
   -3.1135    1.1520   -0.2108 H   0  0  0  0  0  0  0  0  0  0  0  0
   -1.1469    1.5486    0.5047 C   0  0  1  0  0  0  0  0  0  0  0  0
   -0.8288    1.7753    1.5284 H   0  0  0  0  0  0  0  0  0  0  0  0
   -0.0340    0.7082   -0.2041 C   0  0  0  0  0  0  0  0  0  0  0  0
   -0.3784    0.4753   -1.2175 H   0  0  0  0  0  0  0  0  0  0  0  0
    0.8670    1.3240   -0.3004 H   0  0  0  0  0  0  0  0  0  0  0  0
    0.4089   -0.5929    0.4758 C   0  0  0  0  0  0  0  0  0  0  0  0
    0.7553   -0.3825    1.4938 H   0  0  0  0  0  0  0  0  0  0  0  0
   -0.4234   -1.2945    0.5238 H   0  0  0  0  0  0  0  0  0  0  0  0
    1.4982   -1.2740   -0.3461 C   0  0  0  0  0  0  0  0  0  0  0  0
    1.1181   -1.4760   -1.3533 H   0  0  0  0  0  0  0  0  0  0  0  0
    2.3623   -0.6046   -0.4257 H   0  0  0  0  0  0  0  0  0  0  0  0
    1.8835   -2.5303    0.3215 N   0  3  0  0  0  0  0  0  0  0  0  0
    1.4280   -2.7354    1.2108 H   0  0  0  0  0  0  0  0  0  0  0  0
    2.7516   -3.3711   -0.1603 C   0  0  0  0  0  0  0  0  0  0  0  0
    3.3915   -3.1460   -1.3577 N   0  0  0  0  0  0  0  0  0  0  0  0
    3.0672   -2.3740   -1.9366 H   0  0  0  0  0  0  0  0  0  0  0  0
    3.8789   -3.9172   -1.8091 H   0  0  0  0  0  0  0  0  0  0  0  0
    3.0450   -4.5164    0.5404 N   0  0  0  0  0  0  0  0  0  0  0  0
    2.7191   -4.5957    1.5020 H   0  0  0  0  0  0  0  0  0  0  0  0
    3.8695   -5.0502    0.2720 H   0  0  0  0  0  0  0  0  0  0  0  0
   -1.2167    2.8915   -0.2773 C   0  0  0  0  0  0  0  0  0  0  0  0
   -0.1974    3.5327   -0.4945 O   0  0  0  0  0  0  0  0  0  0  0  0
   -2.4078    3.3535   -0.8172 N   0  0  0  0  0  0  0  0  0  0  0  0
   -3.2594    2.9751   -0.4166 H   0  0  0  0  0  0  0  0  0  0  0  0
   -2.5033    4.6312   -1.5195 C   0  0  0  0  0  0  0  0  0  0  0  0
   -1.8261    4.6490   -2.3802 H   0  0  0  0  0  0  0  0  0  0  0  0
   -3.5232    4.7896   -1.8836 H   0  0  0  0  0  0  0  0  0  0  0  0
   -2.2407    5.4585   -0.8511 H   0  0  0  0  0  0  0  0  0  0  0  0
  1  2  1  0  0  0  0
  2  3  1  0  0  0  0
  2  4  1  0  0  0  0
  2  5  1  0  0  0  0
  5  6  2  0  0  0  0
  5  7  1  0  0  0  0
  7  8  1  0  0  0  0
  7  9  1  0  0  0  0
  9 10  1  0  0  0  0
  9 11  1  0  0  0  0
  9 29  1  0  0  0  0
 11 12  1  0  0  0  0
 11 13  1  0  0  0  0
 11 14  1  0  0  0  0
 14 15  1  0  0  0  0
 14 16  1  0  0  0  0
 14 17  1  0  0  0  0
 17 18  1  0  0  0  0
 17 19  1  0  0  0  0
 17 20  1  0  0  0  0
 20 21  1  0  0  0  0
 20 22  2  0  0  0  0
 22 23  1  0  0  0  0
 22 26  1  0  0  0  0
 23 24  1  0  0  0  0
 23 25  1  0  0  0  0
 26 27  1  0  0  0  0
 26 28  1  0  0  0  0
 29 30  2  0  0  0  0
 29 31  1  0  0  0  0
 31 32  1  0  0  0  0
 31 33  1  0  0  0  0
 33 34  1  0  0  0  0
 33 35  1  0  0  0  0
 33 36  1  0  0  0  0
M  CHG  1  20   1
M  END
$$$$

  -OEChem-02172215453D

 36 35  0     1  0  0  0  0  0999 V2000
   -4.1992   -1.9118    1.3048 H   0  0  0  0  0  0  0  0  0  0  0  0
   -4.1113   -0.9571    0.7781 C   0  0  0  0  0  0  0  0  0  0  0  0
   -4.9602   -0.3262    1.0532 H   0  0  0  0  0  0  0  0  0  0  0  0
   -4.1399   -1.1462   -0.2977 H   0  0  0  0  0  0  0  0  0  0  0  0
   -2.8130   -0.2696    1.1552 C   0  0  0  0  0  0  0  0  0  0  0  0
   -2.1346   -0.7189    2.0646 O   0  0  0  0  0  0  0  0  0  0  0  0
   -2.4737    0.9245    0.5498 N   0  0  0  0  0  0  0  0  0  0  0  0
   -3.1017    1.1913   -0.2049 H   0  0  0  0  0  0  0  0  0  0  0  0
   -1.1288    1.5496    0.5075 C   0  0  1  0  0  0  0  0  0  0  0  0
   -0.8118    1.7768    1.5310 H   0  0  0  0  0  0  0  0  0  0  0  0
   -0.0167    0.7017   -0.1945 C   0  0  0  0  0  0  0  0  0  0  0  0
   -0.3548    0.4735   -1.2111 H   0  0  0  0  0  0  0  0  0  0  0  0
    0.8892    1.3116   -0.2801 H   0  0  0  0  0  0  0  0  0  0  0  0
    0.4169   -0.6020    0.4856 C   0  0  0  0  0  0  0  0  0  0  0  0
    0.7611   -0.3946    1.5049 H   0  0  0  0  0  0  0  0  0  0  0  0
   -0.4184   -1.3001    0.5297 H   0  0  0  0  0  0  0  0  0  0  0  0
    1.5066   -1.2830   -0.3362 C   0  0  0  0  0  0  0  0  0  0  0  0
    1.1278   -1.4804   -1.3451 H   0  0  0  0  0  0  0  0  0  0  0  0
    2.3726   -0.6157   -0.4117 H   0  0  0  0  0  0  0  0  0  0  0  0
    1.8890   -2.5432    0.3248 N   0  3  0  0  0  0  0  0  0  0  0  0
    1.4279   -2.7557    1.2094 H   0  0  0  0  0  0  0  0  0  0  0  0
    2.7569   -3.3813   -0.1620 C   0  0  0  0  0  0  0  0  0  0  0  0
    3.3977   -3.1479   -1.3576 N   0  0  0  0  0  0  0  0  0  0  0  0
    3.0750   -2.3710   -1.9308 H   0  0  0  0  0  0  0  0  0  0  0  0
    3.8851   -3.9160   -1.8143 H   0  0  0  0  0  0  0  0  0  0  0  0
    3.0518   -4.5305    0.5319 N   0  0  0  0  0  0  0  0  0  0  0  0
    2.7257   -4.6157    1.4930 H   0  0  0  0  0  0  0  0  0  0  0  0
    3.8797   -5.0587    0.2625 H   0  0  0  0  0  0  0  0  0  0  0  0
   -1.2207    2.8950   -0.2718 C   0  0  0  0  0  0  0  0  0  0  0  0
   -0.2236    3.4342   -0.7335 O   0  0  0  0  0  0  0  0  0  0  0  0
   -2.4521    3.4814   -0.5215 N   0  0  0  0  0  0  0  0  0  0  0  0
   -3.2254    3.1641    0.0559 H   0  0  0  0  0  0  0  0  0  0  0  0
   -2.5873    4.7708   -1.1949 C   0  0  0  0  0  0  0  0  0  0  0  0
   -2.1326    4.7339   -2.1907 H   0  0  0  0  0  0  0  0  0  0  0  0
   -3.6440    5.0308   -1.3111 H   0  0  0  0  0  0  0  0  0  0  0  0
   -2.0976    5.5607   -0.6153 H   0  0  0  0  0  0  0  0  0  0  0  0
  1  2  1  0  0  0  0
  2  3  1  0  0  0  0
  2  4  1  0  0  0  0
  2  5  1  0  0  0  0
  5  6  2  0  0  0  0
  5  7  1  0  0  0  0
  7  8  1  0  0  0  0
  7  9  1  0  0  0  0
  9 10  1  0  0  0  0
  9 11  1  0  0  0  0
  9 29  1  0  0  0  0
 11 12  1  0  0  0  0
 11 13  1  0  0  0  0
 11 14  1  0  0  0  0
 14 15  1  0  0  0  0
 14 16  1  0  0  0  0
 14 17  1  0  0  0  0
 17 18  1  0  0  0  0
 17 19  1  0  0  0  0
 17 20  1  0  0  0  0
 20 21  1  0  0  0  0
 20 22  2  0  0  0  0
 22 23  1  0  0  0  0
 22 26  1  0  0  0  0
 23 24  1  0  0  0  0
 23 25  1  0  0  0  0
 26 27  1  0  0  0  0
 26 28  1  0  0  0  0
 29 30  2  0  0  0  0
 29 31  1  0  0  0  0
 31 32  1  0  0  0  0
 31 33  1  0  0  0  0
 33 34  1  0  0  0  0
 33 35  1  0  0  0  0
 33 36  1  0  0  0  0
M  CHG  1  20   1
M  END
$$$$

  -OEChem-02172215453D

 36 35  0     1  0  0  0  0  0999 V2000
   -4.2357   -1.8810    1.2834 H   0  0  0  0  0  0  0  0  0  0  0  0
   -4.1355   -0.9218    0.7674 C   0  0  0  0  0  0  0  0  0  0  0  0
   -4.9700   -0.2790    1.0581 H   0  0  0  0  0  0  0  0  0  0  0  0
   -4.1778   -1.0971   -0.3102 H   0  0  0  0  0  0  0  0  0  0  0  0
   -2.8206   -0.2630    1.1390 C   0  0  0  0  0  0  0  0  0  0  0  0
   -2.1443   -0.7328    2.0397 O   0  0  0  0  0  0  0  0  0  0  0  0
   -2.4646    0.9319    0.5451 N   0  0  0  0  0  0  0  0  0  0  0  0
   -3.1037    1.2378   -0.1864 H   0  0  0  0  0  0  0  0  0  0  0  0
   -1.1155    1.5465    0.5109 C   0  0  1  0  0  0  0  0  0  0  0  0
   -0.8016    1.7704    1.5361 H   0  0  0  0  0  0  0  0  0  0  0  0
   -0.0005    0.6987   -0.1858 C   0  0  0  0  0  0  0  0  0  0  0  0
   -0.3298    0.4757   -1.2066 H   0  0  0  0  0  0  0  0  0  0  0  0
    0.9060    1.3103   -0.2588 H   0  0  0  0  0  0  0  0  0  0  0  0
    0.4258   -0.6091    0.4906 C   0  0  0  0  0  0  0  0  0  0  0  0
    0.7638   -0.4085    1.5132 H   0  0  0  0  0  0  0  0  0  0  0  0
   -0.4116   -1.3053    0.5246 H   0  0  0  0  0  0  0  0  0  0  0  0
    1.5195   -1.2853   -0.3295 C   0  0  0  0  0  0  0  0  0  0  0  0
    1.1455   -1.4751   -1.3414 H   0  0  0  0  0  0  0  0  0  0  0  0
    2.3861   -0.6178   -0.3965 H   0  0  0  0  0  0  0  0  0  0  0  0
    1.8972   -2.5503    0.3250 N   0  3  0  0  0  0  0  0  0  0  0  0
    1.4275   -2.7715    1.2029 H   0  0  0  0  0  0  0  0  0  0  0  0
    2.7672   -3.3857   -0.1626 C   0  0  0  0  0  0  0  0  0  0  0  0
    3.4151   -3.1449   -1.3528 N   0  0  0  0  0  0  0  0  0  0  0  0
    3.0934   -2.3652   -1.9230 H   0  0  0  0  0  0  0  0  0  0  0  0
    3.8985   -3.9129   -1.8141 H   0  0  0  0  0  0  0  0  0  0  0  0
    3.0551   -4.5407    0.5247 N   0  0  0  0  0  0  0  0  0  0  0  0
    2.7220   -4.6322    1.4828 H   0  0  0  0  0  0  0  0  0  0  0  0
    3.8839   -5.0684    0.2571 H   0  0  0  0  0  0  0  0  0  0  0  0
   -1.2216    2.8939   -0.2633 C   0  0  0  0  0  0  0  0  0  0  0  0
   -0.3102    3.3204   -0.9610 O   0  0  0  0  0  0  0  0  0  0  0  0
   -2.4056    3.6128   -0.2291 N   0  0  0  0  0  0  0  0  0  0  0  0
   -3.0810    3.3418    0.4808 H   0  0  0  0  0  0  0  0  0  0  0  0
   -2.5655    4.9123   -0.8766 C   0  0  0  0  0  0  0  0  0  0  0  0
   -2.3753    4.8320   -1.9522 H   0  0  0  0  0  0  0  0  0  0  0  0
   -3.5849    5.2847   -0.7359 H   0  0  0  0  0  0  0  0  0  0  0  0
   -1.8682    5.6421   -0.4512 H   0  0  0  0  0  0  0  0  0  0  0  0
  1  2  1  0  0  0  0
  2  3  1  0  0  0  0
  2  4  1  0  0  0  0
  2  5  1  0  0  0  0
  5  6  2  0  0  0  0
  5  7  1  0  0  0  0
  7  8  1  0  0  0  0
  7  9  1  0  0  0  0
  9 10  1  0  0  0  0
  9 11  1  0  0  0  0
  9 29  1  0  0  0  0
 11 12  1  0  0  0  0
 11 13  1  0  0  0  0
 11 14  1  0  0  0  0
 14 15  1  0  0  0  0
 14 16  1  0  0  0  0
 14 17  1  0  0  0  0
 17 18  1  0  0  0  0
 17 19  1  0  0  0  0
 17 20  1  0  0  0  0
 20 21  1  0  0  0  0
 20 22  2  0  0  0  0
 22 23  1  0  0  0  0
 22 26  1  0  0  0  0
 23 24  1  0  0  0  0
 23 25  1  0  0  0  0
 26 27  1  0  0  0  0
 26 28  1  0  0  0  0
 29 30  2  0  0  0  0
 29 31  1  0  0  0  0
 31 32  1  0  0  0  0
 31 33  1  0  0  0  0
 33 34  1  0  0  0  0
 33 35  1  0  0  0  0
 33 36  1  0  0  0  0
M  CHG  1  20   1
M  END
$$$$

  -OEChem-02172215453D

 36 35  0     1  0  0  0  0  0999 V2000
   -4.2660   -1.8494    1.2704 H   0  0  0  0  0  0  0  0  0  0  0  0
   -4.1518   -0.8891    0.7593 C   0  0  0  0  0  0  0  0  0  0  0  0
   -4.9741   -0.2337    1.0570 H   0  0  0  0  0  0  0  0  0  0  0  0
   -4.2007   -1.0572   -0.3191 H   0  0  0  0  0  0  0  0  0  0  0  0
   -2.8247   -0.2549    1.1291 C   0  0  0  0  0  0  0  0  0  0  0  0
   -2.1501   -0.7444    2.0205 O   0  0  0  0  0  0  0  0  0  0  0  0
   -2.4545    0.9408    0.5464 N   0  0  0  0  0  0  0  0  0  0  0  0
   -3.0993    1.2763   -0.1670 H   0  0  0  0  0  0  0  0  0  0  0  0
   -1.1031    1.5464    0.5221 C   0  0  1  0  0  0  0  0  0  0  0  0
   -0.7913    1.7649    1.5488 H   0  0  0  0  0  0  0  0  0  0  0  0
    0.0137    0.7020   -0.1738 C   0  0  0  0  0  0  0  0  0  0  0  0
   -0.3116    0.4829   -1.1971 H   0  0  0  0  0  0  0  0  0  0  0  0
    0.9170    1.3192   -0.2410 H   0  0  0  0  0  0  0  0  0  0  0  0
    0.4336   -0.6116    0.4945 C   0  0  0  0  0  0  0  0  0  0  0  0
    0.7646   -0.4208    1.5213 H   0  0  0  0  0  0  0  0  0  0  0  0
   -0.4059   -1.3059    0.5163 H   0  0  0  0  0  0  0  0  0  0  0  0
    1.5308   -1.2847   -0.3237 C   0  0  0  0  0  0  0  0  0  0  0  0
    1.1619   -1.4664   -1.3391 H   0  0  0  0  0  0  0  0  0  0  0  0
    2.3992   -0.6188   -0.3812 H   0  0  0  0  0  0  0  0  0  0  0  0
    1.9018   -2.5557    0.3237 N   0  3  0  0  0  0  0  0  0  0  0  0
    1.4269   -2.7819    1.1976 H   0  0  0  0  0  0  0  0  0  0  0  0
    2.7727   -3.3897   -0.1649 C   0  0  0  0  0  0  0  0  0  0  0  0
    3.4282   -3.1413   -1.3494 N   0  0  0  0  0  0  0  0  0  0  0  0
    3.1117   -2.3569   -1.9158 H   0  0  0  0  0  0  0  0  0  0  0  0
    3.9153   -3.9057   -1.8126 H   0  0  0  0  0  0  0  0  0  0  0  0
    3.0520   -4.5514    0.5143 N   0  0  0  0  0  0  0  0  0  0  0  0
    2.7068   -4.6542    1.4669 H   0  0  0  0  0  0  0  0  0  0  0  0
    3.8787   -5.0826    0.2473 H   0  0  0  0  0  0  0  0  0  0  0  0
   -1.2171    2.8942   -0.2450 C   0  0  0  0  0  0  0  0  0  0  0  0
   -0.4494    3.2097   -1.1455 O   0  0  0  0  0  0  0  0  0  0  0  0
   -2.2707    3.7441    0.0441 N   0  0  0  0  0  0  0  0  0  0  0  0
   -2.8448    3.5127    0.8511 H   0  0  0  0  0  0  0  0  0  0  0  0
   -2.4495    5.0455   -0.5933 C   0  0  0  0  0  0  0  0  0  0  0  0
   -2.5489    4.9317   -1.6782 H   0  0  0  0  0  0  0  0  0  0  0  0
   -3.3533    5.5335   -0.2150 H   0  0  0  0  0  0  0  0  0  0  0  0
   -1.5927    5.6956   -0.3857 H   0  0  0  0  0  0  0  0  0  0  0  0
  1  2  1  0  0  0  0
  2  3  1  0  0  0  0
  2  4  1  0  0  0  0
  2  5  1  0  0  0  0
  5  6  2  0  0  0  0
  5  7  1  0  0  0  0
  7  8  1  0  0  0  0
  7  9  1  0  0  0  0
  9 10  1  0  0  0  0
  9 11  1  0  0  0  0
  9 29  1  0  0  0  0
 11 12  1  0  0  0  0
 11 13  1  0  0  0  0
 11 14  1  0  0  0  0
 14 15  1  0  0  0  0
 14 16  1  0  0  0  0
 14 17  1  0  0  0  0
 17 18  1  0  0  0  0
 17 19  1  0  0  0  0
 17 20  1  0  0  0  0
 20 21  1  0  0  0  0
 20 22  2  0  0  0  0
 22 23  1  0  0  0  0
 22 26  1  0  0  0  0
 23 24  1  0  0  0  0
 23 25  1  0  0  0  0
 26 27  1  0  0  0  0
 26 28  1  0  0  0  0
 29 30  2  0  0  0  0
 29 31  1  0  0  0  0
 31 32  1  0  0  0  0
 31 33  1  0  0  0  0
 33 34  1  0  0  0  0
 33 35  1  0  0  0  0
 33 36  1  0  0  0  0
M  CHG  1  20   1
M  END
$$$$

  -OEChem-02172215453D

 36 35  0     1  0  0  0  0  0999 V2000
   -4.2756   -1.8429    1.2455 H   0  0  0  0  0  0  0  0  0  0  0  0
   -4.1602   -0.8743    0.7508 C   0  0  0  0  0  0  0  0  0  0  0  0
   -4.9807   -0.2223    1.0608 H   0  0  0  0  0  0  0  0  0  0  0  0
   -4.2119   -1.0242   -0.3302 H   0  0  0  0  0  0  0  0  0  0  0  0
   -2.8308   -0.2492    1.1284 C   0  0  0  0  0  0  0  0  0  0  0  0
   -2.1600   -0.7476    2.0182 O   0  0  0  0  0  0  0  0  0  0  0  0
   -2.4514    0.9471    0.5530 N   0  0  0  0  0  0  0  0  0  0  0  0
   -3.0962    1.2976   -0.1535 H   0  0  0  0  0  0  0  0  0  0  0  0
   -1.0980    1.5448    0.5388 C   0  0  1  0  0  0  0  0  0  0  0  0
   -0.7885    1.7551    1.5678 H   0  0  0  0  0  0  0  0  0  0  0  0
    0.0206    0.7044   -0.1562 C   0  0  0  0  0  0  0  0  0  0  0  0
   -0.3018    0.4858   -1.1806 H   0  0  0  0  0  0  0  0  0  0  0  0
    0.9207    1.3270   -0.2206 H   0  0  0  0  0  0  0  0  0  0  0  0
    0.4336   -0.6147    0.5051 C   0  0  0  0  0  0  0  0  0  0  0  0
    0.7598   -0.4328    1.5350 H   0  0  0  0  0  0  0  0  0  0  0  0
   -0.4080   -1.3072    0.5175 H   0  0  0  0  0  0  0  0  0  0  0  0
    1.5342   -1.2813   -0.3135 C   0  0  0  0  0  0  0  0  0  0  0  0
    1.1712   -1.4531   -1.3328 H   0  0  0  0  0  0  0  0  0  0  0  0
    2.4035   -0.6160   -0.3598 H   0  0  0  0  0  0  0  0  0  0  0  0
    1.9013   -2.5582    0.3235 N   0  3  0  0  0  0  0  0  0  0  0  0
    1.4201   -2.7936    1.1914 H   0  0  0  0  0  0  0  0  0  0  0  0
    2.7741   -3.3876   -0.1693 C   0  0  0  0  0  0  0  0  0  0  0  0
    3.4346   -3.1275   -1.3485 N   0  0  0  0  0  0  0  0  0  0  0  0
    3.1188   -2.3379   -1.9083 H   0  0  0  0  0  0  0  0  0  0  0  0
    3.9205   -3.8884   -1.8189 H   0  0  0  0  0  0  0  0  0  0  0  0
    3.0492   -4.5568    0.4988 N   0  0  0  0  0  0  0  0  0  0  0  0
    2.7008   -4.6691    1.4491 H   0  0  0  0  0  0  0  0  0  0  0  0
    3.8746   -5.0880    0.2280 H   0  0  0  0  0  0  0  0  0  0  0  0
   -1.2047    2.8938   -0.2227 C   0  0  0  0  0  0  0  0  0  0  0  0
   -0.6291    3.0990   -1.2844 O   0  0  0  0  0  0  0  0  0  0  0  0
   -2.0508    3.8715    0.2686 N   0  0  0  0  0  0  0  0  0  0  0  0
   -2.5113    3.6901    1.1571 H   0  0  0  0  0  0  0  0  0  0  0  0
   -2.2371    5.1713   -0.3695 C   0  0  0  0  0  0  0  0  0  0  0  0
   -2.6350    5.0484   -1.3824 H   0  0  0  0  0  0  0  0  0  0  0  0
   -2.9415    5.7796    0.2061 H   0  0  0  0  0  0  0  0  0  0  0  0
   -1.2852    5.7101   -0.4296 H   0  0  0  0  0  0  0  0  0  0  0  0
  1  2  1  0  0  0  0
  2  3  1  0  0  0  0
  2  4  1  0  0  0  0
  2  5  1  0  0  0  0
  5  6  2  0  0  0  0
  5  7  1  0  0  0  0
  7  8  1  0  0  0  0
  7  9  1  0  0  0  0
  9 10  1  0  0  0  0
  9 11  1  0  0  0  0
  9 29  1  0  0  0  0
 11 12  1  0  0  0  0
 11 13  1  0  0  0  0
 11 14  1  0  0  0  0
 14 15  1  0  0  0  0
 14 16  1  0  0  0  0
 14 17  1  0  0  0  0
 17 18  1  0  0  0  0
 17 19  1  0  0  0  0
 17 20  1  0  0  0  0
 20 21  1  0  0  0  0
 20 22  2  0  0  0  0
 22 23  1  0  0  0  0
 22 26  1  0  0  0  0
 23 24  1  0  0  0  0
 23 25  1  0  0  0  0
 26 27  1  0  0  0  0
 26 28  1  0  0  0  0
 29 30  2  0  0  0  0
 29 31  1  0  0  0  0
 31 32  1  0  0  0  0
 31 33  1  0  0  0  0
 33 34  1  0  0  0  0
 33 35  1  0  0  0  0
 33 36  1  0  0  0  0
M  CHG  1  20   1
M  END
$$$$

  -OEChem-02172215453D

 36 35  0     1  0  0  0  0  0999 V2000
   -4.2728   -1.8394    1.2219 H   0  0  0  0  0  0  0  0  0  0  0  0
   -4.1574   -0.8645    0.7401 C   0  0  0  0  0  0  0  0  0  0  0  0
   -4.9772   -0.2160    1.0592 H   0  0  0  0  0  0  0  0  0  0  0  0
   -4.2093   -0.9996   -0.3428 H   0  0  0  0  0  0  0  0  0  0  0  0
   -2.8283   -0.2446    1.1267 C   0  0  0  0  0  0  0  0  0  0  0  0
   -2.1620   -0.7496    2.0165 O   0  0  0  0  0  0  0  0  0  0  0  0
   -2.4428    0.9535    0.5600 N   0  0  0  0  0  0  0  0  0  0  0  0
   -3.0782    1.3072   -0.1535 H   0  0  0  0  0  0  0  0  0  0  0  0
   -1.0897    1.5481    0.5611 C   0  0  1  0  0  0  0  0  0  0  0  0
   -0.7857    1.7473    1.5940 H   0  0  0  0  0  0  0  0  0  0  0  0
    0.0310    0.7150   -0.1375 C   0  0  0  0  0  0  0  0  0  0  0  0
   -0.2884    0.5026   -1.1641 H   0  0  0  0  0  0  0  0  0  0  0  0
    0.9285    1.3414   -0.1967 H   0  0  0  0  0  0  0  0  0  0  0  0
    0.4366   -0.6127    0.5119 C   0  0  0  0  0  0  0  0  0  0  0  0
    0.7572   -0.4422    1.5453 H   0  0  0  0  0  0  0  0  0  0  0  0
   -0.4079   -1.3018    0.5131 H   0  0  0  0  0  0  0  0  0  0  0  0
    1.5407   -1.2759   -0.3054 C   0  0  0  0  0  0  0  0  0  0  0  0
    1.1836   -1.4363   -1.3286 H   0  0  0  0  0  0  0  0  0  0  0  0
    2.4130   -0.6137   -0.3399 H   0  0  0  0  0  0  0  0  0  0  0  0
    1.8983   -2.5608    0.3220 N   0  3  0  0  0  0  0  0  0  0  0  0
    1.4083   -2.8042    1.1829 H   0  0  0  0  0  0  0  0  0  0  0  0
    2.7715   -3.3891   -0.1724 C   0  0  0  0  0  0  0  0  0  0  0  0
    3.4424   -3.1218   -1.3441 N   0  0  0  0  0  0  0  0  0  0  0  0
    3.1339   -2.3268   -1.9003 H   0  0  0  0  0  0  0  0  0  0  0  0
    3.9279   -3.8811   -1.8172 H   0  0  0  0  0  0  0  0  0  0  0  0
    3.0324   -4.5681    0.4840 N   0  0  0  0  0  0  0  0  0  0  0  0
    2.6776   -4.6891    1.4309 H   0  0  0  0  0  0  0  0  0  0  0  0
    3.8494   -5.1090    0.2072 H   0  0  0  0  0  0  0  0  0  0  0  0
   -1.1859    2.8987   -0.1943 C   0  0  0  0  0  0  0  0  0  0  0  0
   -0.8471    3.0111   -1.3661 O   0  0  0  0  0  0  0  0  0  0  0  0
   -1.7723    3.9819    0.4339 N   0  0  0  0  0  0  0  0  0  0  0  0
   -2.0922    3.8559    1.3910 H   0  0  0  0  0  0  0  0  0  0  0  0
   -1.9753    5.2752   -0.2121 C   0  0  0  0  0  0  0  0  0  0  0  0
   -2.6404    5.1735   -1.0762 H   0  0  0  0  0  0  0  0  0  0  0  0
   -2.4272    5.9835    0.4891 H   0  0  0  0  0  0  0  0  0  0  0  0
   -1.0197    5.6890   -0.5513 H   0  0  0  0  0  0  0  0  0  0  0  0
  1  2  1  0  0  0  0
  2  3  1  0  0  0  0
  2  4  1  0  0  0  0
  2  5  1  0  0  0  0
  5  6  2  0  0  0  0
  5  7  1  0  0  0  0
  7  8  1  0  0  0  0
  7  9  1  0  0  0  0
  9 10  1  0  0  0  0
  9 11  1  0  0  0  0
  9 29  1  0  0  0  0
 11 12  1  0  0  0  0
 11 13  1  0  0  0  0
 11 14  1  0  0  0  0
 14 15  1  0  0  0  0
 14 16  1  0  0  0  0
 14 17  1  0  0  0  0
 17 18  1  0  0  0  0
 17 19  1  0  0  0  0
 17 20  1  0  0  0  0
 20 21  1  0  0  0  0
 20 22  2  0  0  0  0
 22 23  1  0  0  0  0
 22 26  1  0  0  0  0
 23 24  1  0  0  0  0
 23 25  1  0  0  0  0
 26 27  1  0  0  0  0
 26 28  1  0  0  0  0
 29 30  2  0  0  0  0
 29 31  1  0  0  0  0
 31 32  1  0  0  0  0
 31 33  1  0  0  0  0
 33 34  1  0  0  0  0
 33 35  1  0  0  0  0
 33 36  1  0  0  0  0
M  CHG  1  20   1
M  END
$$$$

  -OEChem-02172215453D

 36 35  0     1  0  0  0  0  0999 V2000
   -4.2894   -1.8181    1.2198 H   0  0  0  0  0  0  0  0  0  0  0  0
   -4.1594   -0.8474    0.7333 C   0  0  0  0  0  0  0  0  0  0  0  0
   -4.9752   -0.1884    1.0408 H   0  0  0  0  0  0  0  0  0  0  0  0
   -4.2027   -0.9881   -0.3493 H   0  0  0  0  0  0  0  0  0  0  0  0
   -2.8277   -0.2380    1.1272 C   0  0  0  0  0  0  0  0  0  0  0  0
   -2.1658   -0.7518    2.0158 O   0  0  0  0  0  0  0  0  0  0  0  0
   -2.4323    0.9584    0.5643 N   0  0  0  0  0  0  0  0  0  0  0  0
   -3.0560    1.3140   -0.1594 H   0  0  0  0  0  0  0  0  0  0  0  0
   -1.0787    1.5481    0.5803 C   0  0  1  0  0  0  0  0  0  0  0  0
   -0.7818    1.7387    1.6168 H   0  0  0  0  0  0  0  0  0  0  0  0
    0.0438    0.7232   -0.1218 C   0  0  0  0  0  0  0  0  0  0  0  0
   -0.2702    0.5198   -1.1519 H   0  0  0  0  0  0  0  0  0  0  0  0
    0.9421    1.3492   -0.1711 H   0  0  0  0  0  0  0  0  0  0  0  0
    0.4389   -0.6124    0.5169 C   0  0  0  0  0  0  0  0  0  0  0  0
    0.7519   -0.4538    1.5547 H   0  0  0  0  0  0  0  0  0  0  0  0
   -0.4094   -1.2971    0.5049 H   0  0  0  0  0  0  0  0  0  0  0  0
    1.5468   -1.2720   -0.2981 C   0  0  0  0  0  0  0  0  0  0  0  0
    1.1975   -1.4203   -1.3257 H   0  0  0  0  0  0  0  0  0  0  0  0
    2.4221   -0.6133   -0.3181 H   0  0  0  0  0  0  0  0  0  0  0  0
    1.8940   -2.5645    0.3190 N   0  3  0  0  0  0  0  0  0  0  0  0
    1.3953   -2.8151    1.1729 H   0  0  0  0  0  0  0  0  0  0  0  0
    2.7676   -3.3915   -0.1769 C   0  0  0  0  0  0  0  0  0  0  0  0
    3.4485   -3.1145   -1.3406 N   0  0  0  0  0  0  0  0  0  0  0  0
    3.1438   -2.3143   -1.8915 H   0  0  0  0  0  0  0  0  0  0  0  0
    3.9280   -3.8735   -1.8203 H   0  0  0  0  0  0  0  0  0  0  0  0
    3.0197   -4.5779    0.4696 N   0  0  0  0  0  0  0  0  0  0  0  0
    2.6521   -4.7092    1.4102 H   0  0  0  0  0  0  0  0  0  0  0  0
    3.8434   -5.1124    0.1999 H   0  0  0  0  0  0  0  0  0  0  0  0
   -1.1601    2.8966   -0.1753 C   0  0  0  0  0  0  0  0  0  0  0  0
   -1.0892    2.9406   -1.3972 O   0  0  0  0  0  0  0  0  0  0  0  0
   -1.4519    4.0551    0.5205 N   0  0  0  0  0  0  0  0  0  0  0  0
   -1.6083    3.9773    1.5222 H   0  0  0  0  0  0  0  0  0  0  0  0
   -1.6703    5.3459   -0.1252 C   0  0  0  0  0  0  0  0  0  0  0  0
   -2.5429    5.3022   -0.7857 H   0  0  0  0  0  0  0  0  0  0  0  0
   -1.8447    6.1217    0.6267 H   0  0  0  0  0  0  0  0  0  0  0  0
   -0.7947    5.6327   -0.7176 H   0  0  0  0  0  0  0  0  0  0  0  0
  1  2  1  0  0  0  0
  2  3  1  0  0  0  0
  2  4  1  0  0  0  0
  2  5  1  0  0  0  0
  5  6  2  0  0  0  0
  5  7  1  0  0  0  0
  7  8  1  0  0  0  0
  7  9  1  0  0  0  0
  9 10  1  0  0  0  0
  9 11  1  0  0  0  0
  9 29  1  0  0  0  0
 11 12  1  0  0  0  0
 11 13  1  0  0  0  0
 11 14  1  0  0  0  0
 14 15  1  0  0  0  0
 14 16  1  0  0  0  0
 14 17  1  0  0  0  0
 17 18  1  0  0  0  0
 17 19  1  0  0  0  0
 17 20  1  0  0  0  0
 20 21  1  0  0  0  0
 20 22  2  0  0  0  0
 22 23  1  0  0  0  0
 22 26  1  0  0  0  0
 23 24  1  0  0  0  0
 23 25  1  0  0  0  0
 26 27  1  0  0  0  0
 26 28  1  0  0  0  0
 29 30  2  0  0  0  0
 29 31  1  0  0  0  0
 31 32  1  0  0  0  0
 31 33  1  0  0  0  0
 33 34  1  0  0  0  0
 33 35  1  0  0  0  0
 33 36  1  0  0  0  0
M  CHG  1  20   1
M  END
$$$$

  -OEChem-02172215453D

 36 35  0     1  0  0  0  0  0999 V2000
   -4.2957   -1.8067    1.2134 H   0  0  0  0  0  0  0  0  0  0  0  0
   -4.1581   -0.8350    0.7308 C   0  0  0  0  0  0  0  0  0  0  0  0
   -4.9697   -0.1714    1.0400 H   0  0  0  0  0  0  0  0  0  0  0  0
   -4.2015   -0.9709   -0.3526 H   0  0  0  0  0  0  0  0  0  0  0  0
   -2.8225   -0.2363    1.1278 C   0  0  0  0  0  0  0  0  0  0  0  0
   -2.1611   -0.7606    2.0109 O   0  0  0  0  0  0  0  0  0  0  0  0
   -2.4191    0.9579    0.5667 N   0  0  0  0  0  0  0  0  0  0  0  0
   -3.0369    1.3213   -0.1590 H   0  0  0  0  0  0  0  0  0  0  0  0
   -1.0672    1.5486    0.5952 C   0  0  1  0  0  0  0  0  0  0  0  0
   -0.7773    1.7352    1.6341 H   0  0  0  0  0  0  0  0  0  0  0  0
    0.0571    0.7353   -0.1146 C   0  0  0  0  0  0  0  0  0  0  0  0
   -0.2515    0.5460   -1.1488 H   0  0  0  0  0  0  0  0  0  0  0  0
    0.9563    1.3609   -0.1521 H   0  0  0  0  0  0  0  0  0  0  0  0
    0.4451   -0.6076    0.5129 C   0  0  0  0  0  0  0  0  0  0  0  0
    0.7512   -0.4597    1.5543 H   0  0  0  0  0  0  0  0  0  0  0  0
   -0.4062   -1.2884    0.4888 H   0  0  0  0  0  0  0  0  0  0  0  0
    1.5557   -1.2668   -0.2980 C   0  0  0  0  0  0  0  0  0  0  0  0
    1.2135   -1.4068   -1.3294 H   0  0  0  0  0  0  0  0  0  0  0  0
    2.4349   -0.6128   -0.3068 H   0  0  0  0  0  0  0  0  0  0  0  0
    1.8894   -2.5650    0.3150 N   0  3  0  0  0  0  0  0  0  0  0  0
    1.3814   -2.8168    1.1631 H   0  0  0  0  0  0  0  0  0  0  0  0
    2.7620   -3.3950   -0.1773 C   0  0  0  0  0  0  0  0  0  0  0  0
    3.4552   -3.1168   -1.3333 N   0  0  0  0  0  0  0  0  0  0  0  0
    3.1589   -2.3130   -1.8834 H   0  0  0  0  0  0  0  0  0  0  0  0
    3.9288   -3.8786   -1.8145 H   0  0  0  0  0  0  0  0  0  0  0  0
    3.0005   -4.5864    0.4649 N   0  0  0  0  0  0  0  0  0  0  0  0
    2.6208   -4.7220    1.4000 H   0  0  0  0  0  0  0  0  0  0  0  0
    3.8248   -5.1233    0.2017 H   0  0  0  0  0  0  0  0  0  0  0  0
   -1.1435    2.8925   -0.1650 C   0  0  0  0  0  0  0  0  0  0  0  0
   -1.3320    2.9030   -1.3751 O   0  0  0  0  0  0  0  0  0  0  0  0
   -1.1336    4.0894    0.5272 N   0  0  0  0  0  0  0  0  0  0  0  0
   -1.1010    4.0483    1.5424 H   0  0  0  0  0  0  0  0  0  0  0  0
   -1.3458    5.3838   -0.1135 C   0  0  0  0  0  0  0  0  0  0  0  0
   -2.3481    5.4357   -0.5520 H   0  0  0  0  0  0  0  0  0  0  0  0
   -1.2470    6.1909    0.6191 H   0  0  0  0  0  0  0  0  0  0  0  0
   -0.6071    5.5473   -0.9055 H   0  0  0  0  0  0  0  0  0  0  0  0
  1  2  1  0  0  0  0
  2  3  1  0  0  0  0
  2  4  1  0  0  0  0
  2  5  1  0  0  0  0
  5  6  2  0  0  0  0
  5  7  1  0  0  0  0
  7  8  1  0  0  0  0
  7  9  1  0  0  0  0
  9 10  1  0  0  0  0
  9 11  1  0  0  0  0
  9 29  1  0  0  0  0
 11 12  1  0  0  0  0
 11 13  1  0  0  0  0
 11 14  1  0  0  0  0
 14 15  1  0  0  0  0
 14 16  1  0  0  0  0
 14 17  1  0  0  0  0
 17 18  1  0  0  0  0
 17 19  1  0  0  0  0
 17 20  1  0  0  0  0
 20 21  1  0  0  0  0
 20 22  2  0  0  0  0
 22 23  1  0  0  0  0
 22 26  1  0  0  0  0
 23 24  1  0  0  0  0
 23 25  1  0  0  0  0
 26 27  1  0  0  0  0
 26 28  1  0  0  0  0
 29 30  2  0  0  0  0
 29 31  1  0  0  0  0
 31 32  1  0  0  0  0
 31 33  1  0  0  0  0
 33 34  1  0  0  0  0
 33 35  1  0  0  0  0
 33 36  1  0  0  0  0
M  CHG  1  20   1
M  END
$$$$

  -OEChem-02172215453D

 36 35  0     1  0  0  0  0  0999 V2000
   -4.3132   -1.7945    1.2298 H   0  0  0  0  0  0  0  0  0  0  0  0
   -4.1682   -0.8282    0.7388 C   0  0  0  0  0  0  0  0  0  0  0  0
   -4.9721   -0.1543    1.0457 H   0  0  0  0  0  0  0  0  0  0  0  0
   -4.2176   -0.9720   -0.3431 H   0  0  0  0  0  0  0  0  0  0  0  0
   -2.8253   -0.2395    1.1263 C   0  0  0  0  0  0  0  0  0  0  0  0
   -2.1608   -0.7711    2.0032 O   0  0  0  0  0  0  0  0  0  0  0  0
   -2.4161    0.9518    0.5631 N   0  0  0  0  0  0  0  0  0  0  0  0
   -3.0323    1.3240   -0.1605 H   0  0  0  0  0  0  0  0  0  0  0  0
   -1.0667    1.5472    0.6013 C   0  0  1  0  0  0  0  0  0  0  0  0
   -0.7834    1.7350    1.6420 H   0  0  0  0  0  0  0  0  0  0  0  0
    0.0606    0.7442   -0.1117 C   0  0  0  0  0  0  0  0  0  0  0  0
   -0.2449    0.5664   -1.1495 H   0  0  0  0  0  0  0  0  0  0  0  0
    0.9595    1.3704   -0.1386 H   0  0  0  0  0  0  0  0  0  0  0  0
    0.4472   -0.6031    0.5081 C   0  0  0  0  0  0  0  0  0  0  0  0
    0.7471   -0.4623    1.5523 H   0  0  0  0  0  0  0  0  0  0  0  0
   -0.4044   -1.2831    0.4753 H   0  0  0  0  0  0  0  0  0  0  0  0
    1.5618   -1.2594   -0.2998 C   0  0  0  0  0  0  0  0  0  0  0  0
    1.2257   -1.3950   -1.3337 H   0  0  0  0  0  0  0  0  0  0  0  0
    2.4424   -0.6070   -0.3002 H   0  0  0  0  0  0  0  0  0  0  0  0
    1.8887   -2.5605    0.3108 N   0  3  0  0  0  0  0  0  0  0  0  0
    1.3735   -2.8143    1.1539 H   0  0  0  0  0  0  0  0  0  0  0  0
    2.7623   -3.3919   -0.1774 C   0  0  0  0  0  0  0  0  0  0  0  0
    3.4648   -3.1125   -1.3278 N   0  0  0  0  0  0  0  0  0  0  0  0
    3.1775   -2.3044   -1.8762 H   0  0  0  0  0  0  0  0  0  0  0  0
    3.9397   -3.8742   -1.8078 H   0  0  0  0  0  0  0  0  0  0  0  0
    2.9909   -4.5863    0.4631 N   0  0  0  0  0  0  0  0  0  0  0  0
    2.6033   -4.7239    1.3948 H   0  0  0  0  0  0  0  0  0  0  0  0
    3.8123   -5.1286    0.2023 H   0  0  0  0  0  0  0  0  0  0  0  0
   -1.1366    2.8854   -0.1677 C   0  0  0  0  0  0  0  0  0  0  0  0
   -1.5479    2.8988   -1.3218 O   0  0  0  0  0  0  0  0  0  0  0  0
   -0.8309    4.0790    0.4599 N   0  0  0  0  0  0  0  0  0  0  0  0
   -0.6070    4.0492    1.4511 H   0  0  0  0  0  0  0  0  0  0  0  0
   -1.0013    5.3805   -0.1793 C   0  0  0  0  0  0  0  0  0  0  0  0
   -2.0580    5.5644   -0.4012 H   0  0  0  0  0  0  0  0  0  0  0  0
   -0.6428    6.1772    0.4796 H   0  0  0  0  0  0  0  0  0  0  0  0
   -0.4329    5.4279   -1.1145 H   0  0  0  0  0  0  0  0  0  0  0  0
  1  2  1  0  0  0  0
  2  3  1  0  0  0  0
  2  4  1  0  0  0  0
  2  5  1  0  0  0  0
  5  6  2  0  0  0  0
  5  7  1  0  0  0  0
  7  8  1  0  0  0  0
  7  9  1  0  0  0  0
  9 10  1  0  0  0  0
  9 11  1  0  0  0  0
  9 29  1  0  0  0  0
 11 12  1  0  0  0  0
 11 13  1  0  0  0  0
 11 14  1  0  0  0  0
 14 15  1  0  0  0  0
 14 16  1  0  0  0  0
 14 17  1  0  0  0  0
 17 18  1  0  0  0  0
 17 19  1  0  0  0  0
 17 20  1  0  0  0  0
 20 21  1  0  0  0  0
 20 22  2  0  0  0  0
 22 23  1  0  0  0  0
 22 26  1  0  0  0  0
 23 24  1  0  0  0  0
 23 25  1  0  0  0  0
 26 27  1  0  0  0  0
 26 28  1  0  0  0  0
 29 30  2  0  0  0  0
 29 31  1  0  0  0  0
 31 32  1  0  0  0  0
 31 33  1  0  0  0  0
 33 34  1  0  0  0  0
 33 35  1  0  0  0  0
 33 36  1  0  0  0  0
M  CHG  1  20   1
M  END
$$$$

  -OEChem-02172215453D

 36 35  0     1  0  0  0  0  0999 V2000
   -4.3303   -1.7850    1.2361 H   0  0  0  0  0  0  0  0  0  0  0  0
   -4.1789   -0.8203    0.7441 C   0  0  0  0  0  0  0  0  0  0  0  0
   -4.9756   -0.1388    1.0530 H   0  0  0  0  0  0  0  0  0  0  0  0
   -4.2330   -0.9639   -0.3377 H   0  0  0  0  0  0  0  0  0  0  0  0
   -2.8298   -0.2424    1.1261 C   0  0  0  0  0  0  0  0  0  0  0  0
   -2.1633   -0.7804    1.9975 O   0  0  0  0  0  0  0  0  0  0  0  0
   -2.4153    0.9450    0.5599 N   0  0  0  0  0  0  0  0  0  0  0  0
   -3.0375    1.3318   -0.1518 H   0  0  0  0  0  0  0  0  0  0  0  0
   -1.0694    1.5474    0.6009 C   0  0  1  0  0  0  0  0  0  0  0  0
   -0.7904    1.7399    1.6420 H   0  0  0  0  0  0  0  0  0  0  0  0
    0.0585    0.7490   -0.1139 C   0  0  0  0  0  0  0  0  0  0  0  0
   -0.2495    0.5742   -1.1513 H   0  0  0  0  0  0  0  0  0  0  0  0
    0.9570    1.3758   -0.1415 H   0  0  0  0  0  0  0  0  0  0  0  0
    0.4471   -0.5979    0.5050 C   0  0  0  0  0  0  0  0  0  0  0  0
    0.7465   -0.4576    1.5495 H   0  0  0  0  0  0  0  0  0  0  0  0
   -0.4038   -1.2790    0.4713 H   0  0  0  0  0  0  0  0  0  0  0  0
    1.5629   -1.2534   -0.3023 C   0  0  0  0  0  0  0  0  0  0  0  0
    1.2271   -1.3901   -1.3362 H   0  0  0  0  0  0  0  0  0  0  0  0
    2.4430   -0.6008   -0.3031 H   0  0  0  0  0  0  0  0  0  0  0  0
    1.8903   -2.5539    0.3092 N   0  3  0  0  0  0  0  0  0  0  0  0
    1.3726   -2.8074    1.1508 H   0  0  0  0  0  0  0  0  0  0  0  0
    2.7648   -3.3860   -0.1768 C   0  0  0  0  0  0  0  0  0  0  0  0
    3.4691   -3.1092   -1.3264 N   0  0  0  0  0  0  0  0  0  0  0  0
    3.1815   -2.3036   -1.8783 H   0  0  0  0  0  0  0  0  0  0  0  0
    3.9469   -3.8717   -1.8025 H   0  0  0  0  0  0  0  0  0  0  0  0
    2.9933   -4.5790    0.4664 N   0  0  0  0  0  0  0  0  0  0  0  0
    2.6037   -4.7150    1.3975 H   0  0  0  0  0  0  0  0  0  0  0  0
    3.8167   -5.1201    0.2094 H   0  0  0  0  0  0  0  0  0  0  0  0
   -1.1359    2.8806   -0.1772 C   0  0  0  0  0  0  0  0  0  0  0  0
   -1.7403    2.9277   -1.2425 O   0  0  0  0  0  0  0  0  0  0  0  0
   -0.5536    4.0278    0.3303 N   0  0  0  0  0  0  0  0  0  0  0  0
   -0.1544    3.9831    1.2639 H   0  0  0  0  0  0  0  0  0  0  0  0
   -0.6723    5.3314   -0.3161 C   0  0  0  0  0  0  0  0  0  0  0  0
   -1.7185    5.6555   -0.3356 H   0  0  0  0  0  0  0  0  0  0  0  0
   -0.0880    6.0800    0.2282 H   0  0  0  0  0  0  0  0  0  0  0  0
   -0.2990    5.2870   -1.3451 H   0  0  0  0  0  0  0  0  0  0  0  0
  1  2  1  0  0  0  0
  2  3  1  0  0  0  0
  2  4  1  0  0  0  0
  2  5  1  0  0  0  0
  5  6  2  0  0  0  0
  5  7  1  0  0  0  0
  7  8  1  0  0  0  0
  7  9  1  0  0  0  0
  9 10  1  0  0  0  0
  9 11  1  0  0  0  0
  9 29  1  0  0  0  0
 11 12  1  0  0  0  0
 11 13  1  0  0  0  0
 11 14  1  0  0  0  0
 14 15  1  0  0  0  0
 14 16  1  0  0  0  0
 14 17  1  0  0  0  0
 17 18  1  0  0  0  0
 17 19  1  0  0  0  0
 17 20  1  0  0  0  0
 20 21  1  0  0  0  0
 20 22  2  0  0  0  0
 22 23  1  0  0  0  0
 22 26  1  0  0  0  0
 23 24  1  0  0  0  0
 23 25  1  0  0  0  0
 26 27  1  0  0  0  0
 26 28  1  0  0  0  0
 29 30  2  0  0  0  0
 29 31  1  0  0  0  0
 31 32  1  0  0  0  0
 31 33  1  0  0  0  0
 33 34  1  0  0  0  0
 33 35  1  0  0  0  0
 33 36  1  0  0  0  0
M  CHG  1  20   1
M  END
$$$$

  -OEChem-02172215453D

 36 35  0     1  0  0  0  0  0999 V2000
   -4.3303   -1.7871    1.2266 H   0  0  0  0  0  0  0  0  0  0  0  0
   -4.1825   -0.8148    0.7484 C   0  0  0  0  0  0  0  0  0  0  0  0
   -4.9719   -0.1358    1.0807 H   0  0  0  0  0  0  0  0  0  0  0  0
   -4.2530   -0.9405   -0.3347 H   0  0  0  0  0  0  0  0  0  0  0  0
   -2.8259   -0.2475    1.1193 C   0  0  0  0  0  0  0  0  0  0  0  0
   -2.1567   -0.7923    1.9845 O   0  0  0  0  0  0  0  0  0  0  0  0
   -2.4096    0.9391    0.5525 N   0  0  0  0  0  0  0  0  0  0  0  0
   -3.0451    1.3474   -0.1359 H   0  0  0  0  0  0  0  0  0  0  0  0
   -1.0682    1.5526    0.5939 C   0  0  1  0  0  0  0  0  0  0  0  0
   -0.7905    1.7507    1.6342 H   0  0  0  0  0  0  0  0  0  0  0  0
    0.0599    0.7550   -0.1236 C   0  0  0  0  0  0  0  0  0  0  0  0
   -0.2509    0.5796   -1.1599 H   0  0  0  0  0  0  0  0  0  0  0  0
    0.9585    1.3813   -0.1539 H   0  0  0  0  0  0  0  0  0  0  0  0
    0.4528   -0.5907    0.4967 C   0  0  0  0  0  0  0  0  0  0  0  0
    0.7522   -0.4479    1.5409 H   0  0  0  0  0  0  0  0  0  0  0  0
   -0.3967   -1.2733    0.4640 H   0  0  0  0  0  0  0  0  0  0  0  0
    1.5676   -1.2500   -0.3089 C   0  0  0  0  0  0  0  0  0  0  0  0
    1.2310   -1.3917   -1.3417 H   0  0  0  0  0  0  0  0  0  0  0  0
    2.4479   -0.5977   -0.3133 H   0  0  0  0  0  0  0  0  0  0  0  0
    1.8934   -2.5478    0.3097 N   0  3  0  0  0  0  0  0  0  0  0  0
    1.3769   -2.7952    1.1539 H   0  0  0  0  0  0  0  0  0  0  0  0
    2.7663   -3.3844   -0.1711 C   0  0  0  0  0  0  0  0  0  0  0  0
    3.4706   -3.1155   -1.3223 N   0  0  0  0  0  0  0  0  0  0  0  0
    3.1767   -2.3184   -1.8829 H   0  0  0  0  0  0  0  0  0  0  0  0
    3.9454   -3.8829   -1.7932 H   0  0  0  0  0  0  0  0  0  0  0  0
    2.9937   -4.5740    0.4786 N   0  0  0  0  0  0  0  0  0  0  0  0
    2.6007   -4.7081    1.4086 H   0  0  0  0  0  0  0  0  0  0  0  0
    3.8139   -5.1204    0.2220 H   0  0  0  0  0  0  0  0  0  0  0  0
   -1.1382    2.8844   -0.1902 C   0  0  0  0  0  0  0  0  0  0  0  0
   -1.9162    2.9951   -1.1313 O   0  0  0  0  0  0  0  0  0  0  0  0
   -0.3208    3.9488    0.1459 N   0  0  0  0  0  0  0  0  0  0  0  0
    0.2438    3.8646    0.9868 H   0  0  0  0  0  0  0  0  0  0  0  0
   -0.4023    5.2492   -0.5127 C   0  0  0  0  0  0  0  0  0  0  0  0
   -1.3817    5.7073   -0.3373 H   0  0  0  0  0  0  0  0  0  0  0  0
    0.3690    5.9211   -0.1237 H   0  0  0  0  0  0  0  0  0  0  0  0
   -0.2530    5.1441   -1.5928 H   0  0  0  0  0  0  0  0  0  0  0  0
  1  2  1  0  0  0  0
  2  3  1  0  0  0  0
  2  4  1  0  0  0  0
  2  5  1  0  0  0  0
  5  6  2  0  0  0  0
  5  7  1  0  0  0  0
  7  8  1  0  0  0  0
  7  9  1  0  0  0  0
  9 10  1  0  0  0  0
  9 11  1  0  0  0  0
  9 29  1  0  0  0  0
 11 12  1  0  0  0  0
 11 13  1  0  0  0  0
 11 14  1  0  0  0  0
 14 15  1  0  0  0  0
 14 16  1  0  0  0  0
 14 17  1  0  0  0  0
 17 18  1  0  0  0  0
 17 19  1  0  0  0  0
 17 20  1  0  0  0  0
 20 21  1  0  0  0  0
 20 22  2  0  0  0  0
 22 23  1  0  0  0  0
 22 26  1  0  0  0  0
 23 24  1  0  0  0  0
 23 25  1  0  0  0  0
 26 27  1  0  0  0  0
 26 28  1  0  0  0  0
 29 30  2  0  0  0  0
 29 31  1  0  0  0  0
 31 32  1  0  0  0  0
 31 33  1  0  0  0  0
 33 34  1  0  0  0  0
 33 35  1  0  0  0  0
 33 36  1  0  0  0  0
M  CHG  1  20   1
M  END
$$$$

  -OEChem-02172215453D

 36 35  0     1  0  0  0  0  0999 V2000
   -4.3390   -1.7790    1.2253 H   0  0  0  0  0  0  0  0  0  0  0  0
   -4.1875   -0.8048    0.7525 C   0  0  0  0  0  0  0  0  0  0  0  0
   -4.9640   -0.1198    1.1021 H   0  0  0  0  0  0  0  0  0  0  0  0
   -4.2766   -0.9210   -0.3302 H   0  0  0  0  0  0  0  0  0  0  0  0
   -2.8188   -0.2562    1.1070 C   0  0  0  0  0  0  0  0  0  0  0  0
   -2.1462   -0.8122    1.9623 O   0  0  0  0  0  0  0  0  0  0  0  0
   -2.4003    0.9318    0.5448 N   0  0  0  0  0  0  0  0  0  0  0  0
   -3.0545    1.3694   -0.1078 H   0  0  0  0  0  0  0  0  0  0  0  0
   -1.0633    1.5571    0.5861 C   0  0  1  0  0  0  0  0  0  0  0  0
   -0.7853    1.7595    1.6255 H   0  0  0  0  0  0  0  0  0  0  0  0
    0.0644    0.7581   -0.1351 C   0  0  0  0  0  0  0  0  0  0  0  0
   -0.2506    0.5815   -1.1700 H   0  0  0  0  0  0  0  0  0  0  0  0
    0.9651    1.3804   -0.1708 H   0  0  0  0  0  0  0  0  0  0  0  0
    0.4621   -0.5860    0.4854 C   0  0  0  0  0  0  0  0  0  0  0  0
    0.7622   -0.4417    1.5291 H   0  0  0  0  0  0  0  0  0  0  0  0
   -0.3857   -1.2698    0.4534 H   0  0  0  0  0  0  0  0  0  0  0  0
    1.5748   -1.2500   -0.3198 C   0  0  0  0  0  0  0  0  0  0  0  0
    1.2367   -1.3967   -1.3515 H   0  0  0  0  0  0  0  0  0  0  0  0
    2.4568   -0.6000   -0.3287 H   0  0  0  0  0  0  0  0  0  0  0  0
    1.8974   -2.5449    0.3074 N   0  3  0  0  0  0  0  0  0  0  0  0
    1.3794   -2.7857    1.1528 H   0  0  0  0  0  0  0  0  0  0  0  0
    2.7675   -3.3879   -0.1674 C   0  0  0  0  0  0  0  0  0  0  0  0
    3.4728   -3.1303   -1.3207 N   0  0  0  0  0  0  0  0  0  0  0  0
    3.1814   -2.3367   -1.8875 H   0  0  0  0  0  0  0  0  0  0  0  0
    3.9454   -3.9030   -1.7856 H   0  0  0  0  0  0  0  0  0  0  0  0
    2.9926   -4.5724    0.4926 N   0  0  0  0  0  0  0  0  0  0  0  0
    2.6014   -4.6962    1.4247 H   0  0  0  0  0  0  0  0  0  0  0  0
    3.8128   -5.1215    0.2419 H   0  0  0  0  0  0  0  0  0  0  0  0
   -1.1422    2.8915   -0.1994 C   0  0  0  0  0  0  0  0  0  0  0  0
   -2.0673    3.0880   -0.9803 O   0  0  0  0  0  0  0  0  0  0  0  0
   -0.1480    3.8476   -0.0817 N   0  0  0  0  0  0  0  0  0  0  0  0
    0.5563    3.7096    0.6374 H   0  0  0  0  0  0  0  0  0  0  0  0
   -0.2052    5.1387   -0.7612 C   0  0  0  0  0  0  0  0  0  0  0  0
   -1.0665    5.7182   -0.4117 H   0  0  0  0  0  0  0  0  0  0  0  0
    0.7040    5.7141   -0.5607 H   0  0  0  0  0  0  0  0  0  0  0  0
   -0.2923    5.0012   -1.8444 H   0  0  0  0  0  0  0  0  0  0  0  0
  1  2  1  0  0  0  0
  2  3  1  0  0  0  0
  2  4  1  0  0  0  0
  2  5  1  0  0  0  0
  5  6  2  0  0  0  0
  5  7  1  0  0  0  0
  7  8  1  0  0  0  0
  7  9  1  0  0  0  0
  9 10  1  0  0  0  0
  9 11  1  0  0  0  0
  9 29  1  0  0  0  0
 11 12  1  0  0  0  0
 11 13  1  0  0  0  0
 11 14  1  0  0  0  0
 14 15  1  0  0  0  0
 14 16  1  0  0  0  0
 14 17  1  0  0  0  0
 17 18  1  0  0  0  0
 17 19  1  0  0  0  0
 17 20  1  0  0  0  0
 20 21  1  0  0  0  0
 20 22  2  0  0  0  0
 22 23  1  0  0  0  0
 22 26  1  0  0  0  0
 23 24  1  0  0  0  0
 23 25  1  0  0  0  0
 26 27  1  0  0  0  0
 26 28  1  0  0  0  0
 29 30  2  0  0  0  0
 29 31  1  0  0  0  0
 31 32  1  0  0  0  0
 31 33  1  0  0  0  0
 33 34  1  0  0  0  0
 33 35  1  0  0  0  0
 33 36  1  0  0  0  0
M  CHG  1  20   1
M  END
$$$$

  -OEChem-02172215453D

 36 35  0     1  0  0  0  0  0999 V2000
   -4.2038   -1.8234    1.3341 H   0  0  0  0  0  0  0  0  0  0  0  0
   -4.1046   -0.8408    0.8642 C   0  0  0  0  0  0  0  0  0  0  0  0
   -4.7871   -0.1448    1.3586 H   0  0  0  0  0  0  0  0  0  0  0  0
   -4.3820   -0.9237   -0.1893 H   0  0  0  0  0  0  0  0  0  0  0  0
   -2.6783   -0.3409    0.9889 C   0  0  0  0  0  0  0  0  0  0  0  0
   -1.8610   -0.9905    1.6248 O   0  0  0  0  0  0  0  0  0  0  0  0
   -2.3359    0.8801    0.4436 N   0  0  0  0  0  0  0  0  0  0  0  0
   -3.0978    1.4349    0.0471 H   0  0  0  0  0  0  0  0  0  0  0  0
   -1.0203    1.5465    0.4824 C   0  0  1  0  0  0  0  0  0  0  0  0
   -0.6089    1.5003    1.4963 H   0  0  0  0  0  0  0  0  0  0  0  0
   -0.0110    0.9500   -0.5417 C   0  0  0  0  0  0  0  0  0  0  0  0
   -0.4624    0.9939   -1.5395 H   0  0  0  0  0  0  0  0  0  0  0  0
    0.8888    1.5731   -0.5613 H   0  0  0  0  0  0  0  0  0  0  0  0
    0.4338   -0.4899   -0.2606 C   0  0  0  0  0  0  0  0  0  0  0  0
    0.8705   -0.5545    0.7423 H   0  0  0  0  0  0  0  0  0  0  0  0
   -0.4318   -1.1529   -0.3083 H   0  0  0  0  0  0  0  0  0  0  0  0
    1.4217   -0.9789   -1.3147 C   0  0  0  0  0  0  0  0  0  0  0  0
    0.9542   -0.9199   -2.3038 H   0  0  0  0  0  0  0  0  0  0  0  0
    2.3111   -0.3391   -1.3070 H   0  0  0  0  0  0  0  0  0  0  0  0
    1.7873   -2.3716   -0.9983 N   0  3  0  0  0  0  0  0  0  0  0  0
    1.3719   -2.7738   -0.1576 H   0  0  0  0  0  0  0  0  0  0  0  0
    2.5710   -3.1052   -1.7333 C   0  0  0  0  0  0  0  0  0  0  0  0
    3.1354   -2.6264   -2.8935 N   0  0  0  0  0  0  0  0  0  0  0  0
    2.7929   -1.7396   -3.2570 H   0  0  0  0  0  0  0  0  0  0  0  0
    3.5367   -3.2914   -3.5515 H   0  0  0  0  0  0  0  0  0  0  0  0
    2.8465   -4.3953   -1.3474 N   0  0  0  0  0  0  0  0  0  0  0  0
    2.5724   -4.6957   -0.4136 H   0  0  0  0  0  0  0  0  0  0  0  0
    3.6157   -4.8853   -1.8003 H   0  0  0  0  0  0  0  0  0  0  0  0
   -1.2147    3.0361    0.0899 C   0  0  0  0  0  0  0  0  0  0  0  0
   -2.3212    3.4376   -0.2540 O   0  0  0  0  0  0  0  0  0  0  0  0
   -0.1465    3.9162    0.0418 N   0  0  0  0  0  0  0  0  0  0  0  0
    0.7443    3.5967    0.4102 H   0  0  0  0  0  0  0  0  0  0  0  0
   -0.2985    5.3316   -0.2840 C   0  0  0  0  0  0  0  0  0  0  0  0
   -0.9354    5.8289    0.4556 H   0  0  0  0  0  0  0  0  0  0  0  0
    0.6768    5.8281   -0.2905 H   0  0  0  0  0  0  0  0  0  0  0  0
   -0.7515    5.4524   -1.2739 H   0  0  0  0  0  0  0  0  0  0  0  0
  1  2  1  0  0  0  0
  2  3  1  0  0  0  0
  2  4  1  0  0  0  0
  2  5  1  0  0  0  0
  5  6  2  0  0  0  0
  5  7  1  0  0  0  0
  7  8  1  0  0  0  0
  7  9  1  0  0  0  0
  9 10  1  0  0  0  0
  9 11  1  0  0  0  0
  9 29  1  0  0  0  0
 11 12  1  0  0  0  0
 11 13  1  0  0  0  0
 11 14  1  0  0  0  0
 14 15  1  0  0  0  0
 14 16  1  0  0  0  0
 14 17  1  0  0  0  0
 17 18  1  0  0  0  0
 17 19  1  0  0  0  0
 17 20  1  0  0  0  0
 20 21  1  0  0  0  0
 20 22  2  0  0  0  0
 22 23  1  0  0  0  0
 22 26  1  0  0  0  0
 23 24  1  0  0  0  0
 23 25  1  0  0  0  0
 26 27  1  0  0  0  0
 26 28  1  0  0  0  0
 29 30  2  0  0  0  0
 29 31  1  0  0  0  0
 31 32  1  0  0  0  0
 31 33  1  0  0  0  0
 33 34  1  0  0  0  0
 33 35  1  0  0  0  0
 33 36  1  0  0  0  0
M  CHG  1  20   1
M  END
$$$$

  -OEChem-02172215453D

 36 35  0     1  0  0  0  0  0999 V2000
   -4.2156   -1.7958    1.3394 H   0  0  0  0  0  0  0  0  0  0  0  0
   -4.1081   -0.8140    0.8701 C   0  0  0  0  0  0  0  0  0  0  0  0
   -4.7654   -0.1064    1.3819 H   0  0  0  0  0  0  0  0  0  0  0  0
   -4.4115   -0.8885   -0.1767 H   0  0  0  0  0  0  0  0  0  0  0  0
   -2.6702   -0.3414    0.9629 C   0  0  0  0  0  0  0  0  0  0  0  0
   -1.8529   -1.0091    1.5797 O   0  0  0  0  0  0  0  0  0  0  0  0
   -2.3248    0.8834    0.4280 N   0  0  0  0  0  0  0  0  0  0  0  0
   -3.0970    1.4669    0.0981 H   0  0  0  0  0  0  0  0  0  0  0  0
   -1.0065    1.5463    0.4676 C   0  0  1  0  0  0  0  0  0  0  0  0
   -0.5936    1.4981    1.4809 H   0  0  0  0  0  0  0  0  0  0  0  0
    0.0051    0.9442   -0.5554 C   0  0  0  0  0  0  0  0  0  0  0  0
   -0.4431    0.9906   -1.5542 H   0  0  0  0  0  0  0  0  0  0  0  0
    0.9106    1.5584   -0.5707 H   0  0  0  0  0  0  0  0  0  0  0  0
    0.4474   -0.4966   -0.2742 C   0  0  0  0  0  0  0  0  0  0  0  0
    0.8784   -0.5638    0.7309 H   0  0  0  0  0  0  0  0  0  0  0  0
   -0.4190   -1.1575   -0.3290 H   0  0  0  0  0  0  0  0  0  0  0  0
    1.4367   -0.9909   -1.3247 C   0  0  0  0  0  0  0  0  0  0  0  0
    0.9739   -0.9319   -2.3159 H   0  0  0  0  0  0  0  0  0  0  0  0
    2.3290   -0.3552   -1.3143 H   0  0  0  0  0  0  0  0  0  0  0  0
    1.7947   -2.3843   -1.0022 N   0  3  0  0  0  0  0  0  0  0  0  0
    1.3735   -2.7817   -0.1621 H   0  0  0  0  0  0  0  0  0  0  0  0
    2.5774   -3.1254   -1.7306 C   0  0  0  0  0  0  0  0  0  0  0  0
    3.1493   -2.6557   -2.8906 N   0  0  0  0  0  0  0  0  0  0  0  0
    2.8136   -1.7690   -3.2603 H   0  0  0  0  0  0  0  0  0  0  0  0
    3.5513   -3.3259   -3.5430 H   0  0  0  0  0  0  0  0  0  0  0  0
    2.8431   -4.4153   -1.3374 N   0  0  0  0  0  0  0  0  0  0  0  0
    2.5646   -4.7089   -0.4026 H   0  0  0  0  0  0  0  0  0  0  0  0
    3.6103   -4.9130   -1.7853 H   0  0  0  0  0  0  0  0  0  0  0  0
   -1.2168    3.0408    0.0873 C   0  0  0  0  0  0  0  0  0  0  0  0
   -2.3553    3.4901    0.0097 O   0  0  0  0  0  0  0  0  0  0  0  0
   -0.1649    3.8721   -0.2627 N   0  0  0  0  0  0  0  0  0  0  0  0
    0.7781    3.5238   -0.1220 H   0  0  0  0  0  0  0  0  0  0  0  0
   -0.3432    5.2804   -0.6060 C   0  0  0  0  0  0  0  0  0  0  0  0
   -0.7658    5.8317    0.2410 H   0  0  0  0  0  0  0  0  0  0  0  0
    0.6181    5.7330   -0.8677 H   0  0  0  0  0  0  0  0  0  0  0  0
   -1.0168    5.3855   -1.4635 H   0  0  0  0  0  0  0  0  0  0  0  0
  1  2  1  0  0  0  0
  2  3  1  0  0  0  0
  2  4  1  0  0  0  0
  2  5  1  0  0  0  0
  5  6  2  0  0  0  0
  5  7  1  0  0  0  0
  7  8  1  0  0  0  0
  7  9  1  0  0  0  0
  9 10  1  0  0  0  0
  9 11  1  0  0  0  0
  9 29  1  0  0  0  0
 11 12  1  0  0  0  0
 11 13  1  0  0  0  0
 11 14  1  0  0  0  0
 14 15  1  0  0  0  0
 14 16  1  0  0  0  0
 14 17  1  0  0  0  0
 17 18  1  0  0  0  0
 17 19  1  0  0  0  0
 17 20  1  0  0  0  0
 20 21  1  0  0  0  0
 20 22  2  0  0  0  0
 22 23  1  0  0  0  0
 22 26  1  0  0  0  0
 23 24  1  0  0  0  0
 23 25  1  0  0  0  0
 26 27  1  0  0  0  0
 26 28  1  0  0  0  0
 29 30  2  0  0  0  0
 29 31  1  0  0  0  0
 31 32  1  0  0  0  0
 31 33  1  0  0  0  0
 33 34  1  0  0  0  0
 33 35  1  0  0  0  0
 33 36  1  0  0  0  0
M  CHG  1  20   1
M  END
$$$$

  -OEChem-02172215453D

 36 35  0     1  0  0  0  0  0999 V2000
   -4.2220   -1.7747    1.3334 H   0  0  0  0  0  0  0  0  0  0  0  0
   -4.1095   -0.7912    0.8686 C   0  0  0  0  0  0  0  0  0  0  0  0
   -4.7507   -0.0794    1.3948 H   0  0  0  0  0  0  0  0  0  0  0  0
   -4.4290   -0.8550   -0.1742 H   0  0  0  0  0  0  0  0  0  0  0  0
   -2.6641   -0.3376    0.9427 C   0  0  0  0  0  0  0  0  0  0  0  0
   -1.8471   -1.0249    1.5376 O   0  0  0  0  0  0  0  0  0  0  0  0
   -2.3146    0.8913    0.4184 N   0  0  0  0  0  0  0  0  0  0  0  0
   -3.0920    1.4967    0.1467 H   0  0  0  0  0  0  0  0  0  0  0  0
   -0.9909    1.5453    0.4492 C   0  0  1  0  0  0  0  0  0  0  0  0
   -0.5732    1.4930    1.4604 H   0  0  0  0  0  0  0  0  0  0  0  0
    0.0216    0.9408   -0.5734 C   0  0  0  0  0  0  0  0  0  0  0  0
   -0.4220    0.9890   -1.5740 H   0  0  0  0  0  0  0  0  0  0  0  0
    0.9296    1.5514   -0.5804 H   0  0  0  0  0  0  0  0  0  0  0  0
    0.4623   -0.5002   -0.2917 C   0  0  0  0  0  0  0  0  0  0  0  0
    0.8892   -0.5677    0.7152 H   0  0  0  0  0  0  0  0  0  0  0  0
   -0.4044   -1.1597   -0.3509 H   0  0  0  0  0  0  0  0  0  0  0  0
    1.4524   -1.0018   -1.3380 C   0  0  0  0  0  0  0  0  0  0  0  0
    0.9935   -0.9455   -2.3313 H   0  0  0  0  0  0  0  0  0  0  0  0
    2.3476   -0.3705   -1.3272 H   0  0  0  0  0  0  0  0  0  0  0  0
    1.8015   -2.3950   -1.0051 N   0  3  0  0  0  0  0  0  0  0  0  0
    1.3767   -2.7825   -0.1621 H   0  0  0  0  0  0  0  0  0  0  0  0
    2.5823   -3.1474   -1.7238 C   0  0  0  0  0  0  0  0  0  0  0  0
    3.1629   -2.6923   -2.8854 N   0  0  0  0  0  0  0  0  0  0  0  0
    2.8339   -1.8083   -3.2674 H   0  0  0  0  0  0  0  0  0  0  0  0
    3.5699   -3.3705   -3.5264 H   0  0  0  0  0  0  0  0  0  0  0  0
    2.8371   -4.4351   -1.3169 N   0  0  0  0  0  0  0  0  0  0  0  0
    2.5515   -4.7179   -0.3809 H   0  0  0  0  0  0  0  0  0  0  0  0
    3.6009   -4.9442   -1.7578 H   0  0  0  0  0  0  0  0  0  0  0  0
   -1.2142    3.0443    0.0871 C   0  0  0  0  0  0  0  0  0  0  0  0
   -2.3160    3.5440    0.2840 O   0  0  0  0  0  0  0  0  0  0  0  0
   -0.2630    3.8220   -0.5547 N   0  0  0  0  0  0  0  0  0  0  0  0
    0.6644    3.4302   -0.6785 H   0  0  0  0  0  0  0  0  0  0  0  0
   -0.4806    5.2233   -0.9057 C   0  0  0  0  0  0  0  0  0  0  0  0
   -0.6535    5.8225   -0.0050 H   0  0  0  0  0  0  0  0  0  0  0  0
    0.3940    5.6259   -1.4256 H   0  0  0  0  0  0  0  0  0  0  0  0
   -1.3488    5.3240   -1.5662 H   0  0  0  0  0  0  0  0  0  0  0  0
  1  2  1  0  0  0  0
  2  3  1  0  0  0  0
  2  4  1  0  0  0  0
  2  5  1  0  0  0  0
  5  6  2  0  0  0  0
  5  7  1  0  0  0  0
  7  8  1  0  0  0  0
  7  9  1  0  0  0  0
  9 10  1  0  0  0  0
  9 11  1  0  0  0  0
  9 29  1  0  0  0  0
 11 12  1  0  0  0  0
 11 13  1  0  0  0  0
 11 14  1  0  0  0  0
 14 15  1  0  0  0  0
 14 16  1  0  0  0  0
 14 17  1  0  0  0  0
 17 18  1  0  0  0  0
 17 19  1  0  0  0  0
 17 20  1  0  0  0  0
 20 21  1  0  0  0  0
 20 22  2  0  0  0  0
 22 23  1  0  0  0  0
 22 26  1  0  0  0  0
 23 24  1  0  0  0  0
 23 25  1  0  0  0  0
 26 27  1  0  0  0  0
 26 28  1  0  0  0  0
 29 30  2  0  0  0  0
 29 31  1  0  0  0  0
 31 32  1  0  0  0  0
 31 33  1  0  0  0  0
 33 34  1  0  0  0  0
 33 35  1  0  0  0  0
 33 36  1  0  0  0  0
M  CHG  1  20   1
M  END
$$$$

  -OEChem-02172215453D

 36 35  0     1  0  0  0  0  0999 V2000
   -4.2403   -1.7476    1.3495 H   0  0  0  0  0  0  0  0  0  0  0  0
   -4.1244   -0.7649    0.8841 C   0  0  0  0  0  0  0  0  0  0  0  0
   -4.7437   -0.0458    1.4262 H   0  0  0  0  0  0  0  0  0  0  0  0
   -4.4686   -0.8223   -0.1511 H   0  0  0  0  0  0  0  0  0  0  0  0
   -2.6712   -0.3314    0.9264 C   0  0  0  0  0  0  0  0  0  0  0  0
   -1.8513   -1.0341    1.4985 O   0  0  0  0  0  0  0  0  0  0  0  0
   -2.3191    0.8984    0.4048 N   0  0  0  0  0  0  0  0  0  0  0  0
   -3.0988    1.5187    0.1797 H   0  0  0  0  0  0  0  0  0  0  0  0
   -0.9888    1.5395    0.4248 C   0  0  1  0  0  0  0  0  0  0  0  0
   -0.5695    1.4868    1.4353 H   0  0  0  0  0  0  0  0  0  0  0  0
    0.0287    0.9341   -0.5908 C   0  0  0  0  0  0  0  0  0  0  0  0
   -0.4098    0.9787   -1.5939 H   0  0  0  0  0  0  0  0  0  0  0  0
    0.9347    1.5489   -0.5902 H   0  0  0  0  0  0  0  0  0  0  0  0
    0.4695   -0.5057   -0.3044 C   0  0  0  0  0  0  0  0  0  0  0  0
    0.8901   -0.5713    0.7054 H   0  0  0  0  0  0  0  0  0  0  0  0
   -0.3969   -1.1652   -0.3687 H   0  0  0  0  0  0  0  0  0  0  0  0
    1.4655   -1.0100   -1.3436 C   0  0  0  0  0  0  0  0  0  0  0  0
    1.0109   -0.9576   -2.3390 H   0  0  0  0  0  0  0  0  0  0  0  0
    2.3608   -0.3785   -1.3306 H   0  0  0  0  0  0  0  0  0  0  0  0
    1.8125   -2.4022   -1.0040 N   0  3  0  0  0  0  0  0  0  0  0  0
    1.3798   -2.7877   -0.1640 H   0  0  0  0  0  0  0  0  0  0  0  0
    2.5977   -3.1566   -1.7162 C   0  0  0  0  0  0  0  0  0  0  0  0
    3.1843   -2.7033   -2.8755 N   0  0  0  0  0  0  0  0  0  0  0  0
    2.8615   -1.8162   -3.2554 H   0  0  0  0  0  0  0  0  0  0  0  0
    3.5822   -3.3843   -3.5193 H   0  0  0  0  0  0  0  0  0  0  0  0
    2.8490   -4.4448   -1.3079 N   0  0  0  0  0  0  0  0  0  0  0  0
    2.5565   -4.7282   -0.3742 H   0  0  0  0  0  0  0  0  0  0  0  0
    3.6183   -4.9522   -1.7412 H   0  0  0  0  0  0  0  0  0  0  0  0
   -1.2130    3.0394    0.0744 C   0  0  0  0  0  0  0  0  0  0  0  0
   -2.2057    3.5990    0.5221 O   0  0  0  0  0  0  0  0  0  0  0  0
   -0.4271    3.7466   -0.8228 N   0  0  0  0  0  0  0  0  0  0  0  0
    0.3946    3.2876   -1.2007 H   0  0  0  0  0  0  0  0  0  0  0  0
   -0.6730    5.1426   -1.1753 C   0  0  0  0  0  0  0  0  0  0  0  0
   -0.6033    5.7800   -0.2872 H   0  0  0  0  0  0  0  0  0  0  0  0
    0.0652    5.4866   -1.9062 H   0  0  0  0  0  0  0  0  0  0  0  0
   -1.6704    5.2593   -1.6130 H   0  0  0  0  0  0  0  0  0  0  0  0
  1  2  1  0  0  0  0
  2  3  1  0  0  0  0
  2  4  1  0  0  0  0
  2  5  1  0  0  0  0
  5  6  2  0  0  0  0
  5  7  1  0  0  0  0
  7  8  1  0  0  0  0
  7  9  1  0  0  0  0
  9 10  1  0  0  0  0
  9 11  1  0  0  0  0
  9 29  1  0  0  0  0
 11 12  1  0  0  0  0
 11 13  1  0  0  0  0
 11 14  1  0  0  0  0
 14 15  1  0  0  0  0
 14 16  1  0  0  0  0
 14 17  1  0  0  0  0
 17 18  1  0  0  0  0
 17 19  1  0  0  0  0
 17 20  1  0  0  0  0
 20 21  1  0  0  0  0
 20 22  2  0  0  0  0
 22 23  1  0  0  0  0
 22 26  1  0  0  0  0
 23 24  1  0  0  0  0
 23 25  1  0  0  0  0
 26 27  1  0  0  0  0
 26 28  1  0  0  0  0
 29 30  2  0  0  0  0
 29 31  1  0  0  0  0
 31 32  1  0  0  0  0
 31 33  1  0  0  0  0
 33 34  1  0  0  0  0
 33 35  1  0  0  0  0
 33 36  1  0  0  0  0
M  CHG  1  20   1
M  END
$$$$

  -OEChem-02172215453D

 36 35  0     1  0  0  0  0  0999 V2000
   -4.2460   -1.7384    1.3619 H   0  0  0  0  0  0  0  0  0  0  0  0
   -4.1326   -0.7566    0.8935 C   0  0  0  0  0  0  0  0  0  0  0  0
   -4.7441   -0.0349    1.4413 H   0  0  0  0  0  0  0  0  0  0  0  0
   -4.4872   -0.8151   -0.1382 H   0  0  0  0  0  0  0  0  0  0  0  0
   -2.6779   -0.3272    0.9198 C   0  0  0  0  0  0  0  0  0  0  0  0
   -1.8549   -1.0365    1.4784 O   0  0  0  0  0  0  0  0  0  0  0  0
   -2.3285    0.9037    0.3983 N   0  0  0  0  0  0  0  0  0  0  0  0
   -3.1109    1.5226    0.1837 H   0  0  0  0  0  0  0  0  0  0  0  0
   -0.9940    1.5369    0.4032 C   0  0  1  0  0  0  0  0  0  0  0  0
   -0.5702    1.4804    1.4120 H   0  0  0  0  0  0  0  0  0  0  0  0
    0.0254    0.9313   -0.6093 C   0  0  0  0  0  0  0  0  0  0  0  0
   -0.4151    0.9622   -1.6119 H   0  0  0  0  0  0  0  0  0  0  0  0
    0.9248    1.5568   -0.6147 H   0  0  0  0  0  0  0  0  0  0  0  0
    0.4702   -0.5056   -0.3159 C   0  0  0  0  0  0  0  0  0  0  0  0
    0.8914   -0.5649    0.6943 H   0  0  0  0  0  0  0  0  0  0  0  0
   -0.3937   -1.1682   -0.3774 H   0  0  0  0  0  0  0  0  0  0  0  0
    1.4680   -1.0118   -1.3517 C   0  0  0  0  0  0  0  0  0  0  0  0
    1.0141   -0.9655   -2.3477 H   0  0  0  0  0  0  0  0  0  0  0  0
    2.3610   -0.3772   -1.3403 H   0  0  0  0  0  0  0  0  0  0  0  0
    1.8186   -2.4014   -1.0045 N   0  3  0  0  0  0  0  0  0  0  0  0
    1.3890   -2.7822   -0.1608 H   0  0  0  0  0  0  0  0  0  0  0  0
    2.6060   -3.1585   -1.7109 C   0  0  0  0  0  0  0  0  0  0  0  0
    3.1934   -2.7121   -2.8723 N   0  0  0  0  0  0  0  0  0  0  0  0
    2.8732   -1.8262   -3.2571 H   0  0  0  0  0  0  0  0  0  0  0  0
    3.5924   -3.3967   -3.5115 H   0  0  0  0  0  0  0  0  0  0  0  0
    2.8615   -4.4422   -1.2917 N   0  0  0  0  0  0  0  0  0  0  0  0
    2.5707   -4.7172   -0.3549 H   0  0  0  0  0  0  0  0  0  0  0  0
    3.6348   -4.9488   -1.7189 H   0  0  0  0  0  0  0  0  0  0  0  0
   -1.2084    3.0372    0.0642 C   0  0  0  0  0  0  0  0  0  0  0  0
   -2.0250    3.6647    0.7234 O   0  0  0  0  0  0  0  0  0  0  0  0
   -0.6443    3.6661   -1.0353 N   0  0  0  0  0  0  0  0  0  0  0  0
   -0.0040    3.1319   -1.6129 H   0  0  0  0  0  0  0  0  0  0  0  0
   -0.9156    5.0574   -1.3883 C   0  0  0  0  0  0  0  0  0  0  0  0
   -0.5985    5.7268   -0.5814 H   0  0  0  0  0  0  0  0  0  0  0  0
   -0.3732    5.3329   -2.2980 H   0  0  0  0  0  0  0  0  0  0  0  0
   -1.9858    5.2078   -1.5672 H   0  0  0  0  0  0  0  0  0  0  0  0
  1  2  1  0  0  0  0
  2  3  1  0  0  0  0
  2  4  1  0  0  0  0
  2  5  1  0  0  0  0
  5  6  2  0  0  0  0
  5  7  1  0  0  0  0
  7  8  1  0  0  0  0
  7  9  1  0  0  0  0
  9 10  1  0  0  0  0
  9 11  1  0  0  0  0
  9 29  1  0  0  0  0
 11 12  1  0  0  0  0
 11 13  1  0  0  0  0
 11 14  1  0  0  0  0
 14 15  1  0  0  0  0
 14 16  1  0  0  0  0
 14 17  1  0  0  0  0
 17 18  1  0  0  0  0
 17 19  1  0  0  0  0
 17 20  1  0  0  0  0
 20 21  1  0  0  0  0
 20 22  2  0  0  0  0
 22 23  1  0  0  0  0
 22 26  1  0  0  0  0
 23 24  1  0  0  0  0
 23 25  1  0  0  0  0
 26 27  1  0  0  0  0
 26 28  1  0  0  0  0
 29 30  2  0  0  0  0
 29 31  1  0  0  0  0
 31 32  1  0  0  0  0
 31 33  1  0  0  0  0
 33 34  1  0  0  0  0
 33 35  1  0  0  0  0
 33 36  1  0  0  0  0
M  CHG  1  20   1
M  END
$$$$

  -OEChem-02172215453D

 36 35  0     1  0  0  0  0  0999 V2000
   -4.2552   -1.7356    1.3874 H   0  0  0  0  0  0  0  0  0  0  0  0
   -4.1460   -0.7555    0.9143 C   0  0  0  0  0  0  0  0  0  0  0  0
   -4.7497   -0.0312    1.4674 H   0  0  0  0  0  0  0  0  0  0  0  0
   -4.5141   -0.8172   -0.1125 H   0  0  0  0  0  0  0  0  0  0  0  0
   -2.6906   -0.3280    0.9222 C   0  0  0  0  0  0  0  0  0  0  0  0
   -1.8622   -1.0371    1.4724 O   0  0  0  0  0  0  0  0  0  0  0  0
   -2.3471    0.9024    0.3943 N   0  0  0  0  0  0  0  0  0  0  0  0
   -3.1327    1.5116    0.1681 H   0  0  0  0  0  0  0  0  0  0  0  0
   -1.0111    1.5323    0.3854 C   0  0  1  0  0  0  0  0  0  0  0  0
   -0.5844    1.4768    1.3934 H   0  0  0  0  0  0  0  0  0  0  0  0
    0.0115    0.9282   -0.6240 C   0  0  0  0  0  0  0  0  0  0  0  0
   -0.4299    0.9449   -1.6264 H   0  0  0  0  0  0  0  0  0  0  0  0
    0.9032    1.5650   -0.6371 H   0  0  0  0  0  0  0  0  0  0  0  0
    0.4641   -0.5047   -0.3240 C   0  0  0  0  0  0  0  0  0  0  0  0
    0.8856   -0.5565    0.6863 H   0  0  0  0  0  0  0  0  0  0  0  0
   -0.3965   -1.1721   -0.3815 H   0  0  0  0  0  0  0  0  0  0  0  0
    1.4654   -1.0092   -1.3577 C   0  0  0  0  0  0  0  0  0  0  0  0
    1.0116   -0.9704   -2.3541 H   0  0  0  0  0  0  0  0  0  0  0  0
    2.3548   -0.3692   -1.3491 H   0  0  0  0  0  0  0  0  0  0  0  0
    1.8241   -2.3950   -1.0048 N   0  3  0  0  0  0  0  0  0  0  0  0
    1.3964   -2.7752   -0.1598 H   0  0  0  0  0  0  0  0  0  0  0  0
    2.6165   -3.1493   -1.7086 C   0  0  0  0  0  0  0  0  0  0  0  0
    3.2013   -2.7029   -2.8716 N   0  0  0  0  0  0  0  0  0  0  0  0
    2.8814   -1.8180   -3.2587 H   0  0  0  0  0  0  0  0  0  0  0  0
    3.6177   -3.3833   -3.5039 H   0  0  0  0  0  0  0  0  0  0  0  0
    2.8798   -4.4302   -1.2852 N   0  0  0  0  0  0  0  0  0  0  0  0
    2.5912   -4.7044   -0.3477 H   0  0  0  0  0  0  0  0  0  0  0  0
    3.6529   -4.9360   -1.7137 H   0  0  0  0  0  0  0  0  0  0  0  0
   -1.2111    3.0316    0.0478 C   0  0  0  0  0  0  0  0  0  0  0  0
   -1.7846    3.7355    0.8649 O   0  0  0  0  0  0  0  0  0  0  0  0
   -0.9100    3.5780   -1.1898 N   0  0  0  0  0  0  0  0  0  0  0  0
   -0.5036    2.9689   -1.8918 H   0  0  0  0  0  0  0  0  0  0  0  0
   -1.1872    4.9686   -1.5396 C   0  0  0  0  0  0  0  0  0  0  0  0
   -0.6499    5.6473   -0.8685 H   0  0  0  0  0  0  0  0  0  0  0  0
   -0.8675    5.1741   -2.5658 H   0  0  0  0  0  0  0  0  0  0  0  0
   -2.2596    5.1781   -1.4639 H   0  0  0  0  0  0  0  0  0  0  0  0
  1  2  1  0  0  0  0
  2  3  1  0  0  0  0
  2  4  1  0  0  0  0
  2  5  1  0  0  0  0
  5  6  2  0  0  0  0
  5  7  1  0  0  0  0
  7  8  1  0  0  0  0
  7  9  1  0  0  0  0
  9 10  1  0  0  0  0
  9 11  1  0  0  0  0
  9 29  1  0  0  0  0
 11 12  1  0  0  0  0
 11 13  1  0  0  0  0
 11 14  1  0  0  0  0
 14 15  1  0  0  0  0
 14 16  1  0  0  0  0
 14 17  1  0  0  0  0
 17 18  1  0  0  0  0
 17 19  1  0  0  0  0
 17 20  1  0  0  0  0
 20 21  1  0  0  0  0
 20 22  2  0  0  0  0
 22 23  1  0  0  0  0
 22 26  1  0  0  0  0
 23 24  1  0  0  0  0
 23 25  1  0  0  0  0
 26 27  1  0  0  0  0
 26 28  1  0  0  0  0
 29 30  2  0  0  0  0
 29 31  1  0  0  0  0
 31 32  1  0  0  0  0
 31 33  1  0  0  0  0
 33 34  1  0  0  0  0
 33 35  1  0  0  0  0
 33 36  1  0  0  0  0
M  CHG  1  20   1
M  END
$$$$

  -OEChem-02172215453D

 36 35  0     1  0  0  0  0  0999 V2000
   -4.2525   -1.7552    1.4047 H   0  0  0  0  0  0  0  0  0  0  0  0
   -4.1532   -0.7767    0.9265 C   0  0  0  0  0  0  0  0  0  0  0  0
   -4.7667   -0.0566    1.4738 H   0  0  0  0  0  0  0  0  0  0  0  0
   -4.5179   -0.8483   -0.1008 H   0  0  0  0  0  0  0  0  0  0  0  0
   -2.7026   -0.3333    0.9362 C   0  0  0  0  0  0  0  0  0  0  0  0
   -1.8670   -1.0323    1.4879 O   0  0  0  0  0  0  0  0  0  0  0  0
   -2.3699    0.8957    0.3977 N   0  0  0  0  0  0  0  0  0  0  0  0
   -3.1596    1.4870    0.1438 H   0  0  0  0  0  0  0  0  0  0  0  0
   -1.0354    1.5283    0.3744 C   0  0  1  0  0  0  0  0  0  0  0  0
   -0.6035    1.4744    1.3805 H   0  0  0  0  0  0  0  0  0  0  0  0
   -0.0122    0.9276   -0.6343 C   0  0  0  0  0  0  0  0  0  0  0  0
   -0.4552    0.9348   -1.6356 H   0  0  0  0  0  0  0  0  0  0  0  0
    0.8726    1.5744   -0.6547 H   0  0  0  0  0  0  0  0  0  0  0  0
    0.4508   -0.5005   -0.3269 C   0  0  0  0  0  0  0  0  0  0  0  0
    0.8771   -0.5420    0.6818 H   0  0  0  0  0  0  0  0  0  0  0  0
   -0.4051   -1.1749   -0.3753 H   0  0  0  0  0  0  0  0  0  0  0  0
    1.4526   -1.0022   -1.3613 C   0  0  0  0  0  0  0  0  0  0  0  0
    0.9959   -0.9706   -2.3564 H   0  0  0  0  0  0  0  0  0  0  0  0
    2.3368   -0.3548   -1.3582 H   0  0  0  0  0  0  0  0  0  0  0  0
    1.8242   -2.3836   -1.0042 N   0  3  0  0  0  0  0  0  0  0  0  0
    1.4058   -2.7630   -0.1542 H   0  0  0  0  0  0  0  0  0  0  0  0
    2.6204   -3.1339   -1.7081 C   0  0  0  0  0  0  0  0  0  0  0  0
    3.1970   -2.6870   -2.8749 N   0  0  0  0  0  0  0  0  0  0  0  0
    2.8697   -1.8049   -3.2625 H   0  0  0  0  0  0  0  0  0  0  0  0
    3.6137   -3.3668   -3.5080 H   0  0  0  0  0  0  0  0  0  0  0  0
    2.8985   -4.4100   -1.2800 N   0  0  0  0  0  0  0  0  0  0  0  0
    2.6194   -4.6798   -0.3383 H   0  0  0  0  0  0  0  0  0  0  0  0
    3.6807   -4.9049   -1.7043 H   0  0  0  0  0  0  0  0  0  0  0  0
   -1.2216    3.0253    0.0319 C   0  0  0  0  0  0  0  0  0  0  0  0
   -1.4764    3.8061    0.9351 O   0  0  0  0  0  0  0  0  0  0  0  0
   -1.2140    3.4969   -1.2708 N   0  0  0  0  0  0  0  0  0  0  0  0
   -1.0814    2.8239   -2.0185 H   0  0  0  0  0  0  0  0  0  0  0  0
   -1.4694    4.8926   -1.6157 C   0  0  0  0  0  0  0  0  0  0  0  0
   -0.7279    5.5459   -1.1434 H   0  0  0  0  0  0  0  0  0  0  0  0
   -1.4123    5.0341   -2.6993 H   0  0  0  0  0  0  0  0  0  0  0  0
   -2.4672    5.1953   -1.2803 H   0  0  0  0  0  0  0  0  0  0  0  0
  1  2  1  0  0  0  0
  2  3  1  0  0  0  0
  2  4  1  0  0  0  0
  2  5  1  0  0  0  0
  5  6  2  0  0  0  0
  5  7  1  0  0  0  0
  7  8  1  0  0  0  0
  7  9  1  0  0  0  0
  9 10  1  0  0  0  0
  9 11  1  0  0  0  0
  9 29  1  0  0  0  0
 11 12  1  0  0  0  0
 11 13  1  0  0  0  0
 11 14  1  0  0  0  0
 14 15  1  0  0  0  0
 14 16  1  0  0  0  0
 14 17  1  0  0  0  0
 17 18  1  0  0  0  0
 17 19  1  0  0  0  0
 17 20  1  0  0  0  0
 20 21  1  0  0  0  0
 20 22  2  0  0  0  0
 22 23  1  0  0  0  0
 22 26  1  0  0  0  0
 23 24  1  0  0  0  0
 23 25  1  0  0  0  0
 26 27  1  0  0  0  0
 26 28  1  0  0  0  0
 29 30  2  0  0  0  0
 29 31  1  0  0  0  0
 31 32  1  0  0  0  0
 31 33  1  0  0  0  0
 33 34  1  0  0  0  0
 33 35  1  0  0  0  0
 33 36  1  0  0  0  0
M  CHG  1  20   1
M  END
$$$$

  -OEChem-02172215453D

 36 35  0     1  0  0  0  0  0999 V2000
   -4.2575   -1.7770    1.4353 H   0  0  0  0  0  0  0  0  0  0  0  0
   -4.1676   -0.8005    0.9508 C   0  0  0  0  0  0  0  0  0  0  0  0
   -4.7863   -0.0826    1.4950 H   0  0  0  0  0  0  0  0  0  0  0  0
   -4.5335   -0.8814   -0.0754 H   0  0  0  0  0  0  0  0  0  0  0  0
   -2.7206   -0.3451    0.9549 C   0  0  0  0  0  0  0  0  0  0  0  0
   -1.8776   -1.0335    1.5080 O   0  0  0  0  0  0  0  0  0  0  0  0
   -2.3977    0.8817    0.4049 N   0  0  0  0  0  0  0  0  0  0  0  0
   -3.1911    1.4583    0.1310 H   0  0  0  0  0  0  0  0  0  0  0  0
   -1.0650    1.5193    0.3772 C   0  0  1  0  0  0  0  0  0  0  0  0
   -0.6326    1.4679    1.3833 H   0  0  0  0  0  0  0  0  0  0  0  0
   -0.0386    0.9280   -0.6309 C   0  0  0  0  0  0  0  0  0  0  0  0
   -0.4789    0.9364   -1.6334 H   0  0  0  0  0  0  0  0  0  0  0  0
    0.8418    1.5805   -0.6490 H   0  0  0  0  0  0  0  0  0  0  0  0
    0.4327   -0.4970   -0.3227 C   0  0  0  0  0  0  0  0  0  0  0  0
    0.8605   -0.5350    0.6856 H   0  0  0  0  0  0  0  0  0  0  0  0
   -0.4193   -1.1768   -0.3687 H   0  0  0  0  0  0  0  0  0  0  0  0
    1.4384   -0.9890   -1.3580 C   0  0  0  0  0  0  0  0  0  0  0  0
    0.9812   -0.9587   -2.3528 H   0  0  0  0  0  0  0  0  0  0  0  0
    2.3171   -0.3342   -1.3537 H   0  0  0  0  0  0  0  0  0  0  0  0
    1.8220   -2.3681   -1.0058 N   0  3  0  0  0  0  0  0  0  0  0  0
    1.4075   -2.7541   -0.1569 H   0  0  0  0  0  0  0  0  0  0  0  0
    2.6246   -3.1078   -1.7137 C   0  0  0  0  0  0  0  0  0  0  0  0
    3.1956   -2.6495   -2.8789 N   0  0  0  0  0  0  0  0  0  0  0  0
    2.8619   -1.7669   -3.2601 H   0  0  0  0  0  0  0  0  0  0  0  0
    3.6189   -3.3213   -3.5159 H   0  0  0  0  0  0  0  0  0  0  0  0
    2.9135   -4.3842   -1.2933 N   0  0  0  0  0  0  0  0  0  0  0  0
    2.6373   -4.6623   -0.3532 H   0  0  0  0  0  0  0  0  0  0  0  0
    3.6983   -4.8708   -1.7222 H   0  0  0  0  0  0  0  0  0  0  0  0
   -1.2405    3.0125    0.0233 C   0  0  0  0  0  0  0  0  0  0  0  0
   -1.1506    3.8499    0.9065 O   0  0  0  0  0  0  0  0  0  0  0  0
   -1.5298    3.4235   -1.2671 N   0  0  0  0  0  0  0  0  0  0  0  0
   -1.6494    2.7080   -1.9773 H   0  0  0  0  0  0  0  0  0  0  0  0
   -1.7473    4.8214   -1.6283 C   0  0  0  0  0  0  0  0  0  0  0  0
   -0.8567    5.4185   -1.4047 H   0  0  0  0  0  0  0  0  0  0  0  0
   -1.9615    4.9100   -2.6977 H   0  0  0  0  0  0  0  0  0  0  0  0
   -2.5949    5.2347   -1.0710 H   0  0  0  0  0  0  0  0  0  0  0  0
  1  2  1  0  0  0  0
  2  3  1  0  0  0  0
  2  4  1  0  0  0  0
  2  5  1  0  0  0  0
  5  6  2  0  0  0  0
  5  7  1  0  0  0  0
  7  8  1  0  0  0  0
  7  9  1  0  0  0  0
  9 10  1  0  0  0  0
  9 11  1  0  0  0  0
  9 29  1  0  0  0  0
 11 12  1  0  0  0  0
 11 13  1  0  0  0  0
 11 14  1  0  0  0  0
 14 15  1  0  0  0  0
 14 16  1  0  0  0  0
 14 17  1  0  0  0  0
 17 18  1  0  0  0  0
 17 19  1  0  0  0  0
 17 20  1  0  0  0  0
 20 21  1  0  0  0  0
 20 22  2  0  0  0  0
 22 23  1  0  0  0  0
 22 26  1  0  0  0  0
 23 24  1  0  0  0  0
 23 25  1  0  0  0  0
 26 27  1  0  0  0  0
 26 28  1  0  0  0  0
 29 30  2  0  0  0  0
 29 31  1  0  0  0  0
 31 32  1  0  0  0  0
 31 33  1  0  0  0  0
 33 34  1  0  0  0  0
 33 35  1  0  0  0  0
 33 36  1  0  0  0  0
M  CHG  1  20   1
M  END
$$$$

  -OEChem-02172215453D

 36 35  0     1  0  0  0  0  0999 V2000
   -4.2706   -1.8009    1.4693 H   0  0  0  0  0  0  0  0  0  0  0  0
   -4.1878   -0.8250    0.9822 C   0  0  0  0  0  0  0  0  0  0  0  0
   -4.8090   -0.1092    1.5267 H   0  0  0  0  0  0  0  0  0  0  0  0
   -4.5560   -0.9111   -0.0428 H   0  0  0  0  0  0  0  0  0  0  0  0
   -2.7438   -0.3605    0.9811 C   0  0  0  0  0  0  0  0  0  0  0  0
   -1.8952   -1.0398    1.5363 O   0  0  0  0  0  0  0  0  0  0  0  0
   -2.4280    0.8632    0.4198 N   0  0  0  0  0  0  0  0  0  0  0  0
   -3.2245    1.4340    0.1433 H   0  0  0  0  0  0  0  0  0  0  0  0
   -1.0978    1.5079    0.3995 C   0  0  1  0  0  0  0  0  0  0  0  0
   -0.6702    1.4602    1.4081 H   0  0  0  0  0  0  0  0  0  0  0  0
   -0.0680    0.9258   -0.6079 C   0  0  0  0  0  0  0  0  0  0  0  0
   -0.5059    0.9427   -1.6113 H   0  0  0  0  0  0  0  0  0  0  0  0
    0.8104    1.5820   -0.6192 H   0  0  0  0  0  0  0  0  0  0  0  0
    0.4099   -0.4985   -0.3074 C   0  0  0  0  0  0  0  0  0  0  0  0
    0.8402   -0.5394    0.6996 H   0  0  0  0  0  0  0  0  0  0  0  0
   -0.4389   -1.1826   -0.3550 H   0  0  0  0  0  0  0  0  0  0  0  0
    1.4190   -0.9741   -1.3475 C   0  0  0  0  0  0  0  0  0  0  0  0
    0.9610   -0.9370   -2.3418 H   0  0  0  0  0  0  0  0  0  0  0  0
    2.2924   -0.3122   -1.3371 H   0  0  0  0  0  0  0  0  0  0  0  0
    1.8161   -2.3536   -1.0117 N   0  3  0  0  0  0  0  0  0  0  0  0
    1.4118   -2.7516   -0.1634 H   0  0  0  0  0  0  0  0  0  0  0  0
    2.6245   -3.0764   -1.7305 C   0  0  0  0  0  0  0  0  0  0  0  0
    3.1887   -2.5990   -2.8915 N   0  0  0  0  0  0  0  0  0  0  0  0
    2.8506   -1.7124   -3.2594 H   0  0  0  0  0  0  0  0  0  0  0  0
    3.6161   -3.2589   -3.5382 H   0  0  0  0  0  0  0  0  0  0  0  0
    2.9297   -4.3535   -1.3245 N   0  0  0  0  0  0  0  0  0  0  0  0
    2.6604   -4.6438   -0.3861 H   0  0  0  0  0  0  0  0  0  0  0  0
    3.7198   -4.8254   -1.7603 H   0  0  0  0  0  0  0  0  0  0  0  0
   -1.2629    2.9965    0.0291 C   0  0  0  0  0  0  0  0  0  0  0  0
   -0.8656    3.8572    0.7979 O   0  0  0  0  0  0  0  0  0  0  0  0
   -1.8287    3.3714   -1.1779 N   0  0  0  0  0  0  0  0  0  0  0  0
   -2.1249    2.6360   -1.8122 H   0  0  0  0  0  0  0  0  0  0  0  0
   -2.0009    4.7643   -1.5793 C   0  0  0  0  0  0  0  0  0  0  0  0
   -1.0310    5.2699   -1.6379 H   0  0  0  0  0  0  0  0  0  0  0  0
   -2.4797    4.8215   -2.5617 H   0  0  0  0  0  0  0  0  0  0  0  0
   -2.6305    5.2965   -0.8580 H   0  0  0  0  0  0  0  0  0  0  0  0
  1  2  1  0  0  0  0
  2  3  1  0  0  0  0
  2  4  1  0  0  0  0
  2  5  1  0  0  0  0
  5  6  2  0  0  0  0
  5  7  1  0  0  0  0
  7  8  1  0  0  0  0
  7  9  1  0  0  0  0
  9 10  1  0  0  0  0
  9 11  1  0  0  0  0
  9 29  1  0  0  0  0
 11 12  1  0  0  0  0
 11 13  1  0  0  0  0
 11 14  1  0  0  0  0
 14 15  1  0  0  0  0
 14 16  1  0  0  0  0
 14 17  1  0  0  0  0
 17 18  1  0  0  0  0
 17 19  1  0  0  0  0
 17 20  1  0  0  0  0
 20 21  1  0  0  0  0
 20 22  2  0  0  0  0
 22 23  1  0  0  0  0
 22 26  1  0  0  0  0
 23 24  1  0  0  0  0
 23 25  1  0  0  0  0
 26 27  1  0  0  0  0
 26 28  1  0  0  0  0
 29 30  2  0  0  0  0
 29 31  1  0  0  0  0
 31 32  1  0  0  0  0
 31 33  1  0  0  0  0
 33 34  1  0  0  0  0
 33 35  1  0  0  0  0
 33 36  1  0  0  0  0
M  CHG  1  20   1
M  END
$$$$

  -OEChem-02172215453D

 36 35  0     1  0  0  0  0  0999 V2000
   -4.2601   -1.8381    1.4885 H   0  0  0  0  0  0  0  0  0  0  0  0
   -4.1885   -0.8627    0.9987 C   0  0  0  0  0  0  0  0  0  0  0  0
   -4.8194   -0.1527    1.5396 H   0  0  0  0  0  0  0  0  0  0  0  0
   -4.5533   -0.9566   -0.0268 H   0  0  0  0  0  0  0  0  0  0  0  0
   -2.7501   -0.3815    0.9993 C   0  0  0  0  0  0  0  0  0  0  0  0
   -1.8958   -1.0478    1.5611 O   0  0  0  0  0  0  0  0  0  0  0  0
   -2.4465    0.8424    0.4315 N   0  0  0  0  0  0  0  0  0  0  0  0
   -3.2495    1.4089    0.1678 H   0  0  0  0  0  0  0  0  0  0  0  0
   -1.1212    1.4999    0.4165 C   0  0  1  0  0  0  0  0  0  0  0  0
   -0.6947    1.4559    1.4257 H   0  0  0  0  0  0  0  0  0  0  0  0
   -0.0912    0.9237   -0.5935 C   0  0  0  0  0  0  0  0  0  0  0  0
   -0.5323    0.9430   -1.5958 H   0  0  0  0  0  0  0  0  0  0  0  0
    0.7853    1.5823   -0.6068 H   0  0  0  0  0  0  0  0  0  0  0  0
    0.3939   -0.4986   -0.2961 C   0  0  0  0  0  0  0  0  0  0  0  0
    0.8273   -0.5392    0.7097 H   0  0  0  0  0  0  0  0  0  0  0  0
   -0.4505   -1.1881   -0.3422 H   0  0  0  0  0  0  0  0  0  0  0  0
    1.4020   -0.9645   -1.3406 C   0  0  0  0  0  0  0  0  0  0  0  0
    0.9399   -0.9270   -2.3330 H   0  0  0  0  0  0  0  0  0  0  0  0
    2.2704   -0.2963   -1.3315 H   0  0  0  0  0  0  0  0  0  0  0  0
    1.8093   -2.3424   -1.0115 N   0  3  0  0  0  0  0  0  0  0  0  0
    1.4121   -2.7462   -0.1628 H   0  0  0  0  0  0  0  0  0  0  0  0
    2.6199   -3.0560   -1.7369 C   0  0  0  0  0  0  0  0  0  0  0  0
    3.1749   -2.5676   -2.8975 N   0  0  0  0  0  0  0  0  0  0  0  0
    2.8259   -1.6823   -3.2584 H   0  0  0  0  0  0  0  0  0  0  0  0
    3.6014   -3.2210   -3.5511 H   0  0  0  0  0  0  0  0  0  0  0  0
    2.9368   -4.3330   -1.3393 N   0  0  0  0  0  0  0  0  0  0  0  0
    2.6739   -4.6304   -0.4014 H   0  0  0  0  0  0  0  0  0  0  0  0
    3.7307   -4.7944   -1.7793 H   0  0  0  0  0  0  0  0  0  0  0  0
   -1.2783    2.9869    0.0376 C   0  0  0  0  0  0  0  0  0  0  0  0
   -0.6383    3.8326    0.6420 O   0  0  0  0  0  0  0  0  0  0  0  0
   -2.0935    3.3719   -1.0137 N   0  0  0  0  0  0  0  0  0  0  0  0
   -2.5281    2.6412   -1.5684 H   0  0  0  0  0  0  0  0  0  0  0  0
   -2.2457    4.7619   -1.4335 C   0  0  0  0  0  0  0  0  0  0  0  0
   -1.2862    5.1691   -1.7698 H   0  0  0  0  0  0  0  0  0  0  0  0
   -2.9613    4.8348   -2.2586 H   0  0  0  0  0  0  0  0  0  0  0  0
   -2.6153    5.3748   -0.6039 H   0  0  0  0  0  0  0  0  0  0  0  0
  1  2  1  0  0  0  0
  2  3  1  0  0  0  0
  2  4  1  0  0  0  0
  2  5  1  0  0  0  0
  5  6  2  0  0  0  0
  5  7  1  0  0  0  0
  7  8  1  0  0  0  0
  7  9  1  0  0  0  0
  9 10  1  0  0  0  0
  9 11  1  0  0  0  0
  9 29  1  0  0  0  0
 11 12  1  0  0  0  0
 11 13  1  0  0  0  0
 11 14  1  0  0  0  0
 14 15  1  0  0  0  0
 14 16  1  0  0  0  0
 14 17  1  0  0  0  0
 17 18  1  0  0  0  0
 17 19  1  0  0  0  0
 17 20  1  0  0  0  0
 20 21  1  0  0  0  0
 20 22  2  0  0  0  0
 22 23  1  0  0  0  0
 22 26  1  0  0  0  0
 23 24  1  0  0  0  0
 23 25  1  0  0  0  0
 26 27  1  0  0  0  0
 26 28  1  0  0  0  0
 29 30  2  0  0  0  0
 29 31  1  0  0  0  0
 31 32  1  0  0  0  0
 31 33  1  0  0  0  0
 33 34  1  0  0  0  0
 33 35  1  0  0  0  0
 33 36  1  0  0  0  0
M  CHG  1  20   1
M  END
$$$$

  -OEChem-02172215453D

 36 35  0     1  0  0  0  0  0999 V2000
   -4.2475   -1.8752    1.5040 H   0  0  0  0  0  0  0  0  0  0  0  0
   -4.1865   -0.8998    1.0130 C   0  0  0  0  0  0  0  0  0  0  0  0
   -4.8283   -0.1973    1.5504 H   0  0  0  0  0  0  0  0  0  0  0  0
   -4.5472   -1.0003   -0.0132 H   0  0  0  0  0  0  0  0  0  0  0  0
   -2.7538   -0.4015    1.0169 C   0  0  0  0  0  0  0  0  0  0  0  0
   -1.8950   -1.0520    1.5900 O   0  0  0  0  0  0  0  0  0  0  0  0
   -2.4622    0.8219    0.4410 N   0  0  0  0  0  0  0  0  0  0  0  0
   -3.2722    1.3828    0.1897 H   0  0  0  0  0  0  0  0  0  0  0  0
   -1.1425    1.4933    0.4324 C   0  0  1  0  0  0  0  0  0  0  0  0
   -0.7188    1.4545    1.4427 H   0  0  0  0  0  0  0  0  0  0  0  0
   -0.1129    0.9148   -0.5779 C   0  0  0  0  0  0  0  0  0  0  0  0
   -0.5578    0.9332   -1.5786 H   0  0  0  0  0  0  0  0  0  0  0  0
    0.7634    1.5738   -0.5957 H   0  0  0  0  0  0  0  0  0  0  0  0
    0.3800   -0.5055   -0.2818 C   0  0  0  0  0  0  0  0  0  0  0  0
    0.8192   -0.5428    0.7216 H   0  0  0  0  0  0  0  0  0  0  0  0
   -0.4607   -1.2001   -0.3235 H   0  0  0  0  0  0  0  0  0  0  0  0
    1.3863   -0.9643   -1.3320 C   0  0  0  0  0  0  0  0  0  0  0  0
    0.9191   -0.9272   -2.3221 H   0  0  0  0  0  0  0  0  0  0  0  0
    2.2505   -0.2905   -1.3258 H   0  0  0  0  0  0  0  0  0  0  0  0
    1.8063   -2.3405   -1.0105 N   0  3  0  0  0  0  0  0  0  0  0  0
    1.4186   -2.7504   -0.1604 H   0  0  0  0  0  0  0  0  0  0  0  0
    2.6183   -3.0441   -1.7443 C   0  0  0  0  0  0  0  0  0  0  0  0
    3.1620   -2.5459   -2.9062 N   0  0  0  0  0  0  0  0  0  0  0  0
    2.8049   -1.6614   -3.2610 H   0  0  0  0  0  0  0  0  0  0  0  0
    3.5921   -3.1922   -3.5646 H   0  0  0  0  0  0  0  0  0  0  0  0
    2.9511   -4.3192   -1.3535 N   0  0  0  0  0  0  0  0  0  0  0  0
    2.7032   -4.6197   -0.4124 H   0  0  0  0  0  0  0  0  0  0  0  0
    3.7465   -4.7702   -1.8019 H   0  0  0  0  0  0  0  0  0  0  0  0
   -1.2888    2.9810    0.0426 C   0  0  0  0  0  0  0  0  0  0  0  0
   -0.4807    3.7921    0.4683 O   0  0  0  0  0  0  0  0  0  0  0  0
   -2.3004    3.4109   -0.8012 N   0  0  0  0  0  0  0  0  0  0  0  0
   -2.8508    2.7032   -1.2763 H   0  0  0  0  0  0  0  0  0  0  0  0
   -2.4495    4.8042   -1.2118 C   0  0  0  0  0  0  0  0  0  0  0  0
   -1.5779    5.1314   -1.7890 H   0  0  0  0  0  0  0  0  0  0  0  0
   -3.3421    4.9246   -1.8334 H   0  0  0  0  0  0  0  0  0  0  0  0
   -2.5536    5.4532   -0.3354 H   0  0  0  0  0  0  0  0  0  0  0  0
  1  2  1  0  0  0  0
  2  3  1  0  0  0  0
  2  4  1  0  0  0  0
  2  5  1  0  0  0  0
  5  6  2  0  0  0  0
  5  7  1  0  0  0  0
  7  8  1  0  0  0  0
  7  9  1  0  0  0  0
  9 10  1  0  0  0  0
  9 11  1  0  0  0  0
  9 29  1  0  0  0  0
 11 12  1  0  0  0  0
 11 13  1  0  0  0  0
 11 14  1  0  0  0  0
 14 15  1  0  0  0  0
 14 16  1  0  0  0  0
 14 17  1  0  0  0  0
 17 18  1  0  0  0  0
 17 19  1  0  0  0  0
 17 20  1  0  0  0  0
 20 21  1  0  0  0  0
 20 22  2  0  0  0  0
 22 23  1  0  0  0  0
 22 26  1  0  0  0  0
 23 24  1  0  0  0  0
 23 25  1  0  0  0  0
 26 27  1  0  0  0  0
 26 28  1  0  0  0  0
 29 30  2  0  0  0  0
 29 31  1  0  0  0  0
 31 32  1  0  0  0  0
 31 33  1  0  0  0  0
 33 34  1  0  0  0  0
 33 35  1  0  0  0  0
 33 36  1  0  0  0  0
M  CHG  1  20   1
M  END
$$$$

  -OEChem-02172215453D

 36 35  0     1  0  0  0  0  0999 V2000
   -4.0695   -2.0156    1.3824 H   0  0  0  0  0  0  0  0  0  0  0  0
   -4.0588   -1.0381    0.8916 C   0  0  0  0  0  0  0  0  0  0  0  0
   -4.8336   -0.4127    1.3423 H   0  0  0  0  0  0  0  0  0  0  0  0
   -4.2812   -1.1751   -0.1692 H   0  0  0  0  0  0  0  0  0  0  0  0
   -2.7016   -0.3825    1.0627 C   0  0  0  0  0  0  0  0  0  0  0  0
   -1.8557   -0.9187    1.7604 O   0  0  0  0  0  0  0  0  0  0  0  0
   -2.4575    0.8421    0.4695 N   0  0  0  0  0  0  0  0  0  0  0  0
   -3.1946    1.1784   -0.1412 H   0  0  0  0  0  0  0  0  0  0  0  0
   -1.1484    1.5331    0.4129 C   0  0  1  0  0  0  0  0  0  0  0  0
   -0.7004    1.5103    1.4131 H   0  0  0  0  0  0  0  0  0  0  0  0
   -0.1454    0.9110   -0.6015 C   0  0  0  0  0  0  0  0  0  0  0  0
   -0.6192    0.8887   -1.5885 H   0  0  0  0  0  0  0  0  0  0  0  0
    0.7329    1.5621   -0.6759 H   0  0  0  0  0  0  0  0  0  0  0  0
    0.3603   -0.4946   -0.2566 C   0  0  0  0  0  0  0  0  0  0  0  0
    0.8358   -0.4836    0.7307 H   0  0  0  0  0  0  0  0  0  0  0  0
   -0.4764   -1.1950   -0.2341 H   0  0  0  0  0  0  0  0  0  0  0  0
    1.3356   -0.9862   -1.3213 C   0  0  0  0  0  0  0  0  0  0  0  0
    0.8343   -0.9884   -2.2953 H   0  0  0  0  0  0  0  0  0  0  0  0
    2.1924   -0.3044   -1.3695 H   0  0  0  0  0  0  0  0  0  0  0  0
    1.7831   -2.3464   -0.9710 N   0  3  0  0  0  0  0  0  0  0  0  0
    1.4365   -2.7316   -0.0923 H   0  0  0  0  0  0  0  0  0  0  0  0
    2.5774   -3.0618   -1.7130 C   0  0  0  0  0  0  0  0  0  0  0  0
    3.0715   -2.5913   -2.9083 N   0  0  0  0  0  0  0  0  0  0  0  0
    2.6908   -1.7222   -3.2769 H   0  0  0  0  0  0  0  0  0  0  0  0
    3.4995   -3.2471   -3.5585 H   0  0  0  0  0  0  0  0  0  0  0  0
    2.9439   -4.3192   -1.2967 N   0  0  0  0  0  0  0  0  0  0  0  0
    2.7389   -4.5931   -0.3374 H   0  0  0  0  0  0  0  0  0  0  0  0
    3.7260   -4.7743   -1.7638 H   0  0  0  0  0  0  0  0  0  0  0  0
   -1.2919    3.0269    0.0237 C   0  0  0  0  0  0  0  0  0  0  0  0
   -0.3164    3.7594    0.1085 O   0  0  0  0  0  0  0  0  0  0  0  0
   -2.4580    3.5407   -0.5226 N   0  0  0  0  0  0  0  0  0  0  0  0
   -3.2976    2.9804   -0.4422 H   0  0  0  0  0  0  0  0  0  0  0  0
   -2.6092    4.9532   -0.8633 C   0  0  0  0  0  0  0  0  0  0  0  0
   -1.8565    5.2544   -1.5998 H   0  0  0  0  0  0  0  0  0  0  0  0
   -3.5998    5.1375   -1.2910 H   0  0  0  0  0  0  0  0  0  0  0  0
   -2.4956    5.5786    0.0288 H   0  0  0  0  0  0  0  0  0  0  0  0
  1  2  1  0  0  0  0
  2  3  1  0  0  0  0
  2  4  1  0  0  0  0
  2  5  1  0  0  0  0
  5  6  2  0  0  0  0
  5  7  1  0  0  0  0
  7  8  1  0  0  0  0
  7  9  1  0  0  0  0
  9 10  1  0  0  0  0
  9 11  1  0  0  0  0
  9 29  1  0  0  0  0
 11 12  1  0  0  0  0
 11 13  1  0  0  0  0
 11 14  1  0  0  0  0
 14 15  1  0  0  0  0
 14 16  1  0  0  0  0
 14 17  1  0  0  0  0
 17 18  1  0  0  0  0
 17 19  1  0  0  0  0
 17 20  1  0  0  0  0
 20 21  1  0  0  0  0
 20 22  2  0  0  0  0
 22 23  1  0  0  0  0
 22 26  1  0  0  0  0
 23 24  1  0  0  0  0
 23 25  1  0  0  0  0
 26 27  1  0  0  0  0
 26 28  1  0  0  0  0
 29 30  2  0  0  0  0
 29 31  1  0  0  0  0
 31 32  1  0  0  0  0
 31 33  1  0  0  0  0
 33 34  1  0  0  0  0
 33 35  1  0  0  0  0
 33 36  1  0  0  0  0
M  CHG  1  20   1
M  END
$$$$

  -OEChem-02172215453D

 36 35  0     1  0  0  0  0  0999 V2000
   -4.0027   -2.0433    1.3026 H   0  0  0  0  0  0  0  0  0  0  0  0
   -4.0030   -1.0584    0.8271 C   0  0  0  0  0  0  0  0  0  0  0  0
   -4.8124   -0.4631    1.2571 H   0  0  0  0  0  0  0  0  0  0  0  0
   -4.1824   -1.1856   -0.2430 H   0  0  0  0  0  0  0  0  0  0  0  0
   -2.6737   -0.3657    1.0578 C   0  0  0  0  0  0  0  0  0  0  0  0
   -1.8402   -0.8821    1.7848 O   0  0  0  0  0  0  0  0  0  0  0  0
   -2.4350    0.8638    0.4729 N   0  0  0  0  0  0  0  0  0  0  0  0
   -3.1407    1.1641   -0.1943 H   0  0  0  0  0  0  0  0  0  0  0  0
   -1.1257    1.5550    0.4185 C   0  0  1  0  0  0  0  0  0  0  0  0
   -0.6736    1.5316    1.4164 H   0  0  0  0  0  0  0  0  0  0  0  0
   -0.1306    0.9262   -0.6015 C   0  0  0  0  0  0  0  0  0  0  0  0
   -0.6085    0.9081   -1.5866 H   0  0  0  0  0  0  0  0  0  0  0  0
    0.7545    1.5670   -0.6807 H   0  0  0  0  0  0  0  0  0  0  0  0
    0.3657   -0.4821   -0.2558 C   0  0  0  0  0  0  0  0  0  0  0  0
    0.8442   -0.4731    0.7301 H   0  0  0  0  0  0  0  0  0  0  0  0
   -0.4756   -1.1765   -0.2285 H   0  0  0  0  0  0  0  0  0  0  0  0
    1.3330   -0.9843   -1.3222 C   0  0  0  0  0  0  0  0  0  0  0  0
    0.8296   -0.9850   -2.2951 H   0  0  0  0  0  0  0  0  0  0  0  0
    2.1954   -0.3102   -1.3748 H   0  0  0  0  0  0  0  0  0  0  0  0
    1.7674   -2.3467   -0.9652 N   0  3  0  0  0  0  0  0  0  0  0  0
    1.4190   -2.7229   -0.0834 H   0  0  0  0  0  0  0  0  0  0  0  0
    2.5527   -3.0745   -1.7042 C   0  0  0  0  0  0  0  0  0  0  0  0
    3.0492   -2.6161   -2.9032 N   0  0  0  0  0  0  0  0  0  0  0  0
    2.6740   -1.7464   -3.2762 H   0  0  0  0  0  0  0  0  0  0  0  0
    3.4630   -3.2819   -3.5524 H   0  0  0  0  0  0  0  0  0  0  0  0
    2.9042   -4.3341   -1.2811 N   0  0  0  0  0  0  0  0  0  0  0  0
    2.6885   -4.6037   -0.3229 H   0  0  0  0  0  0  0  0  0  0  0  0
    3.6833   -4.8000   -1.7425 H   0  0  0  0  0  0  0  0  0  0  0  0
   -1.2974    3.0505    0.0403 C   0  0  0  0  0  0  0  0  0  0  0  0
   -0.3136    3.7552   -0.1385 O   0  0  0  0  0  0  0  0  0  0  0  0
   -2.5507    3.5922   -0.1975 N   0  0  0  0  0  0  0  0  0  0  0  0
   -3.3421    3.0746    0.1703 H   0  0  0  0  0  0  0  0  0  0  0  0
   -2.7466    5.0063   -0.5065 C   0  0  0  0  0  0  0  0  0  0  0  0
   -2.2021    5.2802   -1.4167 H   0  0  0  0  0  0  0  0  0  0  0  0
   -3.8084    5.2170   -0.6670 H   0  0  0  0  0  0  0  0  0  0  0  0
   -2.3888    5.6328    0.3179 H   0  0  0  0  0  0  0  0  0  0  0  0
  1  2  1  0  0  0  0
  2  3  1  0  0  0  0
  2  4  1  0  0  0  0
  2  5  1  0  0  0  0
  5  6  2  0  0  0  0
  5  7  1  0  0  0  0
  7  8  1  0  0  0  0
  7  9  1  0  0  0  0
  9 10  1  0  0  0  0
  9 11  1  0  0  0  0
  9 29  1  0  0  0  0
 11 12  1  0  0  0  0
 11 13  1  0  0  0  0
 11 14  1  0  0  0  0
 14 15  1  0  0  0  0
 14 16  1  0  0  0  0
 14 17  1  0  0  0  0
 17 18  1  0  0  0  0
 17 19  1  0  0  0  0
 17 20  1  0  0  0  0
 20 21  1  0  0  0  0
 20 22  2  0  0  0  0
 22 23  1  0  0  0  0
 22 26  1  0  0  0  0
 23 24  1  0  0  0  0
 23 25  1  0  0  0  0
 26 27  1  0  0  0  0
 26 28  1  0  0  0  0
 29 30  2  0  0  0  0
 29 31  1  0  0  0  0
 31 32  1  0  0  0  0
 31 33  1  0  0  0  0
 33 34  1  0  0  0  0
 33 35  1  0  0  0  0
 33 36  1  0  0  0  0
M  CHG  1  20   1
M  END
$$$$

  -OEChem-02172215453D

 36 35  0     1  0  0  0  0  0999 V2000
   -4.0294   -2.0106    1.2950 H   0  0  0  0  0  0  0  0  0  0  0  0
   -4.0168   -1.0272    0.8163 C   0  0  0  0  0  0  0  0  0  0  0  0
   -4.8204   -0.4210    1.2418 H   0  0  0  0  0  0  0  0  0  0  0  0
   -4.1943   -1.1556   -0.2541 H   0  0  0  0  0  0  0  0  0  0  0  0
   -2.6790   -0.3505    1.0482 C   0  0  0  0  0  0  0  0  0  0  0  0
   -1.8524   -0.8761    1.7765 O   0  0  0  0  0  0  0  0  0  0  0  0
   -2.4245    0.8790    0.4703 N   0  0  0  0  0  0  0  0  0  0  0  0
   -3.1341    1.2083   -0.1806 H   0  0  0  0  0  0  0  0  0  0  0  0
   -1.1099    1.5599    0.4224 C   0  0  1  0  0  0  0  0  0  0  0  0
   -0.6617    1.5369    1.4220 H   0  0  0  0  0  0  0  0  0  0  0  0
   -0.1134    0.9212   -0.5917 C   0  0  0  0  0  0  0  0  0  0  0  0
   -0.5838    0.9095   -1.5808 H   0  0  0  0  0  0  0  0  0  0  0  0
    0.7789    1.5530   -0.6604 H   0  0  0  0  0  0  0  0  0  0  0  0
    0.3730   -0.4909   -0.2464 C   0  0  0  0  0  0  0  0  0  0  0  0
    0.8489   -0.4872    0.7405 H   0  0  0  0  0  0  0  0  0  0  0  0
   -0.4719   -1.1811   -0.2237 H   0  0  0  0  0  0  0  0  0  0  0  0
    1.3412   -0.9924   -1.3128 C   0  0  0  0  0  0  0  0  0  0  0  0
    0.8392   -0.9860   -2.2865 H   0  0  0  0  0  0  0  0  0  0  0  0
    2.2063   -0.3212   -1.3594 H   0  0  0  0  0  0  0  0  0  0  0  0
    1.7723   -2.3586   -0.9661 N   0  3  0  0  0  0  0  0  0  0  0  0
    1.4208   -2.7422   -0.0888 H   0  0  0  0  0  0  0  0  0  0  0  0
    2.5570   -3.0816   -1.7108 C   0  0  0  0  0  0  0  0  0  0  0  0
    3.0555   -2.6144   -2.9055 N   0  0  0  0  0  0  0  0  0  0  0  0
    2.6826   -1.7406   -3.2710 H   0  0  0  0  0  0  0  0  0  0  0  0
    3.4658   -3.2762   -3.5610 H   0  0  0  0  0  0  0  0  0  0  0  0
    2.9058   -4.3454   -1.2990 N   0  0  0  0  0  0  0  0  0  0  0  0
    2.6956   -4.6203   -0.3413 H   0  0  0  0  0  0  0  0  0  0  0  0
    3.6807   -4.8106   -1.7683 H   0  0  0  0  0  0  0  0  0  0  0  0
   -1.2992    3.0560    0.0473 C   0  0  0  0  0  0  0  0  0  0  0  0
   -0.3668    3.7239   -0.3792 O   0  0  0  0  0  0  0  0  0  0  0  0
   -2.5522    3.6431    0.1183 N   0  0  0  0  0  0  0  0  0  0  0  0
   -3.2522    3.1437    0.6591 H   0  0  0  0  0  0  0  0  0  0  0  0
   -2.7783    5.0596   -0.1562 C   0  0  0  0  0  0  0  0  0  0  0  0
   -2.4688    5.3085   -1.1769 H   0  0  0  0  0  0  0  0  0  0  0  0
   -3.8406    5.3020   -0.0522 H   0  0  0  0  0  0  0  0  0  0  0  0
   -2.2103    5.6818    0.5437 H   0  0  0  0  0  0  0  0  0  0  0  0
  1  2  1  0  0  0  0
  2  3  1  0  0  0  0
  2  4  1  0  0  0  0
  2  5  1  0  0  0  0
  5  6  2  0  0  0  0
  5  7  1  0  0  0  0
  7  8  1  0  0  0  0
  7  9  1  0  0  0  0
  9 10  1  0  0  0  0
  9 11  1  0  0  0  0
  9 29  1  0  0  0  0
 11 12  1  0  0  0  0
 11 13  1  0  0  0  0
 11 14  1  0  0  0  0
 14 15  1  0  0  0  0
 14 16  1  0  0  0  0
 14 17  1  0  0  0  0
 17 18  1  0  0  0  0
 17 19  1  0  0  0  0
 17 20  1  0  0  0  0
 20 21  1  0  0  0  0
 20 22  2  0  0  0  0
 22 23  1  0  0  0  0
 22 26  1  0  0  0  0
 23 24  1  0  0  0  0
 23 25  1  0  0  0  0
 26 27  1  0  0  0  0
 26 28  1  0  0  0  0
 29 30  2  0  0  0  0
 29 31  1  0  0  0  0
 31 32  1  0  0  0  0
 31 33  1  0  0  0  0
 33 34  1  0  0  0  0
 33 35  1  0  0  0  0
 33 36  1  0  0  0  0
M  CHG  1  20   1
M  END
$$$$

  -OEChem-02172215453D

 36 35  0     1  0  0  0  0  0999 V2000
   -4.0793   -1.9650    1.3166 H   0  0  0  0  0  0  0  0  0  0  0  0
   -4.0429   -0.9896    0.8230 C   0  0  0  0  0  0  0  0  0  0  0  0
   -4.8301   -0.3571    1.2407 H   0  0  0  0  0  0  0  0  0  0  0  0
   -4.2252   -1.1290   -0.2451 H   0  0  0  0  0  0  0  0  0  0  0  0
   -2.6885   -0.3429    1.0414 C   0  0  0  0  0  0  0  0  0  0  0  0
   -1.8656   -0.8882    1.7594 O   0  0  0  0  0  0  0  0  0  0  0  0
   -2.4161    0.8858    0.4706 N   0  0  0  0  0  0  0  0  0  0  0  0
   -3.1380    1.2553   -0.1451 H   0  0  0  0  0  0  0  0  0  0  0  0
   -1.0970    1.5563    0.4315 C   0  0  1  0  0  0  0  0  0  0  0  0
   -0.6531    1.5312    1.4325 H   0  0  0  0  0  0  0  0  0  0  0  0
   -0.0976    0.9148   -0.5775 C   0  0  0  0  0  0  0  0  0  0  0  0
   -0.5606    0.9105   -1.5701 H   0  0  0  0  0  0  0  0  0  0  0  0
    0.7982    1.5434   -0.6350 H   0  0  0  0  0  0  0  0  0  0  0  0
    0.3799   -0.5011   -0.2375 C   0  0  0  0  0  0  0  0  0  0  0  0
    0.8506   -0.5066    0.7519 H   0  0  0  0  0  0  0  0  0  0  0  0
   -0.4684   -1.1878   -0.2248 H   0  0  0  0  0  0  0  0  0  0  0  0
    1.3512   -0.9947   -1.3045 C   0  0  0  0  0  0  0  0  0  0  0  0
    0.8537   -0.9764   -2.2804 H   0  0  0  0  0  0  0  0  0  0  0  0
    2.2174   -0.3246   -1.3409 H   0  0  0  0  0  0  0  0  0  0  0  0
    1.7786   -2.3650   -0.9703 N   0  3  0  0  0  0  0  0  0  0  0  0
    1.4198   -2.7589   -0.1006 H   0  0  0  0  0  0  0  0  0  0  0  0
    2.5648   -3.0812   -1.7199 C   0  0  0  0  0  0  0  0  0  0  0  0
    3.0683   -2.6015   -2.9076 N   0  0  0  0  0  0  0  0  0  0  0  0
    2.7017   -1.7206   -3.2624 H   0  0  0  0  0  0  0  0  0  0  0  0
    3.4781   -3.2564   -3.5704 H   0  0  0  0  0  0  0  0  0  0  0  0
    2.9079   -4.3512   -1.3223 N   0  0  0  0  0  0  0  0  0  0  0  0
    2.6925   -4.6378   -0.3691 H   0  0  0  0  0  0  0  0  0  0  0  0
    3.6825   -4.8139   -1.7947 H   0  0  0  0  0  0  0  0  0  0  0  0
   -1.2970    3.0518    0.0585 C   0  0  0  0  0  0  0  0  0  0  0  0
   -0.4718    3.6687   -0.6023 O   0  0  0  0  0  0  0  0  0  0  0  0
   -2.4665    3.6989    0.4205 N   0  0  0  0  0  0  0  0  0  0  0  0
   -3.0639    3.2199    1.0889 H   0  0  0  0  0  0  0  0  0  0  0  0
   -2.7044    5.1169    0.1659 C   0  0  0  0  0  0  0  0  0  0  0  0
   -2.6507    5.3297   -0.9073 H   0  0  0  0  0  0  0  0  0  0  0  0
   -3.6977    5.4056    0.5230 H   0  0  0  0  0  0  0  0  0  0  0  0
   -1.9586    5.7304    0.6828 H   0  0  0  0  0  0  0  0  0  0  0  0
  1  2  1  0  0  0  0
  2  3  1  0  0  0  0
  2  4  1  0  0  0  0
  2  5  1  0  0  0  0
  5  6  2  0  0  0  0
  5  7  1  0  0  0  0
  7  8  1  0  0  0  0
  7  9  1  0  0  0  0
  9 10  1  0  0  0  0
  9 11  1  0  0  0  0
  9 29  1  0  0  0  0
 11 12  1  0  0  0  0
 11 13  1  0  0  0  0
 11 14  1  0  0  0  0
 14 15  1  0  0  0  0
 14 16  1  0  0  0  0
 14 17  1  0  0  0  0
 17 18  1  0  0  0  0
 17 19  1  0  0  0  0
 17 20  1  0  0  0  0
 20 21  1  0  0  0  0
 20 22  2  0  0  0  0
 22 23  1  0  0  0  0
 22 26  1  0  0  0  0
 23 24  1  0  0  0  0
 23 25  1  0  0  0  0
 26 27  1  0  0  0  0
 26 28  1  0  0  0  0
 29 30  2  0  0  0  0
 29 31  1  0  0  0  0
 31 32  1  0  0  0  0
 31 33  1  0  0  0  0
 33 34  1  0  0  0  0
 33 35  1  0  0  0  0
 33 36  1  0  0  0  0
M  CHG  1  20   1
M  END
$$$$

  -OEChem-02172215453D

 36 35  0     1  0  0  0  0  0999 V2000
   -4.1005   -1.9417    1.3010 H   0  0  0  0  0  0  0  0  0  0  0  0
   -4.0564   -0.9606    0.8198 C   0  0  0  0  0  0  0  0  0  0  0  0
   -4.8336   -0.3244    1.2507 H   0  0  0  0  0  0  0  0  0  0  0  0
   -4.2485   -1.0845   -0.2487 H   0  0  0  0  0  0  0  0  0  0  0  0
   -2.6926   -0.3329    1.0370 C   0  0  0  0  0  0  0  0  0  0  0  0
   -1.8741   -0.8913    1.7504 O   0  0  0  0  0  0  0  0  0  0  0  0
   -2.4067    0.8959    0.4743 N   0  0  0  0  0  0  0  0  0  0  0  0
   -3.1317    1.2874   -0.1244 H   0  0  0  0  0  0  0  0  0  0  0  0
   -1.0839    1.5562    0.4415 C   0  0  1  0  0  0  0  0  0  0  0  0
   -0.6415    1.5246    1.4431 H   0  0  0  0  0  0  0  0  0  0  0  0
   -0.0833    0.9171   -0.5665 C   0  0  0  0  0  0  0  0  0  0  0  0
   -0.5433    0.9174   -1.5608 H   0  0  0  0  0  0  0  0  0  0  0  0
    0.8114    1.5482   -0.6172 H   0  0  0  0  0  0  0  0  0  0  0  0
    0.3867   -0.5030   -0.2337 C   0  0  0  0  0  0  0  0  0  0  0  0
    0.8528   -0.5172    0.7577 H   0  0  0  0  0  0  0  0  0  0  0  0
   -0.4651   -1.1855   -0.2291 H   0  0  0  0  0  0  0  0  0  0  0  0
    1.3605   -0.9949   -1.2995 C   0  0  0  0  0  0  0  0  0  0  0  0
    0.8662   -0.9698   -2.2768 H   0  0  0  0  0  0  0  0  0  0  0  0
    2.2299   -0.3283   -1.3305 H   0  0  0  0  0  0  0  0  0  0  0  0
    1.7805   -2.3690   -0.9722 N   0  3  0  0  0  0  0  0  0  0  0  0
    1.4165   -2.7670   -0.1065 H   0  0  0  0  0  0  0  0  0  0  0  0
    2.5668   -3.0830   -1.7238 C   0  0  0  0  0  0  0  0  0  0  0  0
    3.0769   -2.5974   -2.9062 N   0  0  0  0  0  0  0  0  0  0  0  0
    2.7112   -1.7151   -3.2587 H   0  0  0  0  0  0  0  0  0  0  0  0
    3.4858   -3.2503   -3.5714 H   0  0  0  0  0  0  0  0  0  0  0  0
    2.9031   -4.3570   -1.3335 N   0  0  0  0  0  0  0  0  0  0  0  0
    2.6815   -4.6502   -0.3839 H   0  0  0  0  0  0  0  0  0  0  0  0
    3.6748   -4.8218   -1.8080 H   0  0  0  0  0  0  0  0  0  0  0  0
   -1.2892    3.0506    0.0753 C   0  0  0  0  0  0  0  0  0  0  0  0
   -0.6304    3.6063   -0.7943 O   0  0  0  0  0  0  0  0  0  0  0  0
   -2.2972    3.7648    0.6990 N   0  0  0  0  0  0  0  0  0  0  0  0
   -2.7768    3.3107    1.4722 H   0  0  0  0  0  0  0  0  0  0  0  0
   -2.5468    5.1819    0.4531 C   0  0  0  0  0  0  0  0  0  0  0  0
   -2.7886    5.3520   -0.6016 H   0  0  0  0  0  0  0  0  0  0  0  0
   -3.3887    5.5307    1.0591 H   0  0  0  0  0  0  0  0  0  0  0  0
   -1.6643    5.7767    0.7118 H   0  0  0  0  0  0  0  0  0  0  0  0
  1  2  1  0  0  0  0
  2  3  1  0  0  0  0
  2  4  1  0  0  0  0
  2  5  1  0  0  0  0
  5  6  2  0  0  0  0
  5  7  1  0  0  0  0
  7  8  1  0  0  0  0
  7  9  1  0  0  0  0
  9 10  1  0  0  0  0
  9 11  1  0  0  0  0
  9 29  1  0  0  0  0
 11 12  1  0  0  0  0
 11 13  1  0  0  0  0
 11 14  1  0  0  0  0
 14 15  1  0  0  0  0
 14 16  1  0  0  0  0
 14 17  1  0  0  0  0
 17 18  1  0  0  0  0
 17 19  1  0  0  0  0
 17 20  1  0  0  0  0
 20 21  1  0  0  0  0
 20 22  2  0  0  0  0
 22 23  1  0  0  0  0
 22 26  1  0  0  0  0
 23 24  1  0  0  0  0
 23 25  1  0  0  0  0
 26 27  1  0  0  0  0
 26 28  1  0  0  0  0
 29 30  2  0  0  0  0
 29 31  1  0  0  0  0
 31 32  1  0  0  0  0
 31 33  1  0  0  0  0
 33 34  1  0  0  0  0
 33 35  1  0  0  0  0
 33 36  1  0  0  0  0
M  CHG  1  20   1
M  END
$$$$

  -OEChem-02172215453D

 36 35  0     1  0  0  0  0  0999 V2000
   -4.1192   -1.9237    1.2980 H   0  0  0  0  0  0  0  0  0  0  0  0
   -4.0657   -0.9419    0.8190 C   0  0  0  0  0  0  0  0  0  0  0  0
   -4.8361   -0.2989    1.2517 H   0  0  0  0  0  0  0  0  0  0  0  0
   -4.2592   -1.0612   -0.2497 H   0  0  0  0  0  0  0  0  0  0  0  0
   -2.6957   -0.3281    1.0366 C   0  0  0  0  0  0  0  0  0  0  0  0
   -1.8802   -0.8986    1.7444 O   0  0  0  0  0  0  0  0  0  0  0  0
   -2.3987    0.9013    0.4814 N   0  0  0  0  0  0  0  0  0  0  0  0
   -3.1230    1.3098   -0.1070 H   0  0  0  0  0  0  0  0  0  0  0  0
   -1.0733    1.5533    0.4590 C   0  0  1  0  0  0  0  0  0  0  0  0
   -0.6333    1.5125    1.4612 H   0  0  0  0  0  0  0  0  0  0  0  0
   -0.0713    0.9188   -0.5491 C   0  0  0  0  0  0  0  0  0  0  0  0
   -0.5293    0.9245   -1.5446 H   0  0  0  0  0  0  0  0  0  0  0  0
    0.8213    1.5531   -0.5939 H   0  0  0  0  0  0  0  0  0  0  0  0
    0.3910   -0.5058   -0.2267 C   0  0  0  0  0  0  0  0  0  0  0  0
    0.8530   -0.5303    0.7661 H   0  0  0  0  0  0  0  0  0  0  0  0
   -0.4640   -1.1843   -0.2306 H   0  0  0  0  0  0  0  0  0  0  0  0
    1.3672   -0.9925   -1.2924 C   0  0  0  0  0  0  0  0  0  0  0  0
    0.8768   -0.9567   -2.2714 H   0  0  0  0  0  0  0  0  0  0  0  0
    2.2397   -0.3297   -1.3139 H   0  0  0  0  0  0  0  0  0  0  0  0
    1.7798   -2.3713   -0.9755 N   0  3  0  0  0  0  0  0  0  0  0  0
    1.4074   -2.7762   -0.1167 H   0  0  0  0  0  0  0  0  0  0  0  0
    2.5662   -3.0822   -1.7300 C   0  0  0  0  0  0  0  0  0  0  0  0
    3.0830   -2.5880   -2.9061 N   0  0  0  0  0  0  0  0  0  0  0  0
    2.7210   -1.7017   -3.2524 H   0  0  0  0  0  0  0  0  0  0  0  0
    3.4922   -3.2366   -3.5754 H   0  0  0  0  0  0  0  0  0  0  0  0
    2.8940   -4.3615   -1.3498 N   0  0  0  0  0  0  0  0  0  0  0  0
    2.6661   -4.6627   -0.4041 H   0  0  0  0  0  0  0  0  0  0  0  0
    3.6642   -4.8272   -1.8262 H   0  0  0  0  0  0  0  0  0  0  0  0
   -1.2726    3.0477    0.0984 C   0  0  0  0  0  0  0  0  0  0  0  0
   -0.8194    3.5347   -0.9297 O   0  0  0  0  0  0  0  0  0  0  0  0
   -2.0525    3.8392    0.9218 N   0  0  0  0  0  0  0  0  0  0  0  0
   -2.4062    3.4198    1.7780 H   0  0  0  0  0  0  0  0  0  0  0  0
   -2.3127    5.2531    0.6690 C   0  0  0  0  0  0  0  0  0  0  0  0
   -2.8324    5.3835   -0.2861 H   0  0  0  0  0  0  0  0  0  0  0  0
   -2.9400    5.6719    1.4622 H   0  0  0  0  0  0  0  0  0  0  0  0
   -1.3742    5.8169    0.6384 H   0  0  0  0  0  0  0  0  0  0  0  0
  1  2  1  0  0  0  0
  2  3  1  0  0  0  0
  2  4  1  0  0  0  0
  2  5  1  0  0  0  0
  5  6  2  0  0  0  0
  5  7  1  0  0  0  0
  7  8  1  0  0  0  0
  7  9  1  0  0  0  0
  9 10  1  0  0  0  0
  9 11  1  0  0  0  0
  9 29  1  0  0  0  0
 11 12  1  0  0  0  0
 11 13  1  0  0  0  0
 11 14  1  0  0  0  0
 14 15  1  0  0  0  0
 14 16  1  0  0  0  0
 14 17  1  0  0  0  0
 17 18  1  0  0  0  0
 17 19  1  0  0  0  0
 17 20  1  0  0  0  0
 20 21  1  0  0  0  0
 20 22  2  0  0  0  0
 22 23  1  0  0  0  0
 22 26  1  0  0  0  0
 23 24  1  0  0  0  0
 23 25  1  0  0  0  0
 26 27  1  0  0  0  0
 26 28  1  0  0  0  0
 29 30  2  0  0  0  0
 29 31  1  0  0  0  0
 31 32  1  0  0  0  0
 31 33  1  0  0  0  0
 33 34  1  0  0  0  0
 33 35  1  0  0  0  0
 33 36  1  0  0  0  0
M  CHG  1  20   1
M  END
$$$$

  -OEChem-02172215453D

 36 35  0     1  0  0  0  0  0999 V2000
   -4.1323   -1.9097    1.2929 H   0  0  0  0  0  0  0  0  0  0  0  0
   -4.0694   -0.9273    0.8164 C   0  0  0  0  0  0  0  0  0  0  0  0
   -4.8357   -0.2789    1.2487 H   0  0  0  0  0  0  0  0  0  0  0  0
   -4.2612   -1.0423   -0.2531 H   0  0  0  0  0  0  0  0  0  0  0  0
   -2.6954   -0.3244    1.0391 C   0  0  0  0  0  0  0  0  0  0  0  0
   -1.8845   -0.9039    1.7452 O   0  0  0  0  0  0  0  0  0  0  0  0
   -2.3886    0.9046    0.4889 N   0  0  0  0  0  0  0  0  0  0  0  0
   -3.1082    1.3225   -0.0991 H   0  0  0  0  0  0  0  0  0  0  0  0
   -1.0616    1.5501    0.4788 C   0  0  1  0  0  0  0  0  0  0  0  0
   -0.6250    1.4993    1.4820 H   0  0  0  0  0  0  0  0  0  0  0  0
   -0.0588    0.9225   -0.5314 C   0  0  0  0  0  0  0  0  0  0  0  0
   -0.5140    0.9340   -1.5281 H   0  0  0  0  0  0  0  0  0  0  0  0
    0.8330    1.5584   -0.5702 H   0  0  0  0  0  0  0  0  0  0  0  0
    0.3947   -0.5074   -0.2203 C   0  0  0  0  0  0  0  0  0  0  0  0
    0.8524   -0.5440    0.7743 H   0  0  0  0  0  0  0  0  0  0  0  0
   -0.4644   -1.1808   -0.2339 H   0  0  0  0  0  0  0  0  0  0  0  0
    1.3732   -0.9894   -1.2859 C   0  0  0  0  0  0  0  0  0  0  0  0
    0.8876   -0.9417   -2.2667 H   0  0  0  0  0  0  0  0  0  0  0  0
    2.2492   -0.3312   -1.2971 H   0  0  0  0  0  0  0  0  0  0  0  0
    1.7765   -2.3731   -0.9793 N   0  3  0  0  0  0  0  0  0  0  0  0
    1.3959   -2.7842   -0.1271 H   0  0  0  0  0  0  0  0  0  0  0  0
    2.5626   -3.0818   -1.7360 C   0  0  0  0  0  0  0  0  0  0  0  0
    3.0879   -2.5804   -2.9052 N   0  0  0  0  0  0  0  0  0  0  0  0
    2.7288   -1.6911   -3.2470 H   0  0  0  0  0  0  0  0  0  0  0  0
    3.4958   -3.2260   -3.5782 H   0  0  0  0  0  0  0  0  0  0  0  0
    2.8806   -4.3666   -1.3656 N   0  0  0  0  0  0  0  0  0  0  0  0
    2.6459   -4.6747   -0.4237 H   0  0  0  0  0  0  0  0  0  0  0  0
    3.6504   -4.8328   -1.8422 H   0  0  0  0  0  0  0  0  0  0  0  0
   -1.2506    3.0443    0.1200 C   0  0  0  0  0  0  0  0  0  0  0  0
   -1.0383    3.4635   -1.0109 O   0  0  0  0  0  0  0  0  0  0  0  0
   -1.7571    3.9112    1.0706 N   0  0  0  0  0  0  0  0  0  0  0  0
   -1.9642    3.5333    1.9917 H   0  0  0  0  0  0  0  0  0  0  0  0
   -2.0269    5.3218    0.8103 C   0  0  0  0  0  0  0  0  0  0  0  0
   -2.7851    5.4296    0.0274 H   0  0  0  0  0  0  0  0  0  0  0  0
   -2.3950    5.8120    1.7169 H   0  0  0  0  0  0  0  0  0  0  0  0
   -1.1140    5.8345    0.4884 H   0  0  0  0  0  0  0  0  0  0  0  0
  1  2  1  0  0  0  0
  2  3  1  0  0  0  0
  2  4  1  0  0  0  0
  2  5  1  0  0  0  0
  5  6  2  0  0  0  0
  5  7  1  0  0  0  0
  7  8  1  0  0  0  0
  7  9  1  0  0  0  0
  9 10  1  0  0  0  0
  9 11  1  0  0  0  0
  9 29  1  0  0  0  0
 11 12  1  0  0  0  0
 11 13  1  0  0  0  0
 11 14  1  0  0  0  0
 14 15  1  0  0  0  0
 14 16  1  0  0  0  0
 14 17  1  0  0  0  0
 17 18  1  0  0  0  0
 17 19  1  0  0  0  0
 17 20  1  0  0  0  0
 20 21  1  0  0  0  0
 20 22  2  0  0  0  0
 22 23  1  0  0  0  0
 22 26  1  0  0  0  0
 23 24  1  0  0  0  0
 23 25  1  0  0  0  0
 26 27  1  0  0  0  0
 26 28  1  0  0  0  0
 29 30  2  0  0  0  0
 29 31  1  0  0  0  0
 31 32  1  0  0  0  0
 31 33  1  0  0  0  0
 33 34  1  0  0  0  0
 33 35  1  0  0  0  0
 33 36  1  0  0  0  0
M  CHG  1  20   1
M  END
$$$$

  -OEChem-02172215453D

 36 35  0     1  0  0  0  0  0999 V2000
   -4.1428   -1.8938    1.2870 H   0  0  0  0  0  0  0  0  0  0  0  0
   -4.0716   -0.9100    0.8145 C   0  0  0  0  0  0  0  0  0  0  0  0
   -4.8324   -0.2567    1.2489 H   0  0  0  0  0  0  0  0  0  0  0  0
   -4.2634   -1.0189   -0.2556 H   0  0  0  0  0  0  0  0  0  0  0  0
   -2.6931   -0.3193    1.0409 C   0  0  0  0  0  0  0  0  0  0  0  0
   -1.8860   -0.9088    1.7435 O   0  0  0  0  0  0  0  0  0  0  0  0
   -2.3749    0.9077    0.4935 N   0  0  0  0  0  0  0  0  0  0  0  0
   -3.0873    1.3349   -0.0970 H   0  0  0  0  0  0  0  0  0  0  0  0
   -1.0463    1.5469    0.4963 C   0  0  1  0  0  0  0  0  0  0  0  0
   -0.6155    1.4876    1.5015 H   0  0  0  0  0  0  0  0  0  0  0  0
   -0.0428    0.9288   -0.5170 C   0  0  0  0  0  0  0  0  0  0  0  0
   -0.4943    0.9506   -1.5151 H   0  0  0  0  0  0  0  0  0  0  0  0
    0.8499    1.5635   -0.5470 H   0  0  0  0  0  0  0  0  0  0  0  0
    0.4005   -0.5068   -0.2173 C   0  0  0  0  0  0  0  0  0  0  0  0
    0.8528   -0.5559    0.7795 H   0  0  0  0  0  0  0  0  0  0  0  0
   -0.4640   -1.1734   -0.2414 H   0  0  0  0  0  0  0  0  0  0  0  0
    1.3817   -0.9866   -1.2813 C   0  0  0  0  0  0  0  0  0  0  0  0
    0.9018   -0.9277   -2.2645 H   0  0  0  0  0  0  0  0  0  0  0  0
    2.2628   -0.3349   -1.2825 H   0  0  0  0  0  0  0  0  0  0  0  0
    1.7731   -2.3759   -0.9833 N   0  3  0  0  0  0  0  0  0  0  0  0
    1.3826   -2.7922   -0.1380 H   0  0  0  0  0  0  0  0  0  0  0  0
    2.5583   -3.0847   -1.7408 C   0  0  0  0  0  0  0  0  0  0  0  0
    3.0946   -2.5786   -2.9030 N   0  0  0  0  0  0  0  0  0  0  0  0
    2.7392   -1.6869   -3.2423 H   0  0  0  0  0  0  0  0  0  0  0  0
    3.4966   -3.2245   -3.5795 H   0  0  0  0  0  0  0  0  0  0  0  0
    2.8647   -4.3744   -1.3780 N   0  0  0  0  0  0  0  0  0  0  0  0
    2.6214   -4.6882   -0.4402 H   0  0  0  0  0  0  0  0  0  0  0  0
    3.6345   -4.8426   -1.8527 H   0  0  0  0  0  0  0  0  0  0  0  0
   -1.2262    3.0395    0.1348 C   0  0  0  0  0  0  0  0  0  0  0  0
   -1.2854    3.3967   -1.0349 O   0  0  0  0  0  0  0  0  0  0  0  0
   -1.4357    3.9713    1.1347 N   0  0  0  0  0  0  0  0  0  0  0  0
   -1.4652    3.6374    2.0947 H   0  0  0  0  0  0  0  0  0  0  0  0
   -1.7160    5.3795    0.8721 C   0  0  0  0  0  0  0  0  0  0  0  0
   -2.6524    5.4871    0.3145 H   0  0  0  0  0  0  0  0  0  0  0  0
   -1.8092    5.9303    1.8133 H   0  0  0  0  0  0  0  0  0  0  0  0
   -0.9062    5.8307    0.2886 H   0  0  0  0  0  0  0  0  0  0  0  0
  1  2  1  0  0  0  0
  2  3  1  0  0  0  0
  2  4  1  0  0  0  0
  2  5  1  0  0  0  0
  5  6  2  0  0  0  0
  5  7  1  0  0  0  0
  7  8  1  0  0  0  0
  7  9  1  0  0  0  0
  9 10  1  0  0  0  0
  9 11  1  0  0  0  0
  9 29  1  0  0  0  0
 11 12  1  0  0  0  0
 11 13  1  0  0  0  0
 11 14  1  0  0  0  0
 14 15  1  0  0  0  0
 14 16  1  0  0  0  0
 14 17  1  0  0  0  0
 17 18  1  0  0  0  0
 17 19  1  0  0  0  0
 17 20  1  0  0  0  0
 20 21  1  0  0  0  0
 20 22  2  0  0  0  0
 22 23  1  0  0  0  0
 22 26  1  0  0  0  0
 23 24  1  0  0  0  0
 23 25  1  0  0  0  0
 26 27  1  0  0  0  0
 26 28  1  0  0  0  0
 29 30  2  0  0  0  0
 29 31  1  0  0  0  0
 31 32  1  0  0  0  0
 31 33  1  0  0  0  0
 33 34  1  0  0  0  0
 33 35  1  0  0  0  0
 33 36  1  0  0  0  0
M  CHG  1  20   1
M  END
$$$$

  -OEChem-02172215453D

 36 35  0     1  0  0  0  0  0999 V2000
   -4.1557   -1.8775    1.2884 H   0  0  0  0  0  0  0  0  0  0  0  0
   -4.0747   -0.8932    0.8183 C   0  0  0  0  0  0  0  0  0  0  0  0
   -4.8271   -0.2324    1.2563 H   0  0  0  0  0  0  0  0  0  0  0  0
   -4.2708   -0.9966   -0.2517 H   0  0  0  0  0  0  0  0  0  0  0  0
   -2.6891   -0.3179    1.0414 C   0  0  0  0  0  0  0  0  0  0  0  0
   -1.8835   -0.9195    1.7361 O   0  0  0  0  0  0  0  0  0  0  0  0
   -2.3605    0.9061    0.4941 N   0  0  0  0  0  0  0  0  0  0  0  0
   -3.0711    1.3468   -0.0896 H   0  0  0  0  0  0  0  0  0  0  0  0
   -1.0319    1.5431    0.5072 C   0  0  1  0  0  0  0  0  0  0  0  0
   -0.6062    1.4796    1.5142 H   0  0  0  0  0  0  0  0  0  0  0  0
   -0.0281    0.9364   -0.5100 C   0  0  0  0  0  0  0  0  0  0  0  0
   -0.4761    0.9707   -1.5096 H   0  0  0  0  0  0  0  0  0  0  0  0
    0.8665    1.5685   -0.5304 H   0  0  0  0  0  0  0  0  0  0  0  0
    0.4078   -0.5036   -0.2198 C   0  0  0  0  0  0  0  0  0  0  0  0
    0.8547   -0.5627    0.7789 H   0  0  0  0  0  0  0  0  0  0  0  0
   -0.4603   -1.1651   -0.2527 H   0  0  0  0  0  0  0  0  0  0  0  0
    1.3914   -0.9829   -1.2818 C   0  0  0  0  0  0  0  0  0  0  0  0
    0.9176   -0.9155   -2.2673 H   0  0  0  0  0  0  0  0  0  0  0  0
    2.2769   -0.3373   -1.2740 H   0  0  0  0  0  0  0  0  0  0  0  0
    1.7709   -2.3761   -0.9874 N   0  3  0  0  0  0  0  0  0  0  0  0
    1.3703   -2.7931   -0.1472 H   0  0  0  0  0  0  0  0  0  0  0  0
    2.5552   -3.0884   -1.7428 C   0  0  0  0  0  0  0  0  0  0  0  0
    3.1022   -2.5819   -2.8998 N   0  0  0  0  0  0  0  0  0  0  0  0
    2.7561   -1.6860   -3.2373 H   0  0  0  0  0  0  0  0  0  0  0  0
    3.5029   -3.2279   -3.5767 H   0  0  0  0  0  0  0  0  0  0  0  0
    2.8472   -4.3827   -1.3843 N   0  0  0  0  0  0  0  0  0  0  0  0
    2.5908   -4.7007   -0.4515 H   0  0  0  0  0  0  0  0  0  0  0  0
    3.6171   -4.8552   -1.8544 H   0  0  0  0  0  0  0  0  0  0  0  0
   -1.2082    3.0325    0.1389 C   0  0  0  0  0  0  0  0  0  0  0  0
   -1.5292    3.3450   -1.0008 O   0  0  0  0  0  0  0  0  0  0  0  0
   -1.1182    4.0120    1.1106 N   0  0  0  0  0  0  0  0  0  0  0  0
   -0.9496    3.7159    2.0684 H   0  0  0  0  0  0  0  0  0  0  0  0
   -1.3945    5.4216    0.8510 C   0  0  0  0  0  0  0  0  0  0  0  0
   -2.4364    5.5578    0.5421 H   0  0  0  0  0  0  0  0  0  0  0  0
   -1.2215    6.0153    1.7540 H   0  0  0  0  0  0  0  0  0  0  0  0
   -0.7406    5.8024    0.0591 H   0  0  0  0  0  0  0  0  0  0  0  0
  1  2  1  0  0  0  0
  2  3  1  0  0  0  0
  2  4  1  0  0  0  0
  2  5  1  0  0  0  0
  5  6  2  0  0  0  0
  5  7  1  0  0  0  0
  7  8  1  0  0  0  0
  7  9  1  0  0  0  0
  9 10  1  0  0  0  0
  9 11  1  0  0  0  0
  9 29  1  0  0  0  0
 11 12  1  0  0  0  0
 11 13  1  0  0  0  0
 11 14  1  0  0  0  0
 14 15  1  0  0  0  0
 14 16  1  0  0  0  0
 14 17  1  0  0  0  0
 17 18  1  0  0  0  0
 17 19  1  0  0  0  0
 17 20  1  0  0  0  0
 20 21  1  0  0  0  0
 20 22  2  0  0  0  0
 22 23  1  0  0  0  0
 22 26  1  0  0  0  0
 23 24  1  0  0  0  0
 23 25  1  0  0  0  0
 26 27  1  0  0  0  0
 26 28  1  0  0  0  0
 29 30  2  0  0  0  0
 29 31  1  0  0  0  0
 31 32  1  0  0  0  0
 31 33  1  0  0  0  0
 33 34  1  0  0  0  0
 33 35  1  0  0  0  0
 33 36  1  0  0  0  0
M  CHG  1  20   1
M  END
$$$$

  -OEChem-02172215453D

 36 35  0     1  0  0  0  0  0999 V2000
   -4.1694   -1.8619    1.2951 H   0  0  0  0  0  0  0  0  0  0  0  0
   -4.0814   -0.8784    0.8253 C   0  0  0  0  0  0  0  0  0  0  0  0
   -4.8240   -0.2101    1.2685 H   0  0  0  0  0  0  0  0  0  0  0  0
   -4.2857   -0.9785   -0.2433 H   0  0  0  0  0  0  0  0  0  0  0  0
   -2.6885   -0.3182    1.0394 C   0  0  0  0  0  0  0  0  0  0  0  0
   -1.8833   -0.9297    1.7259 O   0  0  0  0  0  0  0  0  0  0  0  0
   -2.3515    0.9021    0.4901 N   0  0  0  0  0  0  0  0  0  0  0  0
   -3.0642    1.3601   -0.0788 H   0  0  0  0  0  0  0  0  0  0  0  0
   -1.0240    1.5399    0.5111 C   0  0  1  0  0  0  0  0  0  0  0  0
   -0.6042    1.4776    1.5205 H   0  0  0  0  0  0  0  0  0  0  0  0
   -0.0195    0.9413   -0.5079 C   0  0  0  0  0  0  0  0  0  0  0  0
   -0.4660    0.9846   -1.5078 H   0  0  0  0  0  0  0  0  0  0  0  0
    0.8764    1.5721   -0.5217 H   0  0  0  0  0  0  0  0  0  0  0  0
    0.4131   -0.5011   -0.2236 C   0  0  0  0  0  0  0  0  0  0  0  0
    0.8559   -0.5661    0.7764 H   0  0  0  0  0  0  0  0  0  0  0  0
   -0.4565   -1.1605   -0.2616 H   0  0  0  0  0  0  0  0  0  0  0  0
    1.3989   -0.9798   -1.2841 C   0  0  0  0  0  0  0  0  0  0  0  0
    0.9288   -0.9085   -2.2712 H   0  0  0  0  0  0  0  0  0  0  0  0
    2.2864   -0.3372   -1.2717 H   0  0  0  0  0  0  0  0  0  0  0  0
    1.7718   -2.3750   -0.9909 N   0  3  0  0  0  0  0  0  0  0  0  0
    1.3663   -2.7919   -0.1529 H   0  0  0  0  0  0  0  0  0  0  0  0
    2.5559   -3.0899   -1.7436 C   0  0  0  0  0  0  0  0  0  0  0  0
    3.1106   -2.5863   -2.8980 N   0  0  0  0  0  0  0  0  0  0  0  0
    2.7672   -1.6905   -3.2385 H   0  0  0  0  0  0  0  0  0  0  0  0
    3.5040   -3.2373   -3.5747 H   0  0  0  0  0  0  0  0  0  0  0  0
    2.8411   -4.3854   -1.3843 N   0  0  0  0  0  0  0  0  0  0  0  0
    2.5754   -4.7045   -0.4544 H   0  0  0  0  0  0  0  0  0  0  0  0
    3.6121   -4.8605   -1.8499 H   0  0  0  0  0  0  0  0  0  0  0  0
   -1.1992    3.0261    0.1331 C   0  0  0  0  0  0  0  0  0  0  0  0
   -1.7454    3.3177   -0.9238 O   0  0  0  0  0  0  0  0  0  0  0  0
   -0.8233    4.0297    1.0068 N   0  0  0  0  0  0  0  0  0  0  0  0
   -0.4697    3.7565    1.9197 H   0  0  0  0  0  0  0  0  0  0  0  0
   -1.0742    5.4442    0.7485 C   0  0  0  0  0  0  0  0  0  0  0  0
   -2.1505    5.6380    0.6891 H   0  0  0  0  0  0  0  0  0  0  0  0
   -0.6563    6.0578    1.5525 H   0  0  0  0  0  0  0  0  0  0  0  0
   -0.6092    5.7514   -0.1945 H   0  0  0  0  0  0  0  0  0  0  0  0
  1  2  1  0  0  0  0
  2  3  1  0  0  0  0
  2  4  1  0  0  0  0
  2  5  1  0  0  0  0
  5  6  2  0  0  0  0
  5  7  1  0  0  0  0
  7  8  1  0  0  0  0
  7  9  1  0  0  0  0
  9 10  1  0  0  0  0
  9 11  1  0  0  0  0
  9 29  1  0  0  0  0
 11 12  1  0  0  0  0
 11 13  1  0  0  0  0
 11 14  1  0  0  0  0
 14 15  1  0  0  0  0
 14 16  1  0  0  0  0
 14 17  1  0  0  0  0
 17 18  1  0  0  0  0
 17 19  1  0  0  0  0
 17 20  1  0  0  0  0
 20 21  1  0  0  0  0
 20 22  2  0  0  0  0
 22 23  1  0  0  0  0
 22 26  1  0  0  0  0
 23 24  1  0  0  0  0
 23 25  1  0  0  0  0
 26 27  1  0  0  0  0
 26 28  1  0  0  0  0
 29 30  2  0  0  0  0
 29 31  1  0  0  0  0
 31 32  1  0  0  0  0
 31 33  1  0  0  0  0
 33 34  1  0  0  0  0
 33 35  1  0  0  0  0
 33 36  1  0  0  0  0
M  CHG  1  20   1
M  END
$$$$

  -OEChem-02172215453D

 36 35  0     1  0  0  0  0  0999 V2000
   -4.1919   -1.8445    1.3150 H   0  0  0  0  0  0  0  0  0  0  0  0
   -4.0968   -0.8642    0.8399 C   0  0  0  0  0  0  0  0  0  0  0  0
   -4.8245   -0.1838    1.2893 H   0  0  0  0  0  0  0  0  0  0  0  0
   -4.3153   -0.9657   -0.2259 H   0  0  0  0  0  0  0  0  0  0  0  0
   -2.6942   -0.3212    1.0341 C   0  0  0  0  0  0  0  0  0  0  0  0
   -1.8871   -0.9413    1.7110 O   0  0  0  0  0  0  0  0  0  0  0  0
   -2.3512    0.8953    0.4806 N   0  0  0  0  0  0  0  0  0  0  0  0
   -3.0711    1.3740   -0.0629 H   0  0  0  0  0  0  0  0  0  0  0  0
   -1.0258    1.5374    0.5076 C   0  0  1  0  0  0  0  0  0  0  0  0
   -0.6122    1.4794    1.5198 H   0  0  0  0  0  0  0  0  0  0  0  0
   -0.0191    0.9422   -0.5102 C   0  0  0  0  0  0  0  0  0  0  0  0
   -0.4653    0.9881   -1.5103 H   0  0  0  0  0  0  0  0  0  0  0  0
    0.8767    1.5731   -0.5216 H   0  0  0  0  0  0  0  0  0  0  0  0
    0.4146   -0.5002   -0.2270 C   0  0  0  0  0  0  0  0  0  0  0  0
    0.8547   -0.5661    0.7743 H   0  0  0  0  0  0  0  0  0  0  0  0
   -0.4548   -1.1597   -0.2681 H   0  0  0  0  0  0  0  0  0  0  0  0
    1.4031   -0.9793   -1.2847 C   0  0  0  0  0  0  0  0  0  0  0  0
    0.9355   -0.9081   -2.2730 H   0  0  0  0  0  0  0  0  0  0  0  0
    2.2905   -0.3369   -1.2699 H   0  0  0  0  0  0  0  0  0  0  0  0
    1.7761   -2.3749   -0.9910 N   0  3  0  0  0  0  0  0  0  0  0  0
    1.3680   -2.7930   -0.1547 H   0  0  0  0  0  0  0  0  0  0  0  0
    2.5625   -3.0886   -1.7426 C   0  0  0  0  0  0  0  0  0  0  0  0
    3.1187   -2.5824   -2.8952 N   0  0  0  0  0  0  0  0  0  0  0  0
    2.7722   -1.6882   -3.2365 H   0  0  0  0  0  0  0  0  0  0  0  0
    3.5152   -3.2318   -3.5714 H   0  0  0  0  0  0  0  0  0  0  0  0
    2.8490   -4.3843   -1.3847 N   0  0  0  0  0  0  0  0  0  0  0  0
    2.5825   -4.7054   -0.4557 H   0  0  0  0  0  0  0  0  0  0  0  0
    3.6213   -4.8577   -1.8498 H   0  0  0  0  0  0  0  0  0  0  0  0
   -1.1980    3.0213    0.1179 C   0  0  0  0  0  0  0  0  0  0  0  0
   -1.9322    3.3162   -0.8176 O   0  0  0  0  0  0  0  0  0  0  0  0
   -0.5632    4.0215    0.8314 N   0  0  0  0  0  0  0  0  0  0  0  0
   -0.0407    3.7534    1.6607 H   0  0  0  0  0  0  0  0  0  0  0  0
   -0.7732    5.4414    0.5663 C   0  0  0  0  0  0  0  0  0  0  0  0
   -1.8188    5.7143    0.7447 H   0  0  0  0  0  0  0  0  0  0  0  0
   -0.1408    6.0478    1.2220 H   0  0  0  0  0  0  0  0  0  0  0  0
   -0.5203    5.6810   -0.4722 H   0  0  0  0  0  0  0  0  0  0  0  0
  1  2  1  0  0  0  0
  2  3  1  0  0  0  0
  2  4  1  0  0  0  0
  2  5  1  0  0  0  0
  5  6  2  0  0  0  0
  5  7  1  0  0  0  0
  7  8  1  0  0  0  0
  7  9  1  0  0  0  0
  9 10  1  0  0  0  0
  9 11  1  0  0  0  0
  9 29  1  0  0  0  0
 11 12  1  0  0  0  0
 11 13  1  0  0  0  0
 11 14  1  0  0  0  0
 14 15  1  0  0  0  0
 14 16  1  0  0  0  0
 14 17  1  0  0  0  0
 17 18  1  0  0  0  0
 17 19  1  0  0  0  0
 17 20  1  0  0  0  0
 20 21  1  0  0  0  0
 20 22  2  0  0  0  0
 22 23  1  0  0  0  0
 22 26  1  0  0  0  0
 23 24  1  0  0  0  0
 23 25  1  0  0  0  0
 26 27  1  0  0  0  0
 26 28  1  0  0  0  0
 29 30  2  0  0  0  0
 29 31  1  0  0  0  0
 31 32  1  0  0  0  0
 31 33  1  0  0  0  0
 33 34  1  0  0  0  0
 33 35  1  0  0  0  0
 33 36  1  0  0  0  0
M  CHG  1  20   1
M  END
$$$$

  -OEChem-02172215453D

 36 35  0     1  0  0  0  0  0999 V2000
   -4.2022   -1.8360    1.3259 H   0  0  0  0  0  0  0  0  0  0  0  0
   -4.1057   -0.8549    0.8529 C   0  0  0  0  0  0  0  0  0  0  0  0
   -4.8173   -0.1688    1.3191 H   0  0  0  0  0  0  0  0  0  0  0  0
   -4.3453   -0.9498   -0.2088 H   0  0  0  0  0  0  0  0  0  0  0  0
   -2.6940   -0.3273    1.0229 C   0  0  0  0  0  0  0  0  0  0  0  0
   -1.8835   -0.9562    1.6875 O   0  0  0  0  0  0  0  0  0  0  0  0
   -2.3493    0.8882    0.4681 N   0  0  0  0  0  0  0  0  0  0  0  0
   -3.0819    1.3905   -0.0368 H   0  0  0  0  0  0  0  0  0  0  0  0
   -1.0274    1.5390    0.5006 C   0  0  1  0  0  0  0  0  0  0  0  0
   -0.6163    1.4864    1.5143 H   0  0  0  0  0  0  0  0  0  0  0  0
   -0.0194    0.9454   -0.5186 C   0  0  0  0  0  0  0  0  0  0  0  0
   -0.4676    0.9901   -1.5177 H   0  0  0  0  0  0  0  0  0  0  0  0
    0.8765    1.5761   -0.5326 H   0  0  0  0  0  0  0  0  0  0  0  0
    0.4179   -0.4964   -0.2359 C   0  0  0  0  0  0  0  0  0  0  0  0
    0.8558   -0.5622    0.7663 H   0  0  0  0  0  0  0  0  0  0  0  0
   -0.4500   -1.1575   -0.2794 H   0  0  0  0  0  0  0  0  0  0  0  0
    1.4073   -0.9772   -1.2923 C   0  0  0  0  0  0  0  0  0  0  0  0
    0.9409   -0.9093   -2.2813 H   0  0  0  0  0  0  0  0  0  0  0  0
    2.2949   -0.3348   -1.2787 H   0  0  0  0  0  0  0  0  0  0  0  0
    1.7794   -2.3719   -0.9934 N   0  3  0  0  0  0  0  0  0  0  0  0
    1.3695   -2.7866   -0.1562 H   0  0  0  0  0  0  0  0  0  0  0  0
    2.5660   -3.0899   -1.7408 C   0  0  0  0  0  0  0  0  0  0  0  0
    3.1248   -2.5903   -2.8952 N   0  0  0  0  0  0  0  0  0  0  0  0
    2.7775   -1.6995   -3.2446 H   0  0  0  0  0  0  0  0  0  0  0  0
    3.5329   -3.2415   -3.5628 H   0  0  0  0  0  0  0  0  0  0  0  0
    2.8519   -4.3835   -1.3744 N   0  0  0  0  0  0  0  0  0  0  0  0
    2.5879   -4.6968   -0.4420 H   0  0  0  0  0  0  0  0  0  0  0  0
    3.6218   -4.8617   -1.8387 H   0  0  0  0  0  0  0  0  0  0  0  0
   -1.2011    3.0227    0.1035 C   0  0  0  0  0  0  0  0  0  0  0  0
   -2.0923    3.3402   -0.6759 O   0  0  0  0  0  0  0  0  0  0  0  0
   -0.3544    3.9961    0.6032 N   0  0  0  0  0  0  0  0  0  0  0  0
    0.3143    3.7207    1.3170 H   0  0  0  0  0  0  0  0  0  0  0  0
   -0.5307    5.4184    0.3241 C   0  0  0  0  0  0  0  0  0  0  0  0
   -1.4876    5.7719    0.7232 H   0  0  0  0  0  0  0  0  0  0  0  0
    0.2727    5.9995    0.7876 H   0  0  0  0  0  0  0  0  0  0  0  0
   -0.5101    5.6046   -0.7552 H   0  0  0  0  0  0  0  0  0  0  0  0
  1  2  1  0  0  0  0
  2  3  1  0  0  0  0
  2  4  1  0  0  0  0
  2  5  1  0  0  0  0
  5  6  2  0  0  0  0
  5  7  1  0  0  0  0
  7  8  1  0  0  0  0
  7  9  1  0  0  0  0
  9 10  1  0  0  0  0
  9 11  1  0  0  0  0
  9 29  1  0  0  0  0
 11 12  1  0  0  0  0
 11 13  1  0  0  0  0
 11 14  1  0  0  0  0
 14 15  1  0  0  0  0
 14 16  1  0  0  0  0
 14 17  1  0  0  0  0
 17 18  1  0  0  0  0
 17 19  1  0  0  0  0
 17 20  1  0  0  0  0
 20 21  1  0  0  0  0
 20 22  2  0  0  0  0
 22 23  1  0  0  0  0
 22 26  1  0  0  0  0
 23 24  1  0  0  0  0
 23 25  1  0  0  0  0
 26 27  1  0  0  0  0
 26 28  1  0  0  0  0
 29 30  2  0  0  0  0
 29 31  1  0  0  0  0
 31 32  1  0  0  0  0
 31 33  1  0  0  0  0
 33 34  1  0  0  0  0
 33 35  1  0  0  0  0
 33 36  1  0  0  0  0
M  CHG  1  20   1
M  END
$$$$

  -OEChem-02172215453D

 36 35  0     1  0  0  0  0  0999 V2000
   -4.2140   -1.8251    1.3438 H   0  0  0  0  0  0  0  0  0  0  0  0
   -4.1143   -0.8461    0.8668 C   0  0  0  0  0  0  0  0  0  0  0  0
   -4.8085   -0.1502    1.3446 H   0  0  0  0  0  0  0  0  0  0  0  0
   -4.3748   -0.9400   -0.1901 H   0  0  0  0  0  0  0  0  0  0  0  0
   -2.6935   -0.3351    1.0082 C   0  0  0  0  0  0  0  0  0  0  0  0
   -1.8788   -0.9738    1.6582 O   0  0  0  0  0  0  0  0  0  0  0  0
   -2.3493    0.8814    0.4549 N   0  0  0  0  0  0  0  0  0  0  0  0
   -3.0961    1.4102   -0.0003 H   0  0  0  0  0  0  0  0  0  0  0  0
   -1.0313    1.5403    0.4910 C   0  0  1  0  0  0  0  0  0  0  0  0
   -0.6224    1.4925    1.5059 H   0  0  0  0  0  0  0  0  0  0  0  0
   -0.0208    0.9467   -0.5285 C   0  0  0  0  0  0  0  0  0  0  0  0
   -0.4702    0.9900   -1.5271 H   0  0  0  0  0  0  0  0  0  0  0  0
    0.8750    1.5767   -0.5449 H   0  0  0  0  0  0  0  0  0  0  0  0
    0.4219   -0.4935   -0.2459 C   0  0  0  0  0  0  0  0  0  0  0  0
    0.8589   -0.5581    0.7567 H   0  0  0  0  0  0  0  0  0  0  0  0
   -0.4442   -1.1565   -0.2919 H   0  0  0  0  0  0  0  0  0  0  0  0
    1.4125   -0.9752   -1.3007 C   0  0  0  0  0  0  0  0  0  0  0  0
    0.9454   -0.9114   -2.2896 H   0  0  0  0  0  0  0  0  0  0  0  0
    2.2995   -0.3317   -1.2886 H   0  0  0  0  0  0  0  0  0  0  0  0
    1.7852   -2.3684   -0.9956 N   0  3  0  0  0  0  0  0  0  0  0  0
    1.3714   -2.7808   -0.1593 H   0  0  0  0  0  0  0  0  0  0  0  0
    2.5730   -3.0901   -1.7381 C   0  0  0  0  0  0  0  0  0  0  0  0
    3.1337   -2.5964   -2.8940 N   0  0  0  0  0  0  0  0  0  0  0  0
    2.7867   -1.7075   -3.2481 H   0  0  0  0  0  0  0  0  0  0  0  0
    3.5402   -3.2519   -3.5585 H   0  0  0  0  0  0  0  0  0  0  0  0
    2.8578   -4.3819   -1.3647 N   0  0  0  0  0  0  0  0  0  0  0  0
    2.5907   -4.6917   -0.4319 H   0  0  0  0  0  0  0  0  0  0  0  0
    3.6291   -4.8624   -1.8243 H   0  0  0  0  0  0  0  0  0  0  0  0
   -1.2100    3.0256    0.0916 C   0  0  0  0  0  0  0  0  0  0  0  0
   -2.2298    3.3840   -0.4870 O   0  0  0  0  0  0  0  0  0  0  0  0
   -0.2111    3.9524    0.3336 N   0  0  0  0  0  0  0  0  0  0  0  0
    0.5841    3.6547    0.8913 H   0  0  0  0  0  0  0  0  0  0  0  0
   -0.3575    5.3729    0.0297 C   0  0  0  0  0  0  0  0  0  0  0  0
   -1.1764    5.8073    0.6132 H   0  0  0  0  0  0  0  0  0  0  0  0
    0.5639    5.9110    0.2728 H   0  0  0  0  0  0  0  0  0  0  0  0
   -0.5695    5.5197   -1.0348 H   0  0  0  0  0  0  0  0  0  0  0  0
  1  2  1  0  0  0  0
  2  3  1  0  0  0  0
  2  4  1  0  0  0  0
  2  5  1  0  0  0  0
  5  6  2  0  0  0  0
  5  7  1  0  0  0  0
  7  8  1  0  0  0  0
  7  9  1  0  0  0  0
  9 10  1  0  0  0  0
  9 11  1  0  0  0  0
  9 29  1  0  0  0  0
 11 12  1  0  0  0  0
 11 13  1  0  0  0  0
 11 14  1  0  0  0  0
 14 15  1  0  0  0  0
 14 16  1  0  0  0  0
 14 17  1  0  0  0  0
 17 18  1  0  0  0  0
 17 19  1  0  0  0  0
 17 20  1  0  0  0  0
 20 21  1  0  0  0  0
 20 22  2  0  0  0  0
 22 23  1  0  0  0  0
 22 26  1  0  0  0  0
 23 24  1  0  0  0  0
 23 25  1  0  0  0  0
 26 27  1  0  0  0  0
 26 28  1  0  0  0  0
 29 30  2  0  0  0  0
 29 31  1  0  0  0  0
 31 32  1  0  0  0  0
 31 33  1  0  0  0  0
 33 34  1  0  0  0  0
 33 35  1  0  0  0  0
 33 36  1  0  0  0  0
M  CHG  1  20   1
M  END
$$$$

  -OEChem-02172215453D

 36 35  0     1  0  0  0  0  0999 V2000
   -4.0474   -1.8649    1.3898 H   0  0  0  0  0  0  0  0  0  0  0  0
   -4.0108   -0.8793    0.9176 C   0  0  0  0  0  0  0  0  0  0  0  0
   -4.6139   -0.1851    1.5081 H   0  0  0  0  0  0  0  0  0  0  0  0
   -4.4334   -0.9526   -0.0871 H   0  0  0  0  0  0  0  0  0  0  0  0
   -2.5788   -0.3855    0.8440 C   0  0  0  0  0  0  0  0  0  0  0  0
   -1.6671   -1.0917    1.2510 O   0  0  0  0  0  0  0  0  0  0  0  0
   -2.3147    0.8673    0.3274 N   0  0  0  0  0  0  0  0  0  0  0  0
   -3.1249    1.4661    0.1552 H   0  0  0  0  0  0  0  0  0  0  0  0
   -1.0158    1.5612    0.3859 C   0  0  1  0  0  0  0  0  0  0  0  0
   -0.4780    1.2782    1.2975 H   0  0  0  0  0  0  0  0  0  0  0  0
   -0.1574    1.2365   -0.8638 C   0  0  0  0  0  0  0  0  0  0  0  0
   -0.7336    1.4835   -1.7625 H   0  0  0  0  0  0  0  0  0  0  0  0
    0.7371    1.8679   -0.8622 H   0  0  0  0  0  0  0  0  0  0  0  0
    0.2934   -0.2276   -0.9341 C   0  0  0  0  0  0  0  0  0  0  0  0
    0.8585   -0.4821   -0.0303 H   0  0  0  0  0  0  0  0  0  0  0  0
   -0.5850   -0.8760   -0.9844 H   0  0  0  0  0  0  0  0  0  0  0  0
    1.1339   -0.4870   -2.1801 C   0  0  0  0  0  0  0  0  0  0  0  0
    0.5472   -0.2349   -3.0701 H   0  0  0  0  0  0  0  0  0  0  0  0
    2.0276    0.1466   -2.1571 H   0  0  0  0  0  0  0  0  0  0  0  0
    1.5127   -1.9117   -2.1986 N   0  3  0  0  0  0  0  0  0  0  0  0
    1.2026   -2.4776   -1.4081 H   0  0  0  0  0  0  0  0  0  0  0  0
    2.1861   -2.4758   -3.1586 C   0  0  0  0  0  0  0  0  0  0  0  0
    2.6098   -1.7699   -4.2615 N   0  0  0  0  0  0  0  0  0  0  0  0
    2.2346   -0.8337   -4.3990 H   0  0  0  0  0  0  0  0  0  0  0  0
    2.9163   -2.2879   -5.0826 H   0  0  0  0  0  0  0  0  0  0  0  0
    2.4901   -3.8137   -3.0751 N   0  0  0  0  0  0  0  0  0  0  0  0
    2.3386   -4.2950   -2.1903 H   0  0  0  0  0  0  0  0  0  0  0  0
    3.1889   -4.1937   -3.7107 H   0  0  0  0  0  0  0  0  0  0  0  0
   -1.2551    3.0917    0.4299 C   0  0  0  0  0  0  0  0  0  0  0  0
   -2.3964    3.5317    0.3484 O   0  0  0  0  0  0  0  0  0  0  0  0
   -0.1979    3.9835    0.4906 N   0  0  0  0  0  0  0  0  0  0  0  0
    0.7333    3.6050    0.6355 H   0  0  0  0  0  0  0  0  0  0  0  0
   -0.3837    5.4298    0.5647 C   0  0  0  0  0  0  0  0  0  0  0  0
   -0.9207    5.7011    1.4801 H   0  0  0  0  0  0  0  0  0  0  0  0
    0.5849    5.9393    0.5680 H   0  0  0  0  0  0  0  0  0  0  0  0
   -0.9570    5.7879   -0.2971 H   0  0  0  0  0  0  0  0  0  0  0  0
  1  2  1  0  0  0  0
  2  3  1  0  0  0  0
  2  4  1  0  0  0  0
  2  5  1  0  0  0  0
  5  6  2  0  0  0  0
  5  7  1  0  0  0  0
  7  8  1  0  0  0  0
  7  9  1  0  0  0  0
  9 10  1  0  0  0  0
  9 11  1  0  0  0  0
  9 29  1  0  0  0  0
 11 12  1  0  0  0  0
 11 13  1  0  0  0  0
 11 14  1  0  0  0  0
 14 15  1  0  0  0  0
 14 16  1  0  0  0  0
 14 17  1  0  0  0  0
 17 18  1  0  0  0  0
 17 19  1  0  0  0  0
 17 20  1  0  0  0  0
 20 21  1  0  0  0  0
 20 22  2  0  0  0  0
 22 23  1  0  0  0  0
 22 26  1  0  0  0  0
 23 24  1  0  0  0  0
 23 25  1  0  0  0  0
 26 27  1  0  0  0  0
 26 28  1  0  0  0  0
 29 30  2  0  0  0  0
 29 31  1  0  0  0  0
 31 32  1  0  0  0  0
 31 33  1  0  0  0  0
 33 34  1  0  0  0  0
 33 35  1  0  0  0  0
 33 36  1  0  0  0  0
M  CHG  1  20   1
M  END
$$$$

  -OEChem-02172215453D

 36 35  0     1  0  0  0  0  0999 V2000
   -4.0423   -1.8476    1.4007 H   0  0  0  0  0  0  0  0  0  0  0  0
   -4.0072   -0.8622    0.9281 C   0  0  0  0  0  0  0  0  0  0  0  0
   -4.5895   -0.1624    1.5331 H   0  0  0  0  0  0  0  0  0  0  0  0
   -4.4542   -0.9304   -0.0665 H   0  0  0  0  0  0  0  0  0  0  0  0
   -2.5724   -0.3829    0.8212 C   0  0  0  0  0  0  0  0  0  0  0  0
   -1.6604   -1.0998    1.2077 O   0  0  0  0  0  0  0  0  0  0  0  0
   -2.3104    0.8734    0.3111 N   0  0  0  0  0  0  0  0  0  0  0  0
   -3.1215    1.4848    0.1970 H   0  0  0  0  0  0  0  0  0  0  0  0
   -1.0085    1.5629    0.3717 C   0  0  1  0  0  0  0  0  0  0  0  0
   -0.4711    1.2789    1.2830 H   0  0  0  0  0  0  0  0  0  0  0  0
   -0.1463    1.2315   -0.8770 C   0  0  0  0  0  0  0  0  0  0  0  0
   -0.7187    1.4805   -1.7776 H   0  0  0  0  0  0  0  0  0  0  0  0
    0.7540    1.8535   -0.8738 H   0  0  0  0  0  0  0  0  0  0  0  0
    0.3008   -0.2340   -0.9473 C   0  0  0  0  0  0  0  0  0  0  0  0
    0.8599   -0.4927   -0.0411 H   0  0  0  0  0  0  0  0  0  0  0  0
   -0.5796   -0.8789   -1.0055 H   0  0  0  0  0  0  0  0  0  0  0  0
    1.1445   -0.4982   -2.1898 C   0  0  0  0  0  0  0  0  0  0  0  0
    0.5636   -0.2443   -3.0833 H   0  0  0  0  0  0  0  0  0  0  0  0
    2.0419    0.1298   -2.1625 H   0  0  0  0  0  0  0  0  0  0  0  0
    1.5163   -1.9245   -2.2037 N   0  3  0  0  0  0  0  0  0  0  0  0
    1.1990   -2.4869   -1.4136 H   0  0  0  0  0  0  0  0  0  0  0  0
    2.1907   -2.4938   -3.1596 C   0  0  0  0  0  0  0  0  0  0  0  0
    2.6225   -1.7921   -4.2620 N   0  0  0  0  0  0  0  0  0  0  0  0
    2.2551   -0.8533   -4.4014 H   0  0  0  0  0  0  0  0  0  0  0  0
    2.9320   -2.3120   -5.0807 H   0  0  0  0  0  0  0  0  0  0  0  0
    2.4845   -3.8336   -3.0724 N   0  0  0  0  0  0  0  0  0  0  0  0
    2.3223   -4.3127   -2.1883 H   0  0  0  0  0  0  0  0  0  0  0  0
    3.1836   -4.2206   -3.7036 H   0  0  0  0  0  0  0  0  0  0  0  0
   -1.2593    3.0949    0.4272 C   0  0  0  0  0  0  0  0  0  0  0  0
   -2.3977    3.5132    0.6056 O   0  0  0  0  0  0  0  0  0  0  0  0
   -0.2516    4.0148    0.1887 N   0  0  0  0  0  0  0  0  0  0  0  0
    0.6986    3.6657    0.1128 H   0  0  0  0  0  0  0  0  0  0  0  0
   -0.4623    5.4591    0.2416 C   0  0  0  0  0  0  0  0  0  0  0  0
   -0.7745    5.7655    1.2458 H   0  0  0  0  0  0  0  0  0  0  0  0
    0.4623    5.9879   -0.0096 H   0  0  0  0  0  0  0  0  0  0  0  0
   -1.2356    5.7616   -0.4729 H   0  0  0  0  0  0  0  0  0  0  0  0
  1  2  1  0  0  0  0
  2  3  1  0  0  0  0
  2  4  1  0  0  0  0
  2  5  1  0  0  0  0
  5  6  2  0  0  0  0
  5  7  1  0  0  0  0
  7  8  1  0  0  0  0
  7  9  1  0  0  0  0
  9 10  1  0  0  0  0
  9 11  1  0  0  0  0
  9 29  1  0  0  0  0
 11 12  1  0  0  0  0
 11 13  1  0  0  0  0
 11 14  1  0  0  0  0
 14 15  1  0  0  0  0
 14 16  1  0  0  0  0
 14 17  1  0  0  0  0
 17 18  1  0  0  0  0
 17 19  1  0  0  0  0
 17 20  1  0  0  0  0
 20 21  1  0  0  0  0
 20 22  2  0  0  0  0
 22 23  1  0  0  0  0
 22 26  1  0  0  0  0
 23 24  1  0  0  0  0
 23 25  1  0  0  0  0
 26 27  1  0  0  0  0
 26 28  1  0  0  0  0
 29 30  2  0  0  0  0
 29 31  1  0  0  0  0
 31 32  1  0  0  0  0
 31 33  1  0  0  0  0
 33 34  1  0  0  0  0
 33 35  1  0  0  0  0
 33 36  1  0  0  0  0
M  CHG  1  20   1
M  END
$$$$

  -OEChem-02172215453D

 36 35  0     1  0  0  0  0  0999 V2000
   -4.0437   -1.8267    1.4143 H   0  0  0  0  0  0  0  0  0  0  0  0
   -4.0091   -0.8395    0.9449 C   0  0  0  0  0  0  0  0  0  0  0  0
   -4.5640   -0.1352    1.5700 H   0  0  0  0  0  0  0  0  0  0  0  0
   -4.4857   -0.8980   -0.0364 H   0  0  0  0  0  0  0  0  0  0  0  0
   -2.5718   -0.3780    0.7986 C   0  0  0  0  0  0  0  0  0  0  0  0
   -1.6604   -1.1085    1.1609 O   0  0  0  0  0  0  0  0  0  0  0  0
   -2.3109    0.8819    0.2950 N   0  0  0  0  0  0  0  0  0  0  0  0
   -3.1203    1.5026    0.2342 H   0  0  0  0  0  0  0  0  0  0  0  0
   -1.0037    1.5631    0.3499 C   0  0  1  0  0  0  0  0  0  0  0  0
   -0.4666    1.2771    1.2609 H   0  0  0  0  0  0  0  0  0  0  0  0
   -0.1356    1.2280   -0.8961 C   0  0  0  0  0  0  0  0  0  0  0  0
   -0.7006    1.4800   -1.8006 H   0  0  0  0  0  0  0  0  0  0  0  0
    0.7694    1.8427   -0.8845 H   0  0  0  0  0  0  0  0  0  0  0  0
    0.3085   -0.2383   -0.9646 C   0  0  0  0  0  0  0  0  0  0  0  0
    0.8602   -0.4990   -0.0543 H   0  0  0  0  0  0  0  0  0  0  0  0
   -0.5738   -0.8796   -1.0298 H   0  0  0  0  0  0  0  0  0  0  0  0
    1.1577   -0.5084   -2.2021 C   0  0  0  0  0  0  0  0  0  0  0  0
    0.5824   -0.2550   -3.0993 H   0  0  0  0  0  0  0  0  0  0  0  0
    2.0576    0.1161   -2.1722 H   0  0  0  0  0  0  0  0  0  0  0  0
    1.5228   -1.9365   -2.2085 N   0  3  0  0  0  0  0  0  0  0  0  0
    1.1975   -2.4949   -1.4188 H   0  0  0  0  0  0  0  0  0  0  0  0
    2.1999   -2.5132   -3.1578 C   0  0  0  0  0  0  0  0  0  0  0  0
    2.6413   -1.8181   -4.2605 N   0  0  0  0  0  0  0  0  0  0  0  0
    2.2851   -0.8755   -4.4027 H   0  0  0  0  0  0  0  0  0  0  0  0
    2.9500   -2.3423   -5.0767 H   0  0  0  0  0  0  0  0  0  0  0  0
    2.4858   -3.8543   -3.0637 N   0  0  0  0  0  0  0  0  0  0  0  0
    2.3126   -4.3304   -2.1800 H   0  0  0  0  0  0  0  0  0  0  0  0
    3.1873   -4.2477   -3.6884 H   0  0  0  0  0  0  0  0  0  0  0  0
   -1.2618    3.0945    0.4205 C   0  0  0  0  0  0  0  0  0  0  0  0
   -2.3329    3.4951    0.8606 O   0  0  0  0  0  0  0  0  0  0  0  0
   -0.3822    4.0306   -0.0991 N   0  0  0  0  0  0  0  0  0  0  0  0
    0.5212    3.7033   -0.4250 H   0  0  0  0  0  0  0  0  0  0  0  0
   -0.6286    5.4694   -0.0514 C   0  0  0  0  0  0  0  0  0  0  0  0
   -0.7048    5.8115    0.9864 H   0  0  0  0  0  0  0  0  0  0  0  0
    0.1894    6.0122   -0.5348 H   0  0  0  0  0  0  0  0  0  0  0  0
   -1.5601    5.7172   -0.5715 H   0  0  0  0  0  0  0  0  0  0  0  0
  1  2  1  0  0  0  0
  2  3  1  0  0  0  0
  2  4  1  0  0  0  0
  2  5  1  0  0  0  0
  5  6  2  0  0  0  0
  5  7  1  0  0  0  0
  7  8  1  0  0  0  0
  7  9  1  0  0  0  0
  9 10  1  0  0  0  0
  9 11  1  0  0  0  0
  9 29  1  0  0  0  0
 11 12  1  0  0  0  0
 11 13  1  0  0  0  0
 11 14  1  0  0  0  0
 14 15  1  0  0  0  0
 14 16  1  0  0  0  0
 14 17  1  0  0  0  0
 17 18  1  0  0  0  0
 17 19  1  0  0  0  0
 17 20  1  0  0  0  0
 20 21  1  0  0  0  0
 20 22  2  0  0  0  0
 22 23  1  0  0  0  0
 22 26  1  0  0  0  0
 23 24  1  0  0  0  0
 23 25  1  0  0  0  0
 26 27  1  0  0  0  0
 26 28  1  0  0  0  0
 29 30  2  0  0  0  0
 29 31  1  0  0  0  0
 31 32  1  0  0  0  0
 31 33  1  0  0  0  0
 33 34  1  0  0  0  0
 33 35  1  0  0  0  0
 33 36  1  0  0  0  0
M  CHG  1  20   1
M  END
$$$$

  -OEChem-02172215453D

 36 35  0     1  0  0  0  0  0999 V2000
   -4.0421   -1.8163    1.4220 H   0  0  0  0  0  0  0  0  0  0  0  0
   -4.0100   -0.8287    0.9535 C   0  0  0  0  0  0  0  0  0  0  0  0
   -4.5553   -0.1238    1.5862 H   0  0  0  0  0  0  0  0  0  0  0  0
   -4.4987   -0.8841   -0.0219 H   0  0  0  0  0  0  0  0  0  0  0  0
   -2.5730   -0.3722    0.7899 C   0  0  0  0  0  0  0  0  0  0  0  0
   -1.6607   -1.1110    1.1318 O   0  0  0  0  0  0  0  0  0  0  0  0
   -2.3159    0.8900    0.2894 N   0  0  0  0  0  0  0  0  0  0  0  0
   -3.1249    1.5120    0.2577 H   0  0  0  0  0  0  0  0  0  0  0  0
   -1.0046    1.5643    0.3314 C   0  0  1  0  0  0  0  0  0  0  0  0
   -0.4650    1.2769    1.2405 H   0  0  0  0  0  0  0  0  0  0  0  0
   -0.1329    1.2279   -0.9110 C   0  0  0  0  0  0  0  0  0  0  0  0
   -0.6936    1.4786   -1.8182 H   0  0  0  0  0  0  0  0  0  0  0  0
    0.7719    1.8436   -0.8909 H   0  0  0  0  0  0  0  0  0  0  0  0
    0.3120   -0.2380   -0.9764 C   0  0  0  0  0  0  0  0  0  0  0  0
    0.8609   -0.4963   -0.0639 H   0  0  0  0  0  0  0  0  0  0  0  0
   -0.5696   -0.8797   -1.0442 H   0  0  0  0  0  0  0  0  0  0  0  0
    1.1656   -0.5127   -2.2098 C   0  0  0  0  0  0  0  0  0  0  0  0
    0.5940   -0.2617   -3.1102 H   0  0  0  0  0  0  0  0  0  0  0  0
    2.0659    0.1109   -2.1783 H   0  0  0  0  0  0  0  0  0  0  0  0
    1.5288   -1.9417   -2.2089 N   0  3  0  0  0  0  0  0  0  0  0  0
    1.1994   -2.4956   -1.4177 H   0  0  0  0  0  0  0  0  0  0  0  0
    2.2089   -2.5248   -3.1526 C   0  0  0  0  0  0  0  0  0  0  0  0
    2.6565   -1.8360   -4.2565 N   0  0  0  0  0  0  0  0  0  0  0  0
    2.3059   -0.8920   -4.4033 H   0  0  0  0  0  0  0  0  0  0  0  0
    2.9719   -2.3638   -5.0679 H   0  0  0  0  0  0  0  0  0  0  0  0
    2.4899   -3.8666   -3.0524 N   0  0  0  0  0  0  0  0  0  0  0  0
    2.3107   -4.3398   -2.1683 H   0  0  0  0  0  0  0  0  0  0  0  0
    3.1893   -4.2665   -3.6754 H   0  0  0  0  0  0  0  0  0  0  0  0
   -1.2626    3.0938    0.4146 C   0  0  0  0  0  0  0  0  0  0  0  0
   -2.1988    3.4912    1.0960 O   0  0  0  0  0  0  0  0  0  0  0  0
   -0.5764    4.0234   -0.3505 N   0  0  0  0  0  0  0  0  0  0  0  0
    0.1923    3.6936   -0.9243 H   0  0  0  0  0  0  0  0  0  0  0  0
   -0.8546    5.4565   -0.3077 C   0  0  0  0  0  0  0  0  0  0  0  0
   -0.6808    5.8510    0.6994 H   0  0  0  0  0  0  0  0  0  0  0  0
   -0.2030    5.9917   -1.0053 H   0  0  0  0  0  0  0  0  0  0  0  0
   -1.8949    5.6550   -0.5874 H   0  0  0  0  0  0  0  0  0  0  0  0
  1  2  1  0  0  0  0
  2  3  1  0  0  0  0
  2  4  1  0  0  0  0
  2  5  1  0  0  0  0
  5  6  2  0  0  0  0
  5  7  1  0  0  0  0
  7  8  1  0  0  0  0
  7  9  1  0  0  0  0
  9 10  1  0  0  0  0
  9 11  1  0  0  0  0
  9 29  1  0  0  0  0
 11 12  1  0  0  0  0
 11 13  1  0  0  0  0
 11 14  1  0  0  0  0
 14 15  1  0  0  0  0
 14 16  1  0  0  0  0
 14 17  1  0  0  0  0
 17 18  1  0  0  0  0
 17 19  1  0  0  0  0
 17 20  1  0  0  0  0
 20 21  1  0  0  0  0
 20 22  2  0  0  0  0
 22 23  1  0  0  0  0
 22 26  1  0  0  0  0
 23 24  1  0  0  0  0
 23 25  1  0  0  0  0
 26 27  1  0  0  0  0
 26 28  1  0  0  0  0
 29 30  2  0  0  0  0
 29 31  1  0  0  0  0
 31 32  1  0  0  0  0
 31 33  1  0  0  0  0
 33 34  1  0  0  0  0
 33 35  1  0  0  0  0
 33 36  1  0  0  0  0
M  CHG  1  20   1
M  END
$$$$

  -OEChem-02172215453D

 36 35  0     1  0  0  0  0  0999 V2000
   -4.0449   -1.8130    1.4330 H   0  0  0  0  0  0  0  0  0  0  0  0
   -4.0174   -0.8233    0.9685 C   0  0  0  0  0  0  0  0  0  0  0  0
   -4.5496   -0.1197    1.6135 H   0  0  0  0  0  0  0  0  0  0  0  0
   -4.5226   -0.8726    0.0012 H   0  0  0  0  0  0  0  0  0  0  0  0
   -2.5815   -0.3703    0.7839 C   0  0  0  0  0  0  0  0  0  0  0  0
   -1.6674   -1.1133    1.1108 O   0  0  0  0  0  0  0  0  0  0  0  0
   -2.3286    0.8940    0.2848 N   0  0  0  0  0  0  0  0  0  0  0  0
   -3.1394    1.5124    0.2594 H   0  0  0  0  0  0  0  0  0  0  0  0
   -1.0146    1.5640    0.3116 C   0  0  1  0  0  0  0  0  0  0  0  0
   -0.4718    1.2750    1.2190 H   0  0  0  0  0  0  0  0  0  0  0  0
   -0.1393    1.2278   -0.9277 C   0  0  0  0  0  0  0  0  0  0  0  0
   -0.7002    1.4687   -1.8374 H   0  0  0  0  0  0  0  0  0  0  0  0
    0.7596    1.8533   -0.9070 H   0  0  0  0  0  0  0  0  0  0  0  0
    0.3109   -0.2364   -0.9885 C   0  0  0  0  0  0  0  0  0  0  0  0
    0.8584   -0.4906   -0.0738 H   0  0  0  0  0  0  0  0  0  0  0  0
   -0.5688   -0.8806   -1.0559 H   0  0  0  0  0  0  0  0  0  0  0  0
    1.1684   -0.5127   -2.2187 C   0  0  0  0  0  0  0  0  0  0  0  0
    0.5986   -0.2670   -3.1216 H   0  0  0  0  0  0  0  0  0  0  0  0
    2.0673    0.1131   -2.1869 H   0  0  0  0  0  0  0  0  0  0  0  0
    1.5349   -1.9408   -2.2103 N   0  3  0  0  0  0  0  0  0  0  0  0
    1.2074   -2.4910   -1.4158 H   0  0  0  0  0  0  0  0  0  0  0  0
    2.2190   -2.5275   -3.1485 C   0  0  0  0  0  0  0  0  0  0  0  0
    2.6688   -1.8441   -4.2550 N   0  0  0  0  0  0  0  0  0  0  0  0
    2.3160   -0.9021   -4.4092 H   0  0  0  0  0  0  0  0  0  0  0  0
    2.9888   -2.3760   -5.0620 H   0  0  0  0  0  0  0  0  0  0  0  0
    2.5058   -3.8673   -3.0371 N   0  0  0  0  0  0  0  0  0  0  0  0
    2.3283   -4.3331   -2.1488 H   0  0  0  0  0  0  0  0  0  0  0  0
    3.2128   -4.2667   -3.6518 H   0  0  0  0  0  0  0  0  0  0  0  0
   -1.2620    3.0917    0.4048 C   0  0  0  0  0  0  0  0  0  0  0  0
   -1.9989    3.5050    1.2886 O   0  0  0  0  0  0  0  0  0  0  0  0
   -0.8197    3.9925   -0.5507 N   0  0  0  0  0  0  0  0  0  0  0  0
   -0.2522    3.6380   -1.3132 H   0  0  0  0  0  0  0  0  0  0  0  0
   -1.1240    5.4201   -0.5053 C   0  0  0  0  0  0  0  0  0  0  0  0
   -0.7229    5.8687    0.4100 H   0  0  0  0  0  0  0  0  0  0  0  0
   -0.6790    5.9326   -1.3638 H   0  0  0  0  0  0  0  0  0  0  0  0
   -2.2068    5.5834   -0.5302 H   0  0  0  0  0  0  0  0  0  0  0  0
  1  2  1  0  0  0  0
  2  3  1  0  0  0  0
  2  4  1  0  0  0  0
  2  5  1  0  0  0  0
  5  6  2  0  0  0  0
  5  7  1  0  0  0  0
  7  8  1  0  0  0  0
  7  9  1  0  0  0  0
  9 10  1  0  0  0  0
  9 11  1  0  0  0  0
  9 29  1  0  0  0  0
 11 12  1  0  0  0  0
 11 13  1  0  0  0  0
 11 14  1  0  0  0  0
 14 15  1  0  0  0  0
 14 16  1  0  0  0  0
 14 17  1  0  0  0  0
 17 18  1  0  0  0  0
 17 19  1  0  0  0  0
 17 20  1  0  0  0  0
 20 21  1  0  0  0  0
 20 22  2  0  0  0  0
 22 23  1  0  0  0  0
 22 26  1  0  0  0  0
 23 24  1  0  0  0  0
 23 25  1  0  0  0  0
 26 27  1  0  0  0  0
 26 28  1  0  0  0  0
 29 30  2  0  0  0  0
 29 31  1  0  0  0  0
 31 32  1  0  0  0  0
 31 33  1  0  0  0  0
 33 34  1  0  0  0  0
 33 35  1  0  0  0  0
 33 36  1  0  0  0  0
M  CHG  1  20   1
M  END
$$$$

  -OEChem-02172215453D

 36 35  0     1  0  0  0  0  0999 V2000
   -4.0440   -1.8285    1.4248 H   0  0  0  0  0  0  0  0  0  0  0  0
   -4.0231   -0.8286    0.9822 C   0  0  0  0  0  0  0  0  0  0  0  0
   -4.5464   -0.1400    1.6508 H   0  0  0  0  0  0  0  0  0  0  0  0
   -4.5422   -0.8573    0.0214 H   0  0  0  0  0  0  0  0  0  0  0  0
   -2.5898   -0.3717    0.7877 C   0  0  0  0  0  0  0  0  0  0  0  0
   -1.6717   -1.1117    1.1091 O   0  0  0  0  0  0  0  0  0  0  0  0
   -2.3442    0.8926    0.2848 N   0  0  0  0  0  0  0  0  0  0  0  0
   -3.1603    1.5017    0.2431 H   0  0  0  0  0  0  0  0  0  0  0  0
   -1.0305    1.5641    0.2967 C   0  0  1  0  0  0  0  0  0  0  0  0
   -0.4831    1.2750    1.2018 H   0  0  0  0  0  0  0  0  0  0  0  0
   -0.1533    1.2290   -0.9401 C   0  0  0  0  0  0  0  0  0  0  0  0
   -0.7166    1.4573   -1.8513 H   0  0  0  0  0  0  0  0  0  0  0  0
    0.7375    1.8669   -0.9229 H   0  0  0  0  0  0  0  0  0  0  0  0
    0.3055   -0.2331   -0.9937 C   0  0  0  0  0  0  0  0  0  0  0  0
    0.8542   -0.4791   -0.0775 H   0  0  0  0  0  0  0  0  0  0  0  0
   -0.5706   -0.8828   -1.0579 H   0  0  0  0  0  0  0  0  0  0  0  0
    1.1658   -0.5104   -2.2221 C   0  0  0  0  0  0  0  0  0  0  0  0
    0.5965   -0.2719   -3.1270 H   0  0  0  0  0  0  0  0  0  0  0  0
    2.0610    0.1209   -2.1923 H   0  0  0  0  0  0  0  0  0  0  0  0
    1.5410   -1.9362   -2.2070 N   0  3  0  0  0  0  0  0  0  0  0  0
    1.2165   -2.4852   -1.4102 H   0  0  0  0  0  0  0  0  0  0  0  0
    2.2294   -2.5223   -3.1426 C   0  0  0  0  0  0  0  0  0  0  0  0
    2.6755   -1.8400   -4.2514 N   0  0  0  0  0  0  0  0  0  0  0  0
    2.3235   -0.8978   -4.4061 H   0  0  0  0  0  0  0  0  0  0  0  0
    2.9990   -2.3719   -5.0569 H   0  0  0  0  0  0  0  0  0  0  0  0
    2.5224   -3.8603   -3.0278 N   0  0  0  0  0  0  0  0  0  0  0  0
    2.3487   -4.3236   -2.1374 H   0  0  0  0  0  0  0  0  0  0  0  0
    3.2329   -4.2566   -3.6402 H   0  0  0  0  0  0  0  0  0  0  0  0
   -1.2647    3.0908    0.3910 C   0  0  0  0  0  0  0  0  0  0  0  0
   -1.7429    3.5415    1.4206 O   0  0  0  0  0  0  0  0  0  0  0  0
   -1.1031    3.9434   -0.6890 N   0  0  0  0  0  0  0  0  0  0  0  0
   -0.7814    3.5459   -1.5654 H   0  0  0  0  0  0  0  0  0  0  0  0
   -1.4227    5.3673   -0.6373 C   0  0  0  0  0  0  0  0  0  0  0  0
   -0.8261    5.8668    0.1338 H   0  0  0  0  0  0  0  0  0  0  0  0
   -1.2077    5.8414   -1.5999 H   0  0  0  0  0  0  0  0  0  0  0  0
   -2.4839    5.5151   -0.4092 H   0  0  0  0  0  0  0  0  0  0  0  0
  1  2  1  0  0  0  0
  2  3  1  0  0  0  0
  2  4  1  0  0  0  0
  2  5  1  0  0  0  0
  5  6  2  0  0  0  0
  5  7  1  0  0  0  0
  7  8  1  0  0  0  0
  7  9  1  0  0  0  0
  9 10  1  0  0  0  0
  9 11  1  0  0  0  0
  9 29  1  0  0  0  0
 11 12  1  0  0  0  0
 11 13  1  0  0  0  0
 11 14  1  0  0  0  0
 14 15  1  0  0  0  0
 14 16  1  0  0  0  0
 14 17  1  0  0  0  0
 17 18  1  0  0  0  0
 17 19  1  0  0  0  0
 17 20  1  0  0  0  0
 20 21  1  0  0  0  0
 20 22  2  0  0  0  0
 22 23  1  0  0  0  0
 22 26  1  0  0  0  0
 23 24  1  0  0  0  0
 23 25  1  0  0  0  0
 26 27  1  0  0  0  0
 26 28  1  0  0  0  0
 29 30  2  0  0  0  0
 29 31  1  0  0  0  0
 31 32  1  0  0  0  0
 31 33  1  0  0  0  0
 33 34  1  0  0  0  0
 33 35  1  0  0  0  0
 33 36  1  0  0  0  0
M  CHG  1  20   1
M  END
$$$$

  -OEChem-02172215453D

 36 35  0     1  0  0  0  0  0999 V2000
   -4.0397   -1.8491    1.4503 H   0  0  0  0  0  0  0  0  0  0  0  0
   -4.0289   -0.8600    0.9834 C   0  0  0  0  0  0  0  0  0  0  0  0
   -4.5756   -0.1648    1.6255 H   0  0  0  0  0  0  0  0  0  0  0  0
   -4.5294   -0.9214    0.0143 H   0  0  0  0  0  0  0  0  0  0  0  0
   -2.6011   -0.3822    0.8023 C   0  0  0  0  0  0  0  0  0  0  0  0
   -1.6757   -1.1104    1.1280 O   0  0  0  0  0  0  0  0  0  0  0  0
   -2.3679    0.8817    0.2919 N   0  0  0  0  0  0  0  0  0  0  0  0
   -3.1924    1.4750    0.2164 H   0  0  0  0  0  0  0  0  0  0  0  0
   -1.0586    1.5620    0.2899 C   0  0  1  0  0  0  0  0  0  0  0  0
   -0.5055    1.2753    1.1923 H   0  0  0  0  0  0  0  0  0  0  0  0
   -0.1820    1.2299   -0.9470 C   0  0  0  0  0  0  0  0  0  0  0  0
   -0.7479    1.4460   -1.8591 H   0  0  0  0  0  0  0  0  0  0  0  0
    0.7003    1.8797   -0.9370 H   0  0  0  0  0  0  0  0  0  0  0  0
    0.2898   -0.2279   -0.9920 C   0  0  0  0  0  0  0  0  0  0  0  0
    0.8444   -0.4621   -0.0760 H   0  0  0  0  0  0  0  0  0  0  0  0
   -0.5801   -0.8868   -1.0486 H   0  0  0  0  0  0  0  0  0  0  0  0
    1.1493   -0.5021   -2.2213 C   0  0  0  0  0  0  0  0  0  0  0  0
    0.5746   -0.2739   -3.1255 H   0  0  0  0  0  0  0  0  0  0  0  0
    2.0374    0.1395   -2.1963 H   0  0  0  0  0  0  0  0  0  0  0  0
    1.5405   -1.9234   -2.2022 N   0  3  0  0  0  0  0  0  0  0  0  0
    1.2289   -2.4717   -1.3998 H   0  0  0  0  0  0  0  0  0  0  0  0
    2.2325   -2.5050   -3.1379 C   0  0  0  0  0  0  0  0  0  0  0  0
    2.6677   -1.8231   -4.2510 N   0  0  0  0  0  0  0  0  0  0  0  0
    2.2998   -0.8881   -4.4121 H   0  0  0  0  0  0  0  0  0  0  0  0
    2.9983   -2.3557   -5.0531 H   0  0  0  0  0  0  0  0  0  0  0  0
    2.5484   -3.8368   -3.0149 N   0  0  0  0  0  0  0  0  0  0  0  0
    2.3889   -4.2936   -2.1186 H   0  0  0  0  0  0  0  0  0  0  0  0
    3.2676   -4.2228   -3.6238 H   0  0  0  0  0  0  0  0  0  0  0  0
   -1.2808    3.0884    0.3786 C   0  0  0  0  0  0  0  0  0  0  0  0
   -1.4365    3.5984    1.4767 O   0  0  0  0  0  0  0  0  0  0  0  0
   -1.4214    3.8785   -0.7501 N   0  0  0  0  0  0  0  0  0  0  0  0
   -1.3586    3.4276   -1.6571 H   0  0  0  0  0  0  0  0  0  0  0  0
   -1.7071    5.3091   -0.6915 C   0  0  0  0  0  0  0  0  0  0  0  0
   -0.9094    5.8380   -0.1590 H   0  0  0  0  0  0  0  0  0  0  0  0
   -1.7815    5.7247   -1.7010 H   0  0  0  0  0  0  0  0  0  0  0  0
   -2.6544    5.4914   -0.1727 H   0  0  0  0  0  0  0  0  0  0  0  0
  1  2  1  0  0  0  0
  2  3  1  0  0  0  0
  2  4  1  0  0  0  0
  2  5  1  0  0  0  0
  5  6  2  0  0  0  0
  5  7  1  0  0  0  0
  7  8  1  0  0  0  0
  7  9  1  0  0  0  0
  9 10  1  0  0  0  0
  9 11  1  0  0  0  0
  9 29  1  0  0  0  0
 11 12  1  0  0  0  0
 11 13  1  0  0  0  0
 11 14  1  0  0  0  0
 14 15  1  0  0  0  0
 14 16  1  0  0  0  0
 14 17  1  0  0  0  0
 17 18  1  0  0  0  0
 17 19  1  0  0  0  0
 17 20  1  0  0  0  0
 20 21  1  0  0  0  0
 20 22  2  0  0  0  0
 22 23  1  0  0  0  0
 22 26  1  0  0  0  0
 23 24  1  0  0  0  0
 23 25  1  0  0  0  0
 26 27  1  0  0  0  0
 26 28  1  0  0  0  0
 29 30  2  0  0  0  0
 29 31  1  0  0  0  0
 31 32  1  0  0  0  0
 31 33  1  0  0  0  0
 33 34  1  0  0  0  0
 33 35  1  0  0  0  0
 33 36  1  0  0  0  0
M  CHG  1  20   1
M  END
$$$$

  -OEChem-02172215453D

 36 35  0     1  0  0  0  0  0999 V2000
   -4.0409   -1.8840    1.4543 H   0  0  0  0  0  0  0  0  0  0  0  0
   -4.0391   -0.8910    0.9956 C   0  0  0  0  0  0  0  0  0  0  0  0
   -4.5950   -0.2074    1.6424 H   0  0  0  0  0  0  0  0  0  0  0  0
   -4.5382   -0.9501    0.0257 H   0  0  0  0  0  0  0  0  0  0  0  0
   -2.6151   -0.3978    0.8213 C   0  0  0  0  0  0  0  0  0  0  0  0
   -1.6837   -1.1145    1.1542 O   0  0  0  0  0  0  0  0  0  0  0  0
   -2.3907    0.8645    0.3016 N   0  0  0  0  0  0  0  0  0  0  0  0
   -3.2208    1.4456    0.2023 H   0  0  0  0  0  0  0  0  0  0  0  0
   -1.0848    1.5535    0.2962 C   0  0  1  0  0  0  0  0  0  0  0  0
   -0.5292    1.2699    1.1985 H   0  0  0  0  0  0  0  0  0  0  0  0
   -0.2064    1.2299   -0.9390 C   0  0  0  0  0  0  0  0  0  0  0  0
   -0.7728    1.4446   -1.8510 H   0  0  0  0  0  0  0  0  0  0  0  0
    0.6705    1.8870   -0.9273 H   0  0  0  0  0  0  0  0  0  0  0  0
    0.2757   -0.2245   -0.9830 C   0  0  0  0  0  0  0  0  0  0  0  0
    0.8335   -0.4536   -0.0678 H   0  0  0  0  0  0  0  0  0  0  0  0
   -0.5890   -0.8906   -1.0365 H   0  0  0  0  0  0  0  0  0  0  0  0
    1.1376   -0.4901   -2.2126 C   0  0  0  0  0  0  0  0  0  0  0  0
    0.5604   -0.2652   -3.1161 H   0  0  0  0  0  0  0  0  0  0  0  0
    2.0201    0.1593   -2.1877 H   0  0  0  0  0  0  0  0  0  0  0  0
    1.5413   -1.9081   -2.1971 N   0  3  0  0  0  0  0  0  0  0  0  0
    1.2379   -2.4607   -1.3947 H   0  0  0  0  0  0  0  0  0  0  0  0
    2.2383   -2.4793   -3.1355 C   0  0  0  0  0  0  0  0  0  0  0  0
    2.6653   -1.7867   -4.2455 N   0  0  0  0  0  0  0  0  0  0  0  0
    2.2985   -0.8492   -4.3944 H   0  0  0  0  0  0  0  0  0  0  0  0
    2.9962   -2.3094   -5.0538 H   0  0  0  0  0  0  0  0  0  0  0  0
    2.5607   -3.8107   -3.0221 N   0  0  0  0  0  0  0  0  0  0  0  0
    2.4004   -4.2776   -2.1312 H   0  0  0  0  0  0  0  0  0  0  0  0
    3.2778   -4.1912   -3.6368 H   0  0  0  0  0  0  0  0  0  0  0  0
   -1.3008    3.0797    0.3729 C   0  0  0  0  0  0  0  0  0  0  0  0
   -1.1212    3.6581    1.4324 O   0  0  0  0  0  0  0  0  0  0  0  0
   -1.7384    3.8015   -0.7246 N   0  0  0  0  0  0  0  0  0  0  0  0
   -1.9131    3.2959   -1.5873 H   0  0  0  0  0  0  0  0  0  0  0  0
   -1.9922    5.2388   -0.6835 C   0  0  0  0  0  0  0  0  0  0  0  0
   -1.0781    5.7830   -0.4226 H   0  0  0  0  0  0  0  0  0  0  0  0
   -2.3371    5.5929   -1.6598 H   0  0  0  0  0  0  0  0  0  0  0  0
   -2.7624    5.4720    0.0595 H   0  0  0  0  0  0  0  0  0  0  0  0
  1  2  1  0  0  0  0
  2  3  1  0  0  0  0
  2  4  1  0  0  0  0
  2  5  1  0  0  0  0
  5  6  2  0  0  0  0
  5  7  1  0  0  0  0
  7  8  1  0  0  0  0
  7  9  1  0  0  0  0
  9 10  1  0  0  0  0
  9 11  1  0  0  0  0
  9 29  1  0  0  0  0
 11 12  1  0  0  0  0
 11 13  1  0  0  0  0
 11 14  1  0  0  0  0
 14 15  1  0  0  0  0
 14 16  1  0  0  0  0
 14 17  1  0  0  0  0
 17 18  1  0  0  0  0
 17 19  1  0  0  0  0
 17 20  1  0  0  0  0
 20 21  1  0  0  0  0
 20 22  2  0  0  0  0
 22 23  1  0  0  0  0
 22 26  1  0  0  0  0
 23 24  1  0  0  0  0
 23 25  1  0  0  0  0
 26 27  1  0  0  0  0
 26 28  1  0  0  0  0
 29 30  2  0  0  0  0
 29 31  1  0  0  0  0
 31 32  1  0  0  0  0
 31 33  1  0  0  0  0
 33 34  1  0  0  0  0
 33 35  1  0  0  0  0
 33 36  1  0  0  0  0
M  CHG  1  20   1
M  END
$$$$

  -OEChem-02172215453D

 36 35  0     1  0  0  0  0  0999 V2000
   -4.0436   -1.9156    1.4690 H   0  0  0  0  0  0  0  0  0  0  0  0
   -4.0484   -0.9235    1.0084 C   0  0  0  0  0  0  0  0  0  0  0  0
   -4.6150   -0.2441    1.6500 H   0  0  0  0  0  0  0  0  0  0  0  0
   -4.5393   -0.9895    0.0348 H   0  0  0  0  0  0  0  0  0  0  0  0
   -2.6287   -0.4165    0.8414 C   0  0  0  0  0  0  0  0  0  0  0  0
   -1.6919   -1.1234    1.1797 O   0  0  0  0  0  0  0  0  0  0  0  0
   -2.4138    0.8447    0.3149 N   0  0  0  0  0  0  0  0  0  0  0  0
   -3.2485    1.4173    0.2082 H   0  0  0  0  0  0  0  0  0  0  0  0
   -1.1115    1.5413    0.3122 C   0  0  1  0  0  0  0  0  0  0  0  0
   -0.5574    1.2599    1.2160 H   0  0  0  0  0  0  0  0  0  0  0  0
   -0.2317    1.2269   -0.9229 C   0  0  0  0  0  0  0  0  0  0  0  0
   -0.7975    1.4463   -1.8344 H   0  0  0  0  0  0  0  0  0  0  0  0
    0.6424    1.8879   -0.9077 H   0  0  0  0  0  0  0  0  0  0  0  0
    0.2579   -0.2249   -0.9705 C   0  0  0  0  0  0  0  0  0  0  0  0
    0.8181   -0.4529   -0.0564 H   0  0  0  0  0  0  0  0  0  0  0  0
   -0.6028   -0.8961   -1.0243 H   0  0  0  0  0  0  0  0  0  0  0  0
    1.1211   -0.4792   -2.2015 C   0  0  0  0  0  0  0  0  0  0  0  0
    0.5424   -0.2537   -3.1037 H   0  0  0  0  0  0  0  0  0  0  0  0
    1.9984    0.1766   -2.1728 H   0  0  0  0  0  0  0  0  0  0  0  0
    1.5360   -1.8939   -2.1958 N   0  3  0  0  0  0  0  0  0  0  0  0
    1.2388   -2.4542   -1.3966 H   0  0  0  0  0  0  0  0  0  0  0  0
    2.2367   -2.4527   -3.1390 C   0  0  0  0  0  0  0  0  0  0  0  0
    2.6569   -1.7487   -4.2445 N   0  0  0  0  0  0  0  0  0  0  0  0
    2.2816   -0.8138   -4.3890 H   0  0  0  0  0  0  0  0  0  0  0  0
    3.0055   -2.2608   -5.0523 H   0  0  0  0  0  0  0  0  0  0  0  0
    2.5738   -3.7811   -3.0347 N   0  0  0  0  0  0  0  0  0  0  0  0
    2.4238   -4.2544   -2.1454 H   0  0  0  0  0  0  0  0  0  0  0  0
    3.2906   -4.1510   -3.6563 H   0  0  0  0  0  0  0  0  0  0  0  0
   -1.3214    3.0673    0.3792 C   0  0  0  0  0  0  0  0  0  0  0  0
   -0.8381    3.7043    1.3014 O   0  0  0  0  0  0  0  0  0  0  0  0
   -2.0325    3.7300   -0.6067 N   0  0  0  0  0  0  0  0  0  0  0  0
   -2.3901    3.1836   -1.3840 H   0  0  0  0  0  0  0  0  0  0  0  0
   -2.2516    5.1734   -0.5957 C   0  0  0  0  0  0  0  0  0  0  0  0
   -1.2962    5.7070   -0.6412 H   0  0  0  0  0  0  0  0  0  0  0  0
   -2.8565    5.4742   -1.4565 H   0  0  0  0  0  0  0  0  0  0  0  0
   -2.7776    5.4746    0.3166 H   0  0  0  0  0  0  0  0  0  0  0  0
  1  2  1  0  0  0  0
  2  3  1  0  0  0  0
  2  4  1  0  0  0  0
  2  5  1  0  0  0  0
  5  6  2  0  0  0  0
  5  7  1  0  0  0  0
  7  8  1  0  0  0  0
  7  9  1  0  0  0  0
  9 10  1  0  0  0  0
  9 11  1  0  0  0  0
  9 29  1  0  0  0  0
 11 12  1  0  0  0  0
 11 13  1  0  0  0  0
 11 14  1  0  0  0  0
 14 15  1  0  0  0  0
 14 16  1  0  0  0  0
 14 17  1  0  0  0  0
 17 18  1  0  0  0  0
 17 19  1  0  0  0  0
 17 20  1  0  0  0  0
 20 21  1  0  0  0  0
 20 22  2  0  0  0  0
 22 23  1  0  0  0  0
 22 26  1  0  0  0  0
 23 24  1  0  0  0  0
 23 25  1  0  0  0  0
 26 27  1  0  0  0  0
 26 28  1  0  0  0  0
 29 30  2  0  0  0  0
 29 31  1  0  0  0  0
 31 32  1  0  0  0  0
 31 33  1  0  0  0  0
 33 34  1  0  0  0  0
 33 35  1  0  0  0  0
 33 36  1  0  0  0  0
M  CHG  1  20   1
M  END
$$$$

  -OEChem-02172215453D

 36 35  0     1  0  0  0  0  0999 V2000
   -4.0480   -1.9533    1.4803 H   0  0  0  0  0  0  0  0  0  0  0  0
   -4.0615   -0.9561    1.0308 C   0  0  0  0  0  0  0  0  0  0  0  0
   -4.6249   -0.2860    1.6851 H   0  0  0  0  0  0  0  0  0  0  0  0
   -4.5619   -1.0146    0.0616 H   0  0  0  0  0  0  0  0  0  0  0  0
   -2.6452   -0.4422    0.8567 C   0  0  0  0  0  0  0  0  0  0  0  0
   -1.7042   -1.1422    1.1968 O   0  0  0  0  0  0  0  0  0  0  0  0
   -2.4375    0.8182    0.3246 N   0  0  0  0  0  0  0  0  0  0  0  0
   -3.2747    1.3895    0.2360 H   0  0  0  0  0  0  0  0  0  0  0  0
   -1.1375    1.5226    0.3330 C   0  0  1  0  0  0  0  0  0  0  0  0
   -0.5877    1.2429    1.2399 H   0  0  0  0  0  0  0  0  0  0  0  0
   -0.2543    1.2166   -0.9002 C   0  0  0  0  0  0  0  0  0  0  0  0
   -0.8199    1.4409   -1.8107 H   0  0  0  0  0  0  0  0  0  0  0  0
    0.6183    1.8798   -0.8796 H   0  0  0  0  0  0  0  0  0  0  0  0
    0.2423   -0.2319   -0.9563 C   0  0  0  0  0  0  0  0  0  0  0  0
    0.8041   -0.4619   -0.0439 H   0  0  0  0  0  0  0  0  0  0  0  0
   -0.6143   -0.9081   -1.0144 H   0  0  0  0  0  0  0  0  0  0  0  0
    1.1078   -0.4680   -2.1889 C   0  0  0  0  0  0  0  0  0  0  0  0
    0.5287   -0.2356   -3.0892 H   0  0  0  0  0  0  0  0  0  0  0  0
    1.9808    0.1934   -2.1518 H   0  0  0  0  0  0  0  0  0  0  0  0
    1.5326   -1.8793   -2.1972 N   0  3  0  0  0  0  0  0  0  0  0  0
    1.2405   -2.4493   -1.4030 H   0  0  0  0  0  0  0  0  0  0  0  0
    2.2375   -2.4229   -3.1458 C   0  0  0  0  0  0  0  0  0  0  0  0
    2.6528   -1.7049   -4.2440 N   0  0  0  0  0  0  0  0  0  0  0  0
    2.2723   -0.7702   -4.3764 H   0  0  0  0  0  0  0  0  0  0  0  0
    2.9914   -2.2086   -5.0612 H   0  0  0  0  0  0  0  0  0  0  0  0
    2.5849   -3.7494   -3.0530 N   0  0  0  0  0  0  0  0  0  0  0  0
    2.4391   -4.2296   -2.1667 H   0  0  0  0  0  0  0  0  0  0  0  0
    3.3113   -4.1043   -3.6722 H   0  0  0  0  0  0  0  0  0  0  0  0
   -1.3375    3.0501    0.3896 C   0  0  0  0  0  0  0  0  0  0  0  0
   -0.6277    3.7242    1.1190 O   0  0  0  0  0  0  0  0  0  0  0  0
   -2.2744    3.6735   -0.4175 N   0  0  0  0  0  0  0  0  0  0  0  0
   -2.7585    3.1058   -1.1059 H   0  0  0  0  0  0  0  0  0  0  0  0
   -2.4661    5.1208   -0.4374 C   0  0  0  0  0  0  0  0  0  0  0  0
   -1.5561    5.6250   -0.7801 H   0  0  0  0  0  0  0  0  0  0  0  0
   -3.2853    5.3877   -1.1123 H   0  0  0  0  0  0  0  0  0  0  0  0
   -2.7139    5.4883    0.5644 H   0  0  0  0  0  0  0  0  0  0  0  0
  1  2  1  0  0  0  0
  2  3  1  0  0  0  0
  2  4  1  0  0  0  0
  2  5  1  0  0  0  0
  5  6  2  0  0  0  0
  5  7  1  0  0  0  0
  7  8  1  0  0  0  0
  7  9  1  0  0  0  0
  9 10  1  0  0  0  0
  9 11  1  0  0  0  0
  9 29  1  0  0  0  0
 11 12  1  0  0  0  0
 11 13  1  0  0  0  0
 11 14  1  0  0  0  0
 14 15  1  0  0  0  0
 14 16  1  0  0  0  0
 14 17  1  0  0  0  0
 17 18  1  0  0  0  0
 17 19  1  0  0  0  0
 17 20  1  0  0  0  0
 20 21  1  0  0  0  0
 20 22  2  0  0  0  0
 22 23  1  0  0  0  0
 22 26  1  0  0  0  0
 23 24  1  0  0  0  0
 23 25  1  0  0  0  0
 26 27  1  0  0  0  0
 26 28  1  0  0  0  0
 29 30  2  0  0  0  0
 29 31  1  0  0  0  0
 31 32  1  0  0  0  0
 31 33  1  0  0  0  0
 33 34  1  0  0  0  0
 33 35  1  0  0  0  0
 33 36  1  0  0  0  0
M  CHG  1  20   1
M  END
$$$$

  -OEChem-02172215453D

 36 35  0     1  0  0  0  0  0999 V2000
   -4.0308   -1.9914    1.4789 H   0  0  0  0  0  0  0  0  0  0  0  0
   -4.0521   -0.9989    1.0198 C   0  0  0  0  0  0  0  0  0  0  0  0
   -4.6376   -0.3322    1.6576 H   0  0  0  0  0  0  0  0  0  0  0  0
   -4.5342   -1.0740    0.0423 H   0  0  0  0  0  0  0  0  0  0  0  0
   -2.6412   -0.4635    0.8657 C   0  0  0  0  0  0  0  0  0  0  0  0
   -1.6946   -1.1454    1.2262 O   0  0  0  0  0  0  0  0  0  0  0  0
   -2.4457    0.7980    0.3312 N   0  0  0  0  0  0  0  0  0  0  0  0
   -3.2904    1.3535    0.2275 H   0  0  0  0  0  0  0  0  0  0  0  0
   -1.1526    1.5175    0.3449 C   0  0  1  0  0  0  0  0  0  0  0  0
   -0.6002    1.2422    1.2515 H   0  0  0  0  0  0  0  0  0  0  0  0
   -0.2725    1.2103   -0.8916 C   0  0  0  0  0  0  0  0  0  0  0  0
   -0.8437    1.4292   -1.8002 H   0  0  0  0  0  0  0  0  0  0  0  0
    0.5975    1.8774   -0.8793 H   0  0  0  0  0  0  0  0  0  0  0  0
    0.2333   -0.2355   -0.9449 C   0  0  0  0  0  0  0  0  0  0  0  0
    0.8017   -0.4590   -0.0349 H   0  0  0  0  0  0  0  0  0  0  0  0
   -0.6184   -0.9184   -0.9964 H   0  0  0  0  0  0  0  0  0  0  0  0
    1.0938   -0.4677   -2.1816 C   0  0  0  0  0  0  0  0  0  0  0  0
    0.5074   -0.2417   -3.0787 H   0  0  0  0  0  0  0  0  0  0  0  0
    1.9612    0.2013   -2.1506 H   0  0  0  0  0  0  0  0  0  0  0  0
    1.5304   -1.8755   -2.1913 N   0  3  0  0  0  0  0  0  0  0  0  0
    1.2489   -2.4471   -1.3946 H   0  0  0  0  0  0  0  0  0  0  0  0
    2.2342   -2.4131   -3.1441 C   0  0  0  0  0  0  0  0  0  0  0  0
    2.6363   -1.6910   -4.2443 N   0  0  0  0  0  0  0  0  0  0  0  0
    2.2474   -0.7592   -4.3724 H   0  0  0  0  0  0  0  0  0  0  0  0
    2.9750   -2.1906   -5.0640 H   0  0  0  0  0  0  0  0  0  0  0  0
    2.5924   -3.7369   -3.0553 N   0  0  0  0  0  0  0  0  0  0  0  0
    2.4592   -4.2171   -2.1671 H   0  0  0  0  0  0  0  0  0  0  0  0
    3.3184   -4.0844   -3.6793 H   0  0  0  0  0  0  0  0  0  0  0  0
   -1.3445    3.0485    0.3964 C   0  0  0  0  0  0  0  0  0  0  0  0
   -0.4811    3.7403    0.9137 O   0  0  0  0  0  0  0  0  0  0  0  0
   -2.4540    3.6580   -0.1668 N   0  0  0  0  0  0  0  0  0  0  0  0
   -3.0664    3.0877   -0.7398 H   0  0  0  0  0  0  0  0  0  0  0  0
   -2.6445    5.1057   -0.1705 C   0  0  0  0  0  0  0  0  0  0  0  0
   -1.8559    5.5962   -0.7510 H   0  0  0  0  0  0  0  0  0  0  0  0
   -3.6119    5.3616   -0.6138 H   0  0  0  0  0  0  0  0  0  0  0  0
   -2.6223    5.4985    0.8520 H   0  0  0  0  0  0  0  0  0  0  0  0
  1  2  1  0  0  0  0
  2  3  1  0  0  0  0
  2  4  1  0  0  0  0
  2  5  1  0  0  0  0
  5  6  2  0  0  0  0
  5  7  1  0  0  0  0
  7  8  1  0  0  0  0
  7  9  1  0  0  0  0
  9 10  1  0  0  0  0
  9 11  1  0  0  0  0
  9 29  1  0  0  0  0
 11 12  1  0  0  0  0
 11 13  1  0  0  0  0
 11 14  1  0  0  0  0
 14 15  1  0  0  0  0
 14 16  1  0  0  0  0
 14 17  1  0  0  0  0
 17 18  1  0  0  0  0
 17 19  1  0  0  0  0
 17 20  1  0  0  0  0
 20 21  1  0  0  0  0
 20 22  2  0  0  0  0
 22 23  1  0  0  0  0
 22 26  1  0  0  0  0
 23 24  1  0  0  0  0
 23 25  1  0  0  0  0
 26 27  1  0  0  0  0
 26 28  1  0  0  0  0
 29 30  2  0  0  0  0
 29 31  1  0  0  0  0
 31 32  1  0  0  0  0
 31 33  1  0  0  0  0
 33 34  1  0  0  0  0
 33 35  1  0  0  0  0
 33 36  1  0  0  0  0
M  CHG  1  20   1
M  END
$$$$

  -OEChem-02172215453D

 36 35  0     1  0  0  0  0  0999 V2000
   -3.9216   -2.0911    1.3193 H   0  0  0  0  0  0  0  0  0  0  0  0
   -3.9643   -1.1020    0.8540 C   0  0  0  0  0  0  0  0  0  0  0  0
   -4.6935   -0.4939    1.3951 H   0  0  0  0  0  0  0  0  0  0  0  0
   -4.2901   -1.2148   -0.1825 H   0  0  0  0  0  0  0  0  0  0  0  0
   -2.5996   -0.4416    0.9054 C   0  0  0  0  0  0  0  0  0  0  0  0
   -1.6575   -1.0361    1.4046 O   0  0  0  0  0  0  0  0  0  0  0  0
   -2.4279    0.8217    0.3687 N   0  0  0  0  0  0  0  0  0  0  0  0
   -3.2244    1.2103   -0.1268 H   0  0  0  0  0  0  0  0  0  0  0  0
   -1.1487    1.5656    0.3398 C   0  0  1  0  0  0  0  0  0  0  0  0
   -0.5725    1.3065    1.2358 H   0  0  0  0  0  0  0  0  0  0  0  0
   -0.2981    1.2232   -0.9088 C   0  0  0  0  0  0  0  0  0  0  0  0
   -0.8967    1.4058   -1.8073 H   0  0  0  0  0  0  0  0  0  0  0  0
    0.5674    1.8942   -0.9490 H   0  0  0  0  0  0  0  0  0  0  0  0
    0.2224   -0.2187   -0.9198 C   0  0  0  0  0  0  0  0  0  0  0  0
    0.8232   -0.3963   -0.0205 H   0  0  0  0  0  0  0  0  0  0  0  0
   -0.6187   -0.9163   -0.9144 H   0  0  0  0  0  0  0  0  0  0  0  0
    1.0514   -0.4806   -2.1728 C   0  0  0  0  0  0  0  0  0  0  0  0
    0.4363   -0.2912   -3.0591 H   0  0  0  0  0  0  0  0  0  0  0  0
    1.9087    0.2019   -2.1892 H   0  0  0  0  0  0  0  0  0  0  0  0
    1.5111   -1.8809   -2.1542 N   0  3  0  0  0  0  0  0  0  0  0  0
    1.2673   -2.4323   -1.3315 H   0  0  0  0  0  0  0  0  0  0  0  0
    2.1957   -2.4342   -3.1122 C   0  0  0  0  0  0  0  0  0  0  0  0
    2.5524   -1.7376   -4.2440 N   0  0  0  0  0  0  0  0  0  0  0  0
    2.1486   -0.8141   -4.3870 H   0  0  0  0  0  0  0  0  0  0  0  0
    2.8849   -2.2525   -5.0568 H   0  0  0  0  0  0  0  0  0  0  0  0
    2.5805   -3.7485   -2.9968 N   0  0  0  0  0  0  0  0  0  0  0  0
    2.4875   -4.2049   -2.0911 H   0  0  0  0  0  0  0  0  0  0  0  0
    3.2872   -4.1040   -3.6380 H   0  0  0  0  0  0  0  0  0  0  0  0
   -1.3373    3.1006    0.3966 C   0  0  0  0  0  0  0  0  0  0  0  0
   -0.3536    3.8142    0.5311 O   0  0  0  0  0  0  0  0  0  0  0  0
   -2.5655    3.6977    0.1634 N   0  0  0  0  0  0  0  0  0  0  0  0
   -3.3863    3.1053    0.2059 H   0  0  0  0  0  0  0  0  0  0  0  0
   -2.7580    5.1445    0.2133 C   0  0  0  0  0  0  0  0  0  0  0  0
   -2.1206    5.6431   -0.5249 H   0  0  0  0  0  0  0  0  0  0  0  0
   -3.7998    5.3973   -0.0070 H   0  0  0  0  0  0  0  0  0  0  0  0
   -2.5105    5.5307    1.2080 H   0  0  0  0  0  0  0  0  0  0  0  0
  1  2  1  0  0  0  0
  2  3  1  0  0  0  0
  2  4  1  0  0  0  0
  2  5  1  0  0  0  0
  5  6  2  0  0  0  0
  5  7  1  0  0  0  0
  7  8  1  0  0  0  0
  7  9  1  0  0  0  0
  9 10  1  0  0  0  0
  9 11  1  0  0  0  0
  9 29  1  0  0  0  0
 11 12  1  0  0  0  0
 11 13  1  0  0  0  0
 11 14  1  0  0  0  0
 14 15  1  0  0  0  0
 14 16  1  0  0  0  0
 14 17  1  0  0  0  0
 17 18  1  0  0  0  0
 17 19  1  0  0  0  0
 17 20  1  0  0  0  0
 20 21  1  0  0  0  0
 20 22  2  0  0  0  0
 22 23  1  0  0  0  0
 22 26  1  0  0  0  0
 23 24  1  0  0  0  0
 23 25  1  0  0  0  0
 26 27  1  0  0  0  0
 26 28  1  0  0  0  0
 29 30  2  0  0  0  0
 29 31  1  0  0  0  0
 31 32  1  0  0  0  0
 31 33  1  0  0  0  0
 33 34  1  0  0  0  0
 33 35  1  0  0  0  0
 33 36  1  0  0  0  0
M  CHG  1  20   1
M  END
$$$$

  -OEChem-02172215453D

 36 35  0     1  0  0  0  0  0999 V2000
   -3.9153   -2.0850    1.2742 H   0  0  0  0  0  0  0  0  0  0  0  0
   -3.9531   -1.0923    0.8166 C   0  0  0  0  0  0  0  0  0  0  0  0
   -4.6980   -0.4925    1.3456 H   0  0  0  0  0  0  0  0  0  0  0  0
   -4.2543   -1.1975   -0.2284 H   0  0  0  0  0  0  0  0  0  0  0  0
   -2.5939   -0.4250    0.9047 C   0  0  0  0  0  0  0  0  0  0  0  0
   -1.6611   -1.0151    1.4259 O   0  0  0  0  0  0  0  0  0  0  0  0
   -2.4135    0.8390    0.3732 N   0  0  0  0  0  0  0  0  0  0  0  0
   -3.1956    1.2256   -0.1489 H   0  0  0  0  0  0  0  0  0  0  0  0
   -1.1310    1.5771    0.3504 C   0  0  1  0  0  0  0  0  0  0  0  0
   -0.5567    1.3186    1.2475 H   0  0  0  0  0  0  0  0  0  0  0  0
   -0.2833    1.2235   -0.8988 C   0  0  0  0  0  0  0  0  0  0  0  0
   -0.8812    1.4096   -1.7972 H   0  0  0  0  0  0  0  0  0  0  0  0
    0.5901    1.8838   -0.9430 H   0  0  0  0  0  0  0  0  0  0  0  0
    0.2263   -0.2223   -0.9080 C   0  0  0  0  0  0  0  0  0  0  0  0
    0.8270   -0.4045   -0.0096 H   0  0  0  0  0  0  0  0  0  0  0  0
   -0.6197   -0.9141   -0.9016 H   0  0  0  0  0  0  0  0  0  0  0  0
    1.0508   -0.4866   -2.1633 C   0  0  0  0  0  0  0  0  0  0  0  0
    0.4338   -0.2917   -3.0471 H   0  0  0  0  0  0  0  0  0  0  0  0
    1.9111    0.1923   -2.1802 H   0  0  0  0  0  0  0  0  0  0  0  0
    1.5047   -1.8888   -2.1516 N   0  3  0  0  0  0  0  0  0  0  0  0
    1.2630   -2.4429   -1.3301 H   0  0  0  0  0  0  0  0  0  0  0  0
    2.1841   -2.4387   -3.1155 C   0  0  0  0  0  0  0  0  0  0  0  0
    2.5390   -1.7367   -4.2449 N   0  0  0  0  0  0  0  0  0  0  0  0
    2.1333   -0.8133   -4.3824 H   0  0  0  0  0  0  0  0  0  0  0  0
    2.8614   -2.2498   -5.0628 H   0  0  0  0  0  0  0  0  0  0  0  0
    2.5684   -3.7539   -3.0080 N   0  0  0  0  0  0  0  0  0  0  0  0
    2.4732   -4.2162   -2.1057 H   0  0  0  0  0  0  0  0  0  0  0  0
    3.2771   -4.1046   -3.6496 H   0  0  0  0  0  0  0  0  0  0  0  0
   -1.3363    3.1116    0.4125 C   0  0  0  0  0  0  0  0  0  0  0  0
   -0.3750    3.8593    0.3003 O   0  0  0  0  0  0  0  0  0  0  0  0
   -2.6041    3.6653    0.4823 N   0  0  0  0  0  0  0  0  0  0  0  0
   -3.3554    3.0473    0.7703 H   0  0  0  0  0  0  0  0  0  0  0  0
   -2.8290    5.1060    0.5630 C   0  0  0  0  0  0  0  0  0  0  0  0
   -2.4114    5.6102   -0.3154 H   0  0  0  0  0  0  0  0  0  0  0  0
   -3.9010    5.3224    0.6044 H   0  0  0  0  0  0  0  0  0  0  0  0
   -2.3571    5.5190    1.4612 H   0  0  0  0  0  0  0  0  0  0  0  0
  1  2  1  0  0  0  0
  2  3  1  0  0  0  0
  2  4  1  0  0  0  0
  2  5  1  0  0  0  0
  5  6  2  0  0  0  0
  5  7  1  0  0  0  0
  7  8  1  0  0  0  0
  7  9  1  0  0  0  0
  9 10  1  0  0  0  0
  9 11  1  0  0  0  0
  9 29  1  0  0  0  0
 11 12  1  0  0  0  0
 11 13  1  0  0  0  0
 11 14  1  0  0  0  0
 14 15  1  0  0  0  0
 14 16  1  0  0  0  0
 14 17  1  0  0  0  0
 17 18  1  0  0  0  0
 17 19  1  0  0  0  0
 17 20  1  0  0  0  0
 20 21  1  0  0  0  0
 20 22  2  0  0  0  0
 22 23  1  0  0  0  0
 22 26  1  0  0  0  0
 23 24  1  0  0  0  0
 23 25  1  0  0  0  0
 26 27  1  0  0  0  0
 26 28  1  0  0  0  0
 29 30  2  0  0  0  0
 29 31  1  0  0  0  0
 31 32  1  0  0  0  0
 31 33  1  0  0  0  0
 33 34  1  0  0  0  0
 33 35  1  0  0  0  0
 33 36  1  0  0  0  0
M  CHG  1  20   1
M  END
$$$$

  -OEChem-02172215453D

 36 35  0     1  0  0  0  0  0999 V2000
   -3.9384   -2.0515    1.2626 H   0  0  0  0  0  0  0  0  0  0  0  0
   -3.9628   -1.0561    0.8101 C   0  0  0  0  0  0  0  0  0  0  0  0
   -4.6991   -0.4489    1.3424 H   0  0  0  0  0  0  0  0  0  0  0  0
   -4.2663   -1.1522   -0.2350 H   0  0  0  0  0  0  0  0  0  0  0  0
   -2.5945   -0.4076    0.8989 C   0  0  0  0  0  0  0  0  0  0  0  0
   -1.6692   -1.0085    1.4215 O   0  0  0  0  0  0  0  0  0  0  0  0
   -2.3987    0.8557    0.3723 N   0  0  0  0  0  0  0  0  0  0  0  0
   -3.1848    1.2682   -0.1252 H   0  0  0  0  0  0  0  0  0  0  0  0
   -1.1114    1.5843    0.3537 C   0  0  1  0  0  0  0  0  0  0  0  0
   -0.5402    1.3258    1.2524 H   0  0  0  0  0  0  0  0  0  0  0  0
   -0.2633    1.2212   -0.8934 C   0  0  0  0  0  0  0  0  0  0  0  0
   -0.8561    1.4133   -1.7940 H   0  0  0  0  0  0  0  0  0  0  0  0
    0.6175    1.8716   -0.9343 H   0  0  0  0  0  0  0  0  0  0  0  0
    0.2357   -0.2282   -0.9020 C   0  0  0  0  0  0  0  0  0  0  0  0
    0.8340   -0.4165   -0.0033 H   0  0  0  0  0  0  0  0  0  0  0  0
   -0.6149   -0.9143   -0.8988 H   0  0  0  0  0  0  0  0  0  0  0  0
    1.0593   -0.4928   -2.1577 C   0  0  0  0  0  0  0  0  0  0  0  0
    0.4435   -0.2913   -3.0408 H   0  0  0  0  0  0  0  0  0  0  0  0
    1.9228    0.1819   -2.1717 H   0  0  0  0  0  0  0  0  0  0  0  0
    1.5069   -1.8967   -2.1536 N   0  3  0  0  0  0  0  0  0  0  0  0
    1.2623   -2.4545   -1.3357 H   0  0  0  0  0  0  0  0  0  0  0  0
    2.1836   -2.4433   -3.1212 C   0  0  0  0  0  0  0  0  0  0  0  0
    2.5407   -1.7352   -4.2462 N   0  0  0  0  0  0  0  0  0  0  0  0
    2.1382   -0.8094   -4.3771 H   0  0  0  0  0  0  0  0  0  0  0  0
    2.8603   -2.2435   -5.0681 H   0  0  0  0  0  0  0  0  0  0  0  0
    2.5605   -3.7613   -3.0233 N   0  0  0  0  0  0  0  0  0  0  0  0
    2.4589   -4.2315   -2.1257 H   0  0  0  0  0  0  0  0  0  0  0  0
    3.2668   -4.1121   -3.6675 H   0  0  0  0  0  0  0  0  0  0  0  0
   -1.3336    3.1176    0.4197 C   0  0  0  0  0  0  0  0  0  0  0  0
   -0.4532    3.8927    0.0722 O   0  0  0  0  0  0  0  0  0  0  0  0
   -2.5626    3.6341    0.7944 N   0  0  0  0  0  0  0  0  0  0  0  0
   -3.2082    2.9907    1.2424 H   0  0  0  0  0  0  0  0  0  0  0  0
   -2.8142    5.0670    0.9181 C   0  0  0  0  0  0  0  0  0  0  0  0
   -2.6534    5.5694   -0.0418 H   0  0  0  0  0  0  0  0  0  0  0  0
   -3.8479    5.2460    1.2300 H   0  0  0  0  0  0  0  0  0  0  0  0
   -2.1456    5.5115    1.6631 H   0  0  0  0  0  0  0  0  0  0  0  0
  1  2  1  0  0  0  0
  2  3  1  0  0  0  0
  2  4  1  0  0  0  0
  2  5  1  0  0  0  0
  5  6  2  0  0  0  0
  5  7  1  0  0  0  0
  7  8  1  0  0  0  0
  7  9  1  0  0  0  0
  9 10  1  0  0  0  0
  9 11  1  0  0  0  0
  9 29  1  0  0  0  0
 11 12  1  0  0  0  0
 11 13  1  0  0  0  0
 11 14  1  0  0  0  0
 14 15  1  0  0  0  0
 14 16  1  0  0  0  0
 14 17  1  0  0  0  0
 17 18  1  0  0  0  0
 17 19  1  0  0  0  0
 17 20  1  0  0  0  0
 20 21  1  0  0  0  0
 20 22  2  0  0  0  0
 22 23  1  0  0  0  0
 22 26  1  0  0  0  0
 23 24  1  0  0  0  0
 23 25  1  0  0  0  0
 26 27  1  0  0  0  0
 26 28  1  0  0  0  0
 29 30  2  0  0  0  0
 29 31  1  0  0  0  0
 31 32  1  0  0  0  0
 31 33  1  0  0  0  0
 33 34  1  0  0  0  0
 33 35  1  0  0  0  0
 33 36  1  0  0  0  0
M  CHG  1  20   1
M  END
$$$$

  -OEChem-02172215453D

 36 35  0     1  0  0  0  0  0999 V2000
   -3.9644   -2.0156    1.2680 H   0  0  0  0  0  0  0  0  0  0  0  0
   -3.9760   -1.0197    0.8152 C   0  0  0  0  0  0  0  0  0  0  0  0
   -4.6983   -0.3998    1.3519 H   0  0  0  0  0  0  0  0  0  0  0  0
   -4.2892   -1.1104   -0.2275 H   0  0  0  0  0  0  0  0  0  0  0  0
   -2.5964   -0.3941    0.8931 C   0  0  0  0  0  0  0  0  0  0  0  0
   -1.6764   -1.0097    1.4079 O   0  0  0  0  0  0  0  0  0  0  0  0
   -2.3849    0.8694    0.3743 N   0  0  0  0  0  0  0  0  0  0  0  0
   -3.1773    1.3137   -0.0856 H   0  0  0  0  0  0  0  0  0  0  0  0
   -1.0919    1.5863    0.3613 C   0  0  1  0  0  0  0  0  0  0  0  0
   -0.5225    1.3225    1.2596 H   0  0  0  0  0  0  0  0  0  0  0  0
   -0.2426    1.2215   -0.8851 C   0  0  0  0  0  0  0  0  0  0  0  0
   -0.8303    1.4233   -1.7870 H   0  0  0  0  0  0  0  0  0  0  0  0
    0.6430    1.8657   -0.9178 H   0  0  0  0  0  0  0  0  0  0  0  0
    0.2456   -0.2312   -0.9010 C   0  0  0  0  0  0  0  0  0  0  0  0
    0.8401   -0.4303   -0.0022 H   0  0  0  0  0  0  0  0  0  0  0  0
   -0.6105   -0.9106   -0.9050 H   0  0  0  0  0  0  0  0  0  0  0  0
    1.0703   -0.4931   -2.1566 C   0  0  0  0  0  0  0  0  0  0  0  0
    0.4572   -0.2820   -3.0395 H   0  0  0  0  0  0  0  0  0  0  0  0
    1.9381    0.1761   -2.1656 H   0  0  0  0  0  0  0  0  0  0  0  0
    1.5074   -1.9003   -2.1596 N   0  3  0  0  0  0  0  0  0  0  0  0
    1.2531   -2.4619   -1.3471 H   0  0  0  0  0  0  0  0  0  0  0  0
    2.1825   -2.4464   -3.1285 C   0  0  0  0  0  0  0  0  0  0  0  0
    2.5478   -1.7348   -4.2487 N   0  0  0  0  0  0  0  0  0  0  0  0
    2.1515   -0.8057   -4.3763 H   0  0  0  0  0  0  0  0  0  0  0  0
    2.8662   -2.2412   -5.0723 H   0  0  0  0  0  0  0  0  0  0  0  0
    2.5486   -3.7678   -3.0361 N   0  0  0  0  0  0  0  0  0  0  0  0
    2.4417   -4.2408   -2.1406 H   0  0  0  0  0  0  0  0  0  0  0  0
    3.2560   -4.1199   -3.6784 H   0  0  0  0  0  0  0  0  0  0  0  0
   -1.3256    3.1176    0.4355 C   0  0  0  0  0  0  0  0  0  0  0  0
   -0.5823    3.9043   -0.1351 O   0  0  0  0  0  0  0  0  0  0  0  0
   -2.4356    3.6140    1.0970 N   0  0  0  0  0  0  0  0  0  0  0  0
   -2.9636    2.9578    1.6658 H   0  0  0  0  0  0  0  0  0  0  0  0
   -2.7078    5.0414    1.2390 C   0  0  0  0  0  0  0  0  0  0  0  0
   -2.8272    5.5087    0.2556 H   0  0  0  0  0  0  0  0  0  0  0  0
   -3.6296    5.1980    1.8077 H   0  0  0  0  0  0  0  0  0  0  0  0
   -1.8872    5.5391    1.7670 H   0  0  0  0  0  0  0  0  0  0  0  0
  1  2  1  0  0  0  0
  2  3  1  0  0  0  0
  2  4  1  0  0  0  0
  2  5  1  0  0  0  0
  5  6  2  0  0  0  0
  5  7  1  0  0  0  0
  7  8  1  0  0  0  0
  7  9  1  0  0  0  0
  9 10  1  0  0  0  0
  9 11  1  0  0  0  0
  9 29  1  0  0  0  0
 11 12  1  0  0  0  0
 11 13  1  0  0  0  0
 11 14  1  0  0  0  0
 14 15  1  0  0  0  0
 14 16  1  0  0  0  0
 14 17  1  0  0  0  0
 17 18  1  0  0  0  0
 17 19  1  0  0  0  0
 17 20  1  0  0  0  0
 20 21  1  0  0  0  0
 20 22  2  0  0  0  0
 22 23  1  0  0  0  0
 22 26  1  0  0  0  0
 23 24  1  0  0  0  0
 23 25  1  0  0  0  0
 26 27  1  0  0  0  0
 26 28  1  0  0  0  0
 29 30  2  0  0  0  0
 29 31  1  0  0  0  0
 31 32  1  0  0  0  0
 31 33  1  0  0  0  0
 33 34  1  0  0  0  0
 33 35  1  0  0  0  0
 33 36  1  0  0  0  0
M  CHG  1  20   1
M  END
$$$$

  -OEChem-02172215453D

 36 35  0     1  0  0  0  0  0999 V2000
   -3.9812   -1.9824    1.2776 H   0  0  0  0  0  0  0  0  0  0  0  0
   -3.9833   -0.9870    0.8243 C   0  0  0  0  0  0  0  0  0  0  0  0
   -4.6952   -0.3582    1.3647 H   0  0  0  0  0  0  0  0  0  0  0  0
   -4.3025   -1.0751   -0.2169 H   0  0  0  0  0  0  0  0  0  0  0  0
   -2.5961   -0.3782    0.8936 C   0  0  0  0  0  0  0  0  0  0  0  0
   -1.6795   -1.0051    1.4013 O   0  0  0  0  0  0  0  0  0  0  0  0
   -2.3733    0.8839    0.3773 N   0  0  0  0  0  0  0  0  0  0  0  0
   -3.1701    1.3522   -0.0505 H   0  0  0  0  0  0  0  0  0  0  0  0
   -1.0755    1.5887    0.3678 C   0  0  1  0  0  0  0  0  0  0  0  0
   -0.5080    1.3212    1.2660 H   0  0  0  0  0  0  0  0  0  0  0  0
   -0.2253    1.2227   -0.8768 C   0  0  0  0  0  0  0  0  0  0  0  0
   -0.8093    1.4314   -1.7797 H   0  0  0  0  0  0  0  0  0  0  0  0
    0.6628    1.8643   -0.9015 H   0  0  0  0  0  0  0  0  0  0  0  0
    0.2524   -0.2337   -0.8978 C   0  0  0  0  0  0  0  0  0  0  0  0
    0.8413   -0.4421    0.0026 H   0  0  0  0  0  0  0  0  0  0  0  0
   -0.6093   -0.9060   -0.9084 H   0  0  0  0  0  0  0  0  0  0  0  0
    1.0792   -0.4968   -2.1520 C   0  0  0  0  0  0  0  0  0  0  0  0
    0.4707   -0.2762   -3.0358 H   0  0  0  0  0  0  0  0  0  0  0  0
    1.9523    0.1655   -2.1542 H   0  0  0  0  0  0  0  0  0  0  0  0
    1.5077   -1.9068   -2.1632 N   0  3  0  0  0  0  0  0  0  0  0  0
    1.2448   -2.4738   -1.3572 H   0  0  0  0  0  0  0  0  0  0  0  0
    2.1818   -2.4500   -3.1344 C   0  0  0  0  0  0  0  0  0  0  0  0
    2.5537   -1.7325   -4.2485 N   0  0  0  0  0  0  0  0  0  0  0  0
    2.1637   -0.7998   -4.3695 H   0  0  0  0  0  0  0  0  0  0  0  0
    2.8680   -2.2352   -5.0759 H   0  0  0  0  0  0  0  0  0  0  0  0
    2.5399   -3.7744   -3.0520 N   0  0  0  0  0  0  0  0  0  0  0  0
    2.4332   -4.2530   -2.1594 H   0  0  0  0  0  0  0  0  0  0  0  0
    3.2414   -4.1275   -3.7002 H   0  0  0  0  0  0  0  0  0  0  0  0
   -1.3158    3.1174    0.4443 C   0  0  0  0  0  0  0  0  0  0  0  0
   -0.7613    3.8958   -0.3201 O   0  0  0  0  0  0  0  0  0  0  0  0
   -2.2355    3.6135    1.3510 N   0  0  0  0  0  0  0  0  0  0  0  0
   -2.6301    2.9567    2.0192 H   0  0  0  0  0  0  0  0  0  0  0  0
   -2.5195    5.0362    1.5111 C   0  0  0  0  0  0  0  0  0  0  0  0
   -2.9093    5.4575    0.5783 H   0  0  0  0  0  0  0  0  0  0  0  0
   -3.2671    5.1880    2.2960 H   0  0  0  0  0  0  0  0  0  0  0  0
   -1.6108    5.5806    1.7897 H   0  0  0  0  0  0  0  0  0  0  0  0
  1  2  1  0  0  0  0
  2  3  1  0  0  0  0
  2  4  1  0  0  0  0
  2  5  1  0  0  0  0
  5  6  2  0  0  0  0
  5  7  1  0  0  0  0
  7  8  1  0  0  0  0
  7  9  1  0  0  0  0
  9 10  1  0  0  0  0
  9 11  1  0  0  0  0
  9 29  1  0  0  0  0
 11 12  1  0  0  0  0
 11 13  1  0  0  0  0
 11 14  1  0  0  0  0
 14 15  1  0  0  0  0
 14 16  1  0  0  0  0
 14 17  1  0  0  0  0
 17 18  1  0  0  0  0
 17 19  1  0  0  0  0
 17 20  1  0  0  0  0
 20 21  1  0  0  0  0
 20 22  2  0  0  0  0
 22 23  1  0  0  0  0
 22 26  1  0  0  0  0
 23 24  1  0  0  0  0
 23 25  1  0  0  0  0
 26 27  1  0  0  0  0
 26 28  1  0  0  0  0
 29 30  2  0  0  0  0
 29 31  1  0  0  0  0
 31 32  1  0  0  0  0
 31 33  1  0  0  0  0
 33 34  1  0  0  0  0
 33 35  1  0  0  0  0
 33 36  1  0  0  0  0
M  CHG  1  20   1
M  END
$$$$

  -OEChem-02172215453D

 36 35  0     1  0  0  0  0  0999 V2000
   -3.9870   -1.9633    1.2778 H   0  0  0  0  0  0  0  0  0  0  0  0
   -3.9809   -0.9679    0.8250 C   0  0  0  0  0  0  0  0  0  0  0  0
   -4.6878   -0.3331    1.3649 H   0  0  0  0  0  0  0  0  0  0  0  0
   -4.3003   -1.0526   -0.2165 H   0  0  0  0  0  0  0  0  0  0  0  0
   -2.5890   -0.3702    0.8963 C   0  0  0  0  0  0  0  0  0  0  0  0
   -1.6768   -1.0038    1.4042 O   0  0  0  0  0  0  0  0  0  0  0  0
   -2.3567    0.8914    0.3842 N   0  0  0  0  0  0  0  0  0  0  0  0
   -3.1511    1.3697   -0.0374 H   0  0  0  0  0  0  0  0  0  0  0  0
   -1.0566    1.5886    0.3824 C   0  0  1  0  0  0  0  0  0  0  0  0
   -0.4899    1.3152    1.2793 H   0  0  0  0  0  0  0  0  0  0  0  0
   -0.2083    1.2269   -0.8639 C   0  0  0  0  0  0  0  0  0  0  0  0
   -0.7918    1.4405   -1.7663 H   0  0  0  0  0  0  0  0  0  0  0  0
    0.6788    1.8702   -0.8844 H   0  0  0  0  0  0  0  0  0  0  0  0
    0.2609   -0.2324   -0.8947 C   0  0  0  0  0  0  0  0  0  0  0  0
    0.8500   -0.4489    0.0035 H   0  0  0  0  0  0  0  0  0  0  0  0
   -0.6043   -0.9002   -0.9076 H   0  0  0  0  0  0  0  0  0  0  0  0
    1.0866   -0.4933   -2.1499 C   0  0  0  0  0  0  0  0  0  0  0  0
    0.4800   -0.2640   -3.0327 H   0  0  0  0  0  0  0  0  0  0  0  0
    1.9639    0.1632   -2.1484 H   0  0  0  0  0  0  0  0  0  0  0  0
    1.5040   -1.9066   -2.1664 N   0  3  0  0  0  0  0  0  0  0  0  0
    1.2320   -2.4756   -1.3649 H   0  0  0  0  0  0  0  0  0  0  0  0
    2.1749   -2.4517   -3.1389 C   0  0  0  0  0  0  0  0  0  0  0  0
    2.5539   -1.7327   -4.2496 N   0  0  0  0  0  0  0  0  0  0  0  0
    2.1656   -0.7992   -4.3697 H   0  0  0  0  0  0  0  0  0  0  0  0
    2.8633   -2.2357   -5.0786 H   0  0  0  0  0  0  0  0  0  0  0  0
    2.5201   -3.7800   -3.0621 N   0  0  0  0  0  0  0  0  0  0  0  0
    2.4058   -4.2619   -2.1723 H   0  0  0  0  0  0  0  0  0  0  0  0
    3.2208   -4.1364   -3.7093 H   0  0  0  0  0  0  0  0  0  0  0  0
   -1.2977    3.1151    0.4613 C   0  0  0  0  0  0  0  0  0  0  0  0
   -0.9631    3.8662   -0.4454 O   0  0  0  0  0  0  0  0  0  0  0  0
   -1.9707    3.6353    1.5516 N   0  0  0  0  0  0  0  0  0  0  0  0
   -2.2309    2.9907    2.2936 H   0  0  0  0  0  0  0  0  0  0  0  0
   -2.2682    5.0549    1.7130 C   0  0  0  0  0  0  0  0  0  0  0  0
   -2.9126    5.4068    0.9004 H   0  0  0  0  0  0  0  0  0  0  0  0
   -2.7843    5.2293    2.6622 H   0  0  0  0  0  0  0  0  0  0  0  0
   -1.3449    5.6440    1.7096 H   0  0  0  0  0  0  0  0  0  0  0  0
  1  2  1  0  0  0  0
  2  3  1  0  0  0  0
  2  4  1  0  0  0  0
  2  5  1  0  0  0  0
  5  6  2  0  0  0  0
  5  7  1  0  0  0  0
  7  8  1  0  0  0  0
  7  9  1  0  0  0  0
  9 10  1  0  0  0  0
  9 11  1  0  0  0  0
  9 29  1  0  0  0  0
 11 12  1  0  0  0  0
 11 13  1  0  0  0  0
 11 14  1  0  0  0  0
 14 15  1  0  0  0  0
 14 16  1  0  0  0  0
 14 17  1  0  0  0  0
 17 18  1  0  0  0  0
 17 19  1  0  0  0  0
 17 20  1  0  0  0  0
 20 21  1  0  0  0  0
 20 22  2  0  0  0  0
 22 23  1  0  0  0  0
 22 26  1  0  0  0  0
 23 24  1  0  0  0  0
 23 25  1  0  0  0  0
 26 27  1  0  0  0  0
 26 28  1  0  0  0  0
 29 30  2  0  0  0  0
 29 31  1  0  0  0  0
 31 32  1  0  0  0  0
 31 33  1  0  0  0  0
 33 34  1  0  0  0  0
 33 35  1  0  0  0  0
 33 36  1  0  0  0  0
M  CHG  1  20   1
M  END
$$$$

  -OEChem-02172215453D

 36 35  0     1  0  0  0  0  0999 V2000
   -3.9960   -1.9527    1.2814 H   0  0  0  0  0  0  0  0  0  0  0  0
   -3.9836   -0.9568    0.8299 C   0  0  0  0  0  0  0  0  0  0  0  0
   -4.6865   -0.3183    1.3706 H   0  0  0  0  0  0  0  0  0  0  0  0
   -4.3037   -1.0378   -0.2115 H   0  0  0  0  0  0  0  0  0  0  0  0
   -2.5884   -0.3672    0.9012 C   0  0  0  0  0  0  0  0  0  0  0  0
   -1.6787   -1.0077    1.4054 O   0  0  0  0  0  0  0  0  0  0  0  0
   -2.3481    0.8932    0.3903 N   0  0  0  0  0  0  0  0  0  0  0  0
   -3.1398    1.3808   -0.0259 H   0  0  0  0  0  0  0  0  0  0  0  0
   -1.0456    1.5834    0.3942 C   0  0  1  0  0  0  0  0  0  0  0  0
   -0.4808    1.3024    1.2897 H   0  0  0  0  0  0  0  0  0  0  0  0
   -0.1973    1.2284   -0.8529 C   0  0  0  0  0  0  0  0  0  0  0  0
   -0.7806    1.4463   -1.7543 H   0  0  0  0  0  0  0  0  0  0  0  0
    0.6884    1.8736   -0.8699 H   0  0  0  0  0  0  0  0  0  0  0  0
    0.2647   -0.2331   -0.8917 C   0  0  0  0  0  0  0  0  0  0  0  0
    0.8499   -0.4589    0.0068 H   0  0  0  0  0  0  0  0  0  0  0  0
   -0.6047   -0.8953   -0.9106 H   0  0  0  0  0  0  0  0  0  0  0  0
    1.0917   -0.4915   -2.1466 C   0  0  0  0  0  0  0  0  0  0  0  0
    0.4880   -0.2543   -3.0294 H   0  0  0  0  0  0  0  0  0  0  0  0
    1.9725    0.1606   -2.1403 H   0  0  0  0  0  0  0  0  0  0  0  0
    1.5016   -1.9072   -2.1698 N   0  3  0  0  0  0  0  0  0  0  0  0
    1.2247   -2.4792   -1.3721 H   0  0  0  0  0  0  0  0  0  0  0  0
    2.1717   -2.4509   -3.1437 C   0  0  0  0  0  0  0  0  0  0  0  0
    2.5571   -1.7286   -4.2501 N   0  0  0  0  0  0  0  0  0  0  0  0
    2.1683   -0.7951   -4.3691 H   0  0  0  0  0  0  0  0  0  0  0  0
    2.8665   -2.2298   -5.0803 H   0  0  0  0  0  0  0  0  0  0  0  0
    2.5100   -3.7813   -3.0724 N   0  0  0  0  0  0  0  0  0  0  0  0
    2.3920   -4.2674   -2.1854 H   0  0  0  0  0  0  0  0  0  0  0  0
    3.2076   -4.1392   -3.7221 H   0  0  0  0  0  0  0  0  0  0  0  0
   -1.2792    3.1094    0.4722 C   0  0  0  0  0  0  0  0  0  0  0  0
   -1.1973    3.8158   -0.5241 O   0  0  0  0  0  0  0  0  0  0  0  0
   -1.6638    3.6767    1.6729 N   0  0  0  0  0  0  0  0  0  0  0  0
   -1.7622    3.0604    2.4756 H   0  0  0  0  0  0  0  0  0  0  0  0
   -1.9609    5.0963    1.8338 C   0  0  0  0  0  0  0  0  0  0  0  0
   -2.8067    5.3858    1.2012 H   0  0  0  0  0  0  0  0  0  0  0  0
   -2.2181    5.3147    2.8750 H   0  0  0  0  0  0  0  0  0  0  0  0
   -1.0923    5.7041    1.5591 H   0  0  0  0  0  0  0  0  0  0  0  0
  1  2  1  0  0  0  0
  2  3  1  0  0  0  0
  2  4  1  0  0  0  0
  2  5  1  0  0  0  0
  5  6  2  0  0  0  0
  5  7  1  0  0  0  0
  7  8  1  0  0  0  0
  7  9  1  0  0  0  0
  9 10  1  0  0  0  0
  9 11  1  0  0  0  0
  9 29  1  0  0  0  0
 11 12  1  0  0  0  0
 11 13  1  0  0  0  0
 11 14  1  0  0  0  0
 14 15  1  0  0  0  0
 14 16  1  0  0  0  0
 14 17  1  0  0  0  0
 17 18  1  0  0  0  0
 17 19  1  0  0  0  0
 17 20  1  0  0  0  0
 20 21  1  0  0  0  0
 20 22  2  0  0  0  0
 22 23  1  0  0  0  0
 22 26  1  0  0  0  0
 23 24  1  0  0  0  0
 23 25  1  0  0  0  0
 26 27  1  0  0  0  0
 26 28  1  0  0  0  0
 29 30  2  0  0  0  0
 29 31  1  0  0  0  0
 31 32  1  0  0  0  0
 31 33  1  0  0  0  0
 33 34  1  0  0  0  0
 33 35  1  0  0  0  0
 33 36  1  0  0  0  0
M  CHG  1  20   1
M  END
$$$$

  -OEChem-02172215453D

 36 35  0     1  0  0  0  0  0999 V2000
   -4.0154   -1.9374    1.2975 H   0  0  0  0  0  0  0  0  0  0  0  0
   -3.9949   -0.9417    0.8454 C   0  0  0  0  0  0  0  0  0  0  0  0
   -4.6847   -0.2947    1.3925 H   0  0  0  0  0  0  0  0  0  0  0  0
   -4.3255   -1.0195   -0.1930 H   0  0  0  0  0  0  0  0  0  0  0  0
   -2.5918   -0.3688    0.9040 C   0  0  0  0  0  0  0  0  0  0  0  0
   -1.6848   -1.0212    1.3987 O   0  0  0  0  0  0  0  0  0  0  0  0
   -2.3401    0.8892    0.3928 N   0  0  0  0  0  0  0  0  0  0  0  0
   -3.1287    1.3909   -0.0135 H   0  0  0  0  0  0  0  0  0  0  0  0
   -1.0351    1.5719    0.4066 C   0  0  1  0  0  0  0  0  0  0  0  0
   -0.4754    1.2821    1.3024 H   0  0  0  0  0  0  0  0  0  0  0  0
   -0.1849    1.2265   -0.8402 C   0  0  0  0  0  0  0  0  0  0  0  0
   -0.7642    1.4538   -1.7421 H   0  0  0  0  0  0  0  0  0  0  0  0
    0.7025    1.8694   -0.8484 H   0  0  0  0  0  0  0  0  0  0  0  0
    0.2689   -0.2369   -0.8900 C   0  0  0  0  0  0  0  0  0  0  0  0
    0.8485   -0.4741    0.0091 H   0  0  0  0  0  0  0  0  0  0  0  0
   -0.6048   -0.8934   -0.9178 H   0  0  0  0  0  0  0  0  0  0  0  0
    1.0995   -0.4905   -2.1435 C   0  0  0  0  0  0  0  0  0  0  0  0
    0.5012   -0.2426   -3.0271 H   0  0  0  0  0  0  0  0  0  0  0  0
    1.9846    0.1553   -2.1284 H   0  0  0  0  0  0  0  0  0  0  0  0
    1.5007   -1.9085   -2.1760 N   0  3  0  0  0  0  0  0  0  0  0  0
    1.2143   -2.4858   -1.3855 H   0  0  0  0  0  0  0  0  0  0  0  0
    2.1716   -2.4486   -3.1513 C   0  0  0  0  0  0  0  0  0  0  0  0
    2.5661   -1.7201   -4.2502 N   0  0  0  0  0  0  0  0  0  0  0  0
    2.1860   -0.7822   -4.3620 H   0  0  0  0  0  0  0  0  0  0  0  0
    2.8749   -2.2170   -5.0832 H   0  0  0  0  0  0  0  0  0  0  0  0
    2.5014   -3.7814   -3.0889 N   0  0  0  0  0  0  0  0  0  0  0  0
    2.3770   -4.2735   -2.2060 H   0  0  0  0  0  0  0  0  0  0  0  0
    3.1987   -4.1389   -3.7392 H   0  0  0  0  0  0  0  0  0  0  0  0
   -1.2583    3.0983    0.4792 C   0  0  0  0  0  0  0  0  0  0  0  0
   -1.4436    3.7475   -0.5417 O   0  0  0  0  0  0  0  0  0  0  0  0
   -1.3417    3.7279    1.7074 N   0  0  0  0  0  0  0  0  0  0  0  0
   -1.2519    3.1533    2.5416 H   0  0  0  0  0  0  0  0  0  0  0  0
   -1.6336    5.1498    1.8604 C   0  0  0  0  0  0  0  0  0  0  0  0
   -2.6225    5.3849    1.4526 H   0  0  0  0  0  0  0  0  0  0  0  0
   -1.6213    5.4282    2.9188 H   0  0  0  0  0  0  0  0  0  0  0  0
   -0.8851    5.7542    1.3368 H   0  0  0  0  0  0  0  0  0  0  0  0
  1  2  1  0  0  0  0
  2  3  1  0  0  0  0
  2  4  1  0  0  0  0
  2  5  1  0  0  0  0
  5  6  2  0  0  0  0
  5  7  1  0  0  0  0
  7  8  1  0  0  0  0
  7  9  1  0  0  0  0
  9 10  1  0  0  0  0
  9 11  1  0  0  0  0
  9 29  1  0  0  0  0
 11 12  1  0  0  0  0
 11 13  1  0  0  0  0
 11 14  1  0  0  0  0
 14 15  1  0  0  0  0
 14 16  1  0  0  0  0
 14 17  1  0  0  0  0
 17 18  1  0  0  0  0
 17 19  1  0  0  0  0
 17 20  1  0  0  0  0
 20 21  1  0  0  0  0
 20 22  2  0  0  0  0
 22 23  1  0  0  0  0
 22 26  1  0  0  0  0
 23 24  1  0  0  0  0
 23 25  1  0  0  0  0
 26 27  1  0  0  0  0
 26 28  1  0  0  0  0
 29 30  2  0  0  0  0
 29 31  1  0  0  0  0
 31 32  1  0  0  0  0
 31 33  1  0  0  0  0
 33 34  1  0  0  0  0
 33 35  1  0  0  0  0
 33 36  1  0  0  0  0
M  CHG  1  20   1
M  END
$$$$

  -OEChem-02172215453D

 36 35  0     1  0  0  0  0  0999 V2000
   -4.0292   -1.9189    1.3096 H   0  0  0  0  0  0  0  0  0  0  0  0
   -3.9995   -0.9239    0.8569 C   0  0  0  0  0  0  0  0  0  0  0  0
   -4.6774   -0.2680    1.4086 H   0  0  0  0  0  0  0  0  0  0  0  0
   -4.3386   -0.9976   -0.1791 H   0  0  0  0  0  0  0  0  0  0  0  0
   -2.5893   -0.3681    0.9046 C   0  0  0  0  0  0  0  0  0  0  0  0
   -1.6848   -1.0329    1.3880 O   0  0  0  0  0  0  0  0  0  0  0  0
   -2.3268    0.8866    0.3912 N   0  0  0  0  0  0  0  0  0  0  0  0
   -3.1135    1.4038   -0.0002 H   0  0  0  0  0  0  0  0  0  0  0  0
   -1.0202    1.5648    0.4141 C   0  0  1  0  0  0  0  0  0  0  0  0
   -0.4657    1.2703    1.3115 H   0  0  0  0  0  0  0  0  0  0  0  0
   -0.1698    1.2278   -0.8334 C   0  0  0  0  0  0  0  0  0  0  0  0
   -0.7476    1.4640   -1.7342 H   0  0  0  0  0  0  0  0  0  0  0  0
    0.7198    1.8674   -0.8358 H   0  0  0  0  0  0  0  0  0  0  0  0
    0.2768   -0.2374   -0.8916 C   0  0  0  0  0  0  0  0  0  0  0  0
    0.8533   -0.4826    0.0073 H   0  0  0  0  0  0  0  0  0  0  0  0
   -0.6007   -0.8888   -0.9248 H   0  0  0  0  0  0  0  0  0  0  0  0
    1.1089   -0.4890   -2.1442 C   0  0  0  0  0  0  0  0  0  0  0  0
    0.5137   -0.2339   -3.0278 H   0  0  0  0  0  0  0  0  0  0  0  0
    1.9976    0.1516   -2.1244 H   0  0  0  0  0  0  0  0  0  0  0  0
    1.5012   -1.9093   -2.1813 N   0  3  0  0  0  0  0  0  0  0  0  0
    1.2087   -2.4876   -1.3936 H   0  0  0  0  0  0  0  0  0  0  0  0
    2.1711   -2.4509   -3.1564 C   0  0  0  0  0  0  0  0  0  0  0  0
    2.5738   -1.7218   -4.2520 N   0  0  0  0  0  0  0  0  0  0  0  0
    2.1982   -0.7819   -4.3623 H   0  0  0  0  0  0  0  0  0  0  0  0
    2.8734   -2.2201   -5.0876 H   0  0  0  0  0  0  0  0  0  0  0  0
    2.4897   -3.7866   -3.0985 N   0  0  0  0  0  0  0  0  0  0  0  0
    2.3535   -4.2827   -2.2196 H   0  0  0  0  0  0  0  0  0  0  0  0
    3.1884   -4.1472   -3.7457 H   0  0  0  0  0  0  0  0  0  0  0  0
   -1.2403    3.0907    0.4781 C   0  0  0  0  0  0  0  0  0  0  0  0
   -1.6789    3.6826   -0.4995 O   0  0  0  0  0  0  0  0  0  0  0  0
   -1.0301    3.7828    1.6565 N   0  0  0  0  0  0  0  0  0  0  0  0
   -0.7500    3.2505    2.4761 H   0  0  0  0  0  0  0  0  0  0  0  0
   -1.3168    5.2058    1.8092 C   0  0  0  0  0  0  0  0  0  0  0  0
   -2.3835    5.4012    1.6559 H   0  0  0  0  0  0  0  0  0  0  0  0
   -1.0449    5.5423    2.8146 H   0  0  0  0  0  0  0  0  0  0  0  0
   -0.7444    5.7933    1.0833 H   0  0  0  0  0  0  0  0  0  0  0  0
  1  2  1  0  0  0  0
  2  3  1  0  0  0  0
  2  4  1  0  0  0  0
  2  5  1  0  0  0  0
  5  6  2  0  0  0  0
  5  7  1  0  0  0  0
  7  8  1  0  0  0  0
  7  9  1  0  0  0  0
  9 10  1  0  0  0  0
  9 11  1  0  0  0  0
  9 29  1  0  0  0  0
 11 12  1  0  0  0  0
 11 13  1  0  0  0  0
 11 14  1  0  0  0  0
 14 15  1  0  0  0  0
 14 16  1  0  0  0  0
 14 17  1  0  0  0  0
 17 18  1  0  0  0  0
 17 19  1  0  0  0  0
 17 20  1  0  0  0  0
 20 21  1  0  0  0  0
 20 22  2  0  0  0  0
 22 23  1  0  0  0  0
 22 26  1  0  0  0  0
 23 24  1  0  0  0  0
 23 25  1  0  0  0  0
 26 27  1  0  0  0  0
 26 28  1  0  0  0  0
 29 30  2  0  0  0  0
 29 31  1  0  0  0  0
 31 32  1  0  0  0  0
 31 33  1  0  0  0  0
 33 34  1  0  0  0  0
 33 35  1  0  0  0  0
 33 36  1  0  0  0  0
M  CHG  1  20   1
M  END
$$$$

  -OEChem-02172215453D

 36 35  0     1  0  0  0  0  0999 V2000
   -4.0359   -1.9016    1.3271 H   0  0  0  0  0  0  0  0  0  0  0  0
   -4.0027   -0.9083    0.8709 C   0  0  0  0  0  0  0  0  0  0  0  0
   -4.6694   -0.2447    1.4272 H   0  0  0  0  0  0  0  0  0  0  0  0
   -4.3527   -0.9818   -0.1614 H   0  0  0  0  0  0  0  0  0  0  0  0
   -2.5873   -0.3653    0.9022 C   0  0  0  0  0  0  0  0  0  0  0  0
   -1.6834   -1.0380    1.3762 O   0  0  0  0  0  0  0  0  0  0  0  0
   -2.3187    0.8857    0.3840 N   0  0  0  0  0  0  0  0  0  0  0  0
   -3.1061    1.4187    0.0139 H   0  0  0  0  0  0  0  0  0  0  0  0
   -1.0114    1.5613    0.4135 C   0  0  1  0  0  0  0  0  0  0  0  0
   -0.4624    1.2657    1.3140 H   0  0  0  0  0  0  0  0  0  0  0  0
   -0.1607    1.2319   -0.8344 C   0  0  0  0  0  0  0  0  0  0  0  0
   -0.7362    1.4771   -1.7342 H   0  0  0  0  0  0  0  0  0  0  0  0
    0.7315    1.8679   -0.8305 H   0  0  0  0  0  0  0  0  0  0  0  0
    0.2809   -0.2349   -0.8984 C   0  0  0  0  0  0  0  0  0  0  0  0
    0.8531   -0.4866    0.0011 H   0  0  0  0  0  0  0  0  0  0  0  0
   -0.6002   -0.8816   -0.9361 H   0  0  0  0  0  0  0  0  0  0  0  0
    1.1153   -0.4895   -2.1491 C   0  0  0  0  0  0  0  0  0  0  0  0
    0.5241   -0.2299   -3.0343 H   0  0  0  0  0  0  0  0  0  0  0  0
    2.0077    0.1456   -2.1256 H   0  0  0  0  0  0  0  0  0  0  0  0
    1.4998   -1.9122   -2.1864 N   0  3  0  0  0  0  0  0  0  0  0  0
    1.2017   -2.4896   -1.4000 H   0  0  0  0  0  0  0  0  0  0  0  0
    2.1695   -2.4568   -3.1601 C   0  0  0  0  0  0  0  0  0  0  0  0
    2.5793   -1.7290   -4.2541 N   0  0  0  0  0  0  0  0  0  0  0  0
    2.2007   -0.7911   -4.3699 H   0  0  0  0  0  0  0  0  0  0  0  0
    2.8887   -2.2279   -5.0859 H   0  0  0  0  0  0  0  0  0  0  0  0
    2.4857   -3.7930   -3.1003 N   0  0  0  0  0  0  0  0  0  0  0  0
    2.3499   -4.2874   -2.2204 H   0  0  0  0  0  0  0  0  0  0  0  0
    3.1825   -4.1561   -3.7481 H   0  0  0  0  0  0  0  0  0  0  0  0
   -1.2305    3.0868    0.4673 C   0  0  0  0  0  0  0  0  0  0  0  0
   -1.8942    3.6292   -0.4071 O   0  0  0  0  0  0  0  0  0  0  0  0
   -0.7465    3.8351    1.5247 N   0  0  0  0  0  0  0  0  0  0  0  0
   -0.2851    3.3407    2.2835 H   0  0  0  0  0  0  0  0  0  0  0  0
   -1.0169    5.2608    1.6808 C   0  0  0  0  0  0  0  0  0  0  0  0
   -2.0926    5.4381    1.7870 H   0  0  0  0  0  0  0  0  0  0  0  0
   -0.5132    5.6473    2.5722 H   0  0  0  0  0  0  0  0  0  0  0  0
   -0.6530    5.8188    0.8113 H   0  0  0  0  0  0  0  0  0  0  0  0
  1  2  1  0  0  0  0
  2  3  1  0  0  0  0
  2  4  1  0  0  0  0
  2  5  1  0  0  0  0
  5  6  2  0  0  0  0
  5  7  1  0  0  0  0
  7  8  1  0  0  0  0
  7  9  1  0  0  0  0
  9 10  1  0  0  0  0
  9 11  1  0  0  0  0
  9 29  1  0  0  0  0
 11 12  1  0  0  0  0
 11 13  1  0  0  0  0
 11 14  1  0  0  0  0
 14 15  1  0  0  0  0
 14 16  1  0  0  0  0
 14 17  1  0  0  0  0
 17 18  1  0  0  0  0
 17 19  1  0  0  0  0
 17 20  1  0  0  0  0
 20 21  1  0  0  0  0
 20 22  2  0  0  0  0
 22 23  1  0  0  0  0
 22 26  1  0  0  0  0
 23 24  1  0  0  0  0
 23 25  1  0  0  0  0
 26 27  1  0  0  0  0
 26 28  1  0  0  0  0
 29 30  2  0  0  0  0
 29 31  1  0  0  0  0
 31 32  1  0  0  0  0
 31 33  1  0  0  0  0
 33 34  1  0  0  0  0
 33 35  1  0  0  0  0
 33 36  1  0  0  0  0
M  CHG  1  20   1
M  END
$$$$

  -OEChem-02172215453D

 36 35  0     1  0  0  0  0  0999 V2000
   -4.0423   -1.8934    1.3434 H   0  0  0  0  0  0  0  0  0  0  0  0
   -4.0060   -0.9018    0.8838 C   0  0  0  0  0  0  0  0  0  0  0  0
   -4.6582   -0.2301    1.4475 H   0  0  0  0  0  0  0  0  0  0  0  0
   -4.3713   -0.9751   -0.1432 H   0  0  0  0  0  0  0  0  0  0  0  0
   -2.5856   -0.3712    0.8932 C   0  0  0  0  0  0  0  0  0  0  0  0
   -1.6800   -1.0528    1.3514 O   0  0  0  0  0  0  0  0  0  0  0  0
   -2.3150    0.8781    0.3725 N   0  0  0  0  0  0  0  0  0  0  0  0
   -3.1077    1.4292    0.0402 H   0  0  0  0  0  0  0  0  0  0  0  0
   -1.0100    1.5578    0.4096 C   0  0  1  0  0  0  0  0  0  0  0  0
   -0.4658    1.2646    1.3138 H   0  0  0  0  0  0  0  0  0  0  0  0
   -0.1585    1.2351   -0.8381 C   0  0  0  0  0  0  0  0  0  0  0  0
   -0.7355    1.4833   -1.7360 H   0  0  0  0  0  0  0  0  0  0  0  0
    0.7331    1.8717   -0.8322 H   0  0  0  0  0  0  0  0  0  0  0  0
    0.2843   -0.2310   -0.9058 C   0  0  0  0  0  0  0  0  0  0  0  0
    0.8551   -0.4843   -0.0056 H   0  0  0  0  0  0  0  0  0  0  0  0
   -0.5963   -0.8778   -0.9469 H   0  0  0  0  0  0  0  0  0  0  0  0
    1.1206   -0.4856   -2.1553 C   0  0  0  0  0  0  0  0  0  0  0  0
    0.5314   -0.2257   -3.0416 H   0  0  0  0  0  0  0  0  0  0  0  0
    2.0143    0.1478   -2.1302 H   0  0  0  0  0  0  0  0  0  0  0  0
    1.5019   -1.9092   -2.1893 N   0  3  0  0  0  0  0  0  0  0  0  0
    1.1984   -2.4843   -1.4035 H   0  0  0  0  0  0  0  0  0  0  0  0
    2.1725   -2.4587   -3.1596 C   0  0  0  0  0  0  0  0  0  0  0  0
    2.5875   -1.7358   -4.2546 N   0  0  0  0  0  0  0  0  0  0  0  0
    2.2154   -0.7957   -4.3722 H   0  0  0  0  0  0  0  0  0  0  0  0
    2.8935   -2.2387   -5.0852 H   0  0  0  0  0  0  0  0  0  0  0  0
    2.4816   -3.7964   -3.0960 N   0  0  0  0  0  0  0  0  0  0  0  0
    2.3381   -4.2890   -2.2164 H   0  0  0  0  0  0  0  0  0  0  0  0
    3.1800   -4.1640   -3.7394 H   0  0  0  0  0  0  0  0  0  0  0  0
   -1.2312    3.0840    0.4552 C   0  0  0  0  0  0  0  0  0  0  0  0
   -2.0774    3.5886   -0.2725 O   0  0  0  0  0  0  0  0  0  0  0  0
   -0.5129    3.8814    1.3274 N   0  0  0  0  0  0  0  0  0  0  0  0
    0.1134    3.4228    1.9835 H   0  0  0  0  0  0  0  0  0  0  0  0
   -0.7497    5.3143    1.4732 C   0  0  0  0  0  0  0  0  0  0  0  0
   -1.7680    5.5006    1.8309 H   0  0  0  0  0  0  0  0  0  0  0  0
   -0.0465    5.7438    2.1935 H   0  0  0  0  0  0  0  0  0  0  0  0
   -0.6150    5.8269    0.5145 H   0  0  0  0  0  0  0  0  0  0  0  0
  1  2  1  0  0  0  0
  2  3  1  0  0  0  0
  2  4  1  0  0  0  0
  2  5  1  0  0  0  0
  5  6  2  0  0  0  0
  5  7  1  0  0  0  0
  7  8  1  0  0  0  0
  7  9  1  0  0  0  0
  9 10  1  0  0  0  0
  9 11  1  0  0  0  0
  9 29  1  0  0  0  0
 11 12  1  0  0  0  0
 11 13  1  0  0  0  0
 11 14  1  0  0  0  0
 14 15  1  0  0  0  0
 14 16  1  0  0  0  0
 14 17  1  0  0  0  0
 17 18  1  0  0  0  0
 17 19  1  0  0  0  0
 17 20  1  0  0  0  0
 20 21  1  0  0  0  0
 20 22  2  0  0  0  0
 22 23  1  0  0  0  0
 22 26  1  0  0  0  0
 23 24  1  0  0  0  0
 23 25  1  0  0  0  0
 26 27  1  0  0  0  0
 26 28  1  0  0  0  0
 29 30  2  0  0  0  0
 29 31  1  0  0  0  0
 31 32  1  0  0  0  0
 31 33  1  0  0  0  0
 33 34  1  0  0  0  0
 33 35  1  0  0  0  0
 33 36  1  0  0  0  0
M  CHG  1  20   1
M  END
$$$$

  -OEChem-02172215453D

 36 35  0     1  0  0  0  0  0999 V2000
   -4.0552   -1.8771    1.3735 H   0  0  0  0  0  0  0  0  0  0  0  0
   -4.0176   -0.8880    0.9086 C   0  0  0  0  0  0  0  0  0  0  0  0
   -4.6455   -0.2051    1.4864 H   0  0  0  0  0  0  0  0  0  0  0  0
   -4.4111   -0.9603   -0.1081 H   0  0  0  0  0  0  0  0  0  0  0  0
   -2.5904   -0.3765    0.8788 C   0  0  0  0  0  0  0  0  0  0  0  0
   -1.6819   -1.0679    1.3166 O   0  0  0  0  0  0  0  0  0  0  0  0
   -2.3200    0.8716    0.3550 N   0  0  0  0  0  0  0  0  0  0  0  0
   -3.1197    1.4433    0.0772 H   0  0  0  0  0  0  0  0  0  0  0  0
   -1.0172    1.5560    0.3984 C   0  0  1  0  0  0  0  0  0  0  0  0
   -0.4770    1.2686    1.3069 H   0  0  0  0  0  0  0  0  0  0  0  0
   -0.1615    1.2331   -0.8474 C   0  0  0  0  0  0  0  0  0  0  0  0
   -0.7378    1.4793   -1.7464 H   0  0  0  0  0  0  0  0  0  0  0  0
    0.7298    1.8703   -0.8416 H   0  0  0  0  0  0  0  0  0  0  0  0
    0.2855   -0.2322   -0.9145 C   0  0  0  0  0  0  0  0  0  0  0  0
    0.8528   -0.4855   -0.0120 H   0  0  0  0  0  0  0  0  0  0  0  0
   -0.5935   -0.8810   -0.9601 H   0  0  0  0  0  0  0  0  0  0  0  0
    1.1255   -0.4855   -2.1617 C   0  0  0  0  0  0  0  0  0  0  0  0
    0.5383   -0.2281   -3.0500 H   0  0  0  0  0  0  0  0  0  0  0  0
    2.0177    0.1498   -2.1347 H   0  0  0  0  0  0  0  0  0  0  0  0
    1.5090   -1.9085   -2.1925 N   0  3  0  0  0  0  0  0  0  0  0  0
    1.2027   -2.4829   -1.4070 H   0  0  0  0  0  0  0  0  0  0  0  0
    2.1833   -2.4589   -3.1598 C   0  0  0  0  0  0  0  0  0  0  0  0
    2.6013   -1.7382   -4.2554 N   0  0  0  0  0  0  0  0  0  0  0  0
    2.2255   -0.8004   -4.3795 H   0  0  0  0  0  0  0  0  0  0  0  0
    2.9111   -2.2436   -5.0829 H   0  0  0  0  0  0  0  0  0  0  0  0
    2.4932   -3.7961   -3.0921 N   0  0  0  0  0  0  0  0  0  0  0  0
    2.3455   -4.2878   -2.2126 H   0  0  0  0  0  0  0  0  0  0  0  0
    3.1932   -4.1652   -3.7329 H   0  0  0  0  0  0  0  0  0  0  0  0
   -1.2392    3.0839    0.4366 C   0  0  0  0  0  0  0  0  0  0  0  0
   -2.2286    3.5645   -0.1033 O   0  0  0  0  0  0  0  0  0  0  0  0
   -0.3347    3.9164    1.0708 N   0  0  0  0  0  0  0  0  0  0  0  0
    0.4282    3.4841    1.5841 H   0  0  0  0  0  0  0  0  0  0  0  0
   -0.5394    5.3555    1.2047 C   0  0  0  0  0  0  0  0  0  0  0  0
   -1.4443    5.5619    1.7863 H   0  0  0  0  0  0  0  0  0  0  0  0
    0.3125    5.8146    1.7161 H   0  0  0  0  0  0  0  0  0  0  0  0
   -0.6415    5.8232    0.2194 H   0  0  0  0  0  0  0  0  0  0  0  0
  1  2  1  0  0  0  0
  2  3  1  0  0  0  0
  2  4  1  0  0  0  0
  2  5  1  0  0  0  0
  5  6  2  0  0  0  0
  5  7  1  0  0  0  0
  7  8  1  0  0  0  0
  7  9  1  0  0  0  0
  9 10  1  0  0  0  0
  9 11  1  0  0  0  0
  9 29  1  0  0  0  0
 11 12  1  0  0  0  0
 11 13  1  0  0  0  0
 11 14  1  0  0  0  0
 14 15  1  0  0  0  0
 14 16  1  0  0  0  0
 14 17  1  0  0  0  0
 17 18  1  0  0  0  0
 17 19  1  0  0  0  0
 17 20  1  0  0  0  0
 20 21  1  0  0  0  0
 20 22  2  0  0  0  0
 22 23  1  0  0  0  0
 22 26  1  0  0  0  0
 23 24  1  0  0  0  0
 23 25  1  0  0  0  0
 26 27  1  0  0  0  0
 26 28  1  0  0  0  0
 29 30  2  0  0  0  0
 29 31  1  0  0  0  0
 31 32  1  0  0  0  0
 31 33  1  0  0  0  0
 33 34  1  0  0  0  0
 33 35  1  0  0  0  0
 33 36  1  0  0  0  0
M  CHG  1  20   1
M  END
$$$$

  -OEChem-02172215453D

 36 35  0     1  0  0  0  0  0999 V2000
   -4.0508   -1.8741    1.3846 H   0  0  0  0  0  0  0  0  0  0  0  0
   -4.0143   -0.8870    0.9153 C   0  0  0  0  0  0  0  0  0  0  0  0
   -4.6309   -0.1985    1.4988 H   0  0  0  0  0  0  0  0  0  0  0  0
   -4.4223   -0.9612   -0.0956 H   0  0  0  0  0  0  0  0  0  0  0  0
   -2.5851   -0.3830    0.8632 C   0  0  0  0  0  0  0  0  0  0  0  0
   -1.6741   -1.0801    1.2867 O   0  0  0  0  0  0  0  0  0  0  0  0
   -2.3191    0.8669    0.3411 N   0  0  0  0  0  0  0  0  0  0  0  0
   -3.1250    1.4516    0.1102 H   0  0  0  0  0  0  0  0  0  0  0  0
   -1.0195    1.5582    0.3926 C   0  0  1  0  0  0  0  0  0  0  0  0
   -0.4811    1.2736    1.3033 H   0  0  0  0  0  0  0  0  0  0  0  0
   -0.1626    1.2378   -0.8555 C   0  0  0  0  0  0  0  0  0  0  0  0
   -0.7400    1.4838   -1.7539 H   0  0  0  0  0  0  0  0  0  0  0  0
    0.7284    1.8747   -0.8514 H   0  0  0  0  0  0  0  0  0  0  0  0
    0.2880   -0.2264   -0.9249 C   0  0  0  0  0  0  0  0  0  0  0  0
    0.8540   -0.4799   -0.0217 H   0  0  0  0  0  0  0  0  0  0  0  0
   -0.5901   -0.8759   -0.9728 H   0  0  0  0  0  0  0  0  0  0  0  0
    1.1285   -0.4827   -2.1712 C   0  0  0  0  0  0  0  0  0  0  0  0
    0.5411   -0.2282   -3.0603 H   0  0  0  0  0  0  0  0  0  0  0  0
    2.0210    0.1526   -2.1464 H   0  0  0  0  0  0  0  0  0  0  0  0
    1.5105   -1.9066   -2.1953 N   0  3  0  0  0  0  0  0  0  0  0  0
    1.2012   -2.4769   -1.4080 H   0  0  0  0  0  0  0  0  0  0  0  0
    2.1847   -2.4645   -3.1582 C   0  0  0  0  0  0  0  0  0  0  0  0
    2.6056   -1.7519   -4.2576 N   0  0  0  0  0  0  0  0  0  0  0  0
    2.2292   -0.8155   -4.3891 H   0  0  0  0  0  0  0  0  0  0  0  0
    2.9174   -2.2634   -5.0806 H   0  0  0  0  0  0  0  0  0  0  0  0
    2.4923   -3.8018   -3.0815 N   0  0  0  0  0  0  0  0  0  0  0  0
    2.3422   -4.2879   -2.1992 H   0  0  0  0  0  0  0  0  0  0  0  0
    3.1916   -4.1769   -3.7195 H   0  0  0  0  0  0  0  0  0  0  0  0
   -1.2487    3.0873    0.4305 C   0  0  0  0  0  0  0  0  0  0  0  0
   -2.3382    3.5472    0.1081 O   0  0  0  0  0  0  0  0  0  0  0  0
   -0.2276    3.9498    0.7887 N   0  0  0  0  0  0  0  0  0  0  0  0
    0.6370    3.5431    1.1340 H   0  0  0  0  0  0  0  0  0  0  0  0
   -0.4108    5.3944    0.8937 C   0  0  0  0  0  0  0  0  0  0  0  0
   -1.1500    5.6319    1.6666 H   0  0  0  0  0  0  0  0  0  0  0  0
    0.5339    5.8794    1.1581 H   0  0  0  0  0  0  0  0  0  0  0  0
   -0.7546    5.8096   -0.0598 H   0  0  0  0  0  0  0  0  0  0  0  0
  1  2  1  0  0  0  0
  2  3  1  0  0  0  0
  2  4  1  0  0  0  0
  2  5  1  0  0  0  0
  5  6  2  0  0  0  0
  5  7  1  0  0  0  0
  7  8  1  0  0  0  0
  7  9  1  0  0  0  0
  9 10  1  0  0  0  0
  9 11  1  0  0  0  0
  9 29  1  0  0  0  0
 11 12  1  0  0  0  0
 11 13  1  0  0  0  0
 11 14  1  0  0  0  0
 14 15  1  0  0  0  0
 14 16  1  0  0  0  0
 14 17  1  0  0  0  0
 17 18  1  0  0  0  0
 17 19  1  0  0  0  0
 17 20  1  0  0  0  0
 20 21  1  0  0  0  0
 20 22  2  0  0  0  0
 22 23  1  0  0  0  0
 22 26  1  0  0  0  0
 23 24  1  0  0  0  0
 23 25  1  0  0  0  0
 26 27  1  0  0  0  0
 26 28  1  0  0  0  0
 29 30  2  0  0  0  0
 29 31  1  0  0  0  0
 31 32  1  0  0  0  0
 31 33  1  0  0  0  0
 33 34  1  0  0  0  0
 33 35  1  0  0  0  0
 33 36  1  0  0  0  0
M  CHG  1  20   1
M  END
$$$$

  -OEChem-02172215453D

 36 35  0     1  0  0  0  0  0999 V2000
   -3.8994   -1.8666    1.4463 H   0  0  0  0  0  0  0  0  0  0  0  0
   -3.9316   -0.8800    0.9755 C   0  0  0  0  0  0  0  0  0  0  0  0
   -4.4454   -0.1881    1.6479 H   0  0  0  0  0  0  0  0  0  0  0  0
   -4.4930   -0.9513    0.0409 H   0  0  0  0  0  0  0  0  0  0  0  0
   -2.5248   -0.3855    0.7001 C   0  0  0  0  0  0  0  0  0  0  0  0
   -1.5679   -1.1276    0.8714 O   0  0  0  0  0  0  0  0  0  0  0  0
   -2.3270    0.8932    0.2185 N   0  0  0  0  0  0  0  0  0  0  0  0
   -3.1486    1.5005    0.2461 H   0  0  0  0  0  0  0  0  0  0  0  0
   -1.0357    1.5979    0.3002 C   0  0  1  0  0  0  0  0  0  0  0  0
   -0.3843    1.1183    1.0392 H   0  0  0  0  0  0  0  0  0  0  0  0
   -0.3492    1.5812   -1.0829 C   0  0  0  0  0  0  0  0  0  0  0  0
   -1.0336    1.9991   -1.8297 H   0  0  0  0  0  0  0  0  0  0  0  0
    0.5423    2.2162   -1.0573 H   0  0  0  0  0  0  0  0  0  0  0  0
    0.0707    0.1645   -1.4984 C   0  0  0  0  0  0  0  0  0  0  0  0
    0.7470   -0.2532   -0.7442 H   0  0  0  0  0  0  0  0  0  0  0  0
   -0.8136   -0.4782   -1.5524 H   0  0  0  0  0  0  0  0  0  0  0  0
    0.7466    0.1746   -2.8654 C   0  0  0  0  0  0  0  0  0  0  0  0
    0.0570    0.5952   -3.6056 H   0  0  0  0  0  0  0  0  0  0  0  0
    1.6430    0.8032   -2.8232 H   0  0  0  0  0  0  0  0  0  0  0  0
    1.1066   -1.2087   -3.2254 N   0  3  0  0  0  0  0  0  0  0  0  0
    0.8934   -1.9314   -2.5376 H   0  0  0  0  0  0  0  0  0  0  0  0
    1.6491   -1.5482   -4.3584 C   0  0  0  0  0  0  0  0  0  0  0  0
    1.9367   -0.6200   -5.3329 N   0  0  0  0  0  0  0  0  0  0  0  0
    1.5561    0.3176   -5.2230 H   0  0  0  0  0  0  0  0  0  0  0  0
    2.1370   -0.9484   -6.2755 H   0  0  0  0  0  0  0  0  0  0  0  0
    1.9491   -2.8683   -4.5956 N   0  0  0  0  0  0  0  0  0  0  0  0
    1.9031   -3.5272   -3.8203 H   0  0  0  0  0  0  0  0  0  0  0  0
    2.5576   -3.0957   -5.3799 H   0  0  0  0  0  0  0  0  0  0  0  0
   -1.2577    3.0535    0.7775 C   0  0  0  0  0  0  0  0  0  0  0  0
   -2.3978    3.4646    0.9607 O   0  0  0  0  0  0  0  0  0  0  0  0
   -0.1946    3.9250    0.9376 N   0  0  0  0  0  0  0  0  0  0  0  0
    0.7444    3.5478    0.8524 H   0  0  0  0  0  0  0  0  0  0  0  0
   -0.3564    5.2987    1.4052 C   0  0  0  0  0  0  0  0  0  0  0  0
   -0.7851    5.3135    2.4131 H   0  0  0  0  0  0  0  0  0  0  0  0
    0.6124    5.8070    1.4344 H   0  0  0  0  0  0  0  0  0  0  0  0
   -1.0177    5.8576    0.7345 H   0  0  0  0  0  0  0  0  0  0  0  0
  1  2  1  0  0  0  0
  2  3  1  0  0  0  0
  2  4  1  0  0  0  0
  2  5  1  0  0  0  0
  5  6  2  0  0  0  0
  5  7  1  0  0  0  0
  7  8  1  0  0  0  0
  7  9  1  0  0  0  0
  9 10  1  0  0  0  0
  9 11  1  0  0  0  0
  9 29  1  0  0  0  0
 11 12  1  0  0  0  0
 11 13  1  0  0  0  0
 11 14  1  0  0  0  0
 14 15  1  0  0  0  0
 14 16  1  0  0  0  0
 14 17  1  0  0  0  0
 17 18  1  0  0  0  0
 17 19  1  0  0  0  0
 17 20  1  0  0  0  0
 20 21  1  0  0  0  0
 20 22  2  0  0  0  0
 22 23  1  0  0  0  0
 22 26  1  0  0  0  0
 23 24  1  0  0  0  0
 23 25  1  0  0  0  0
 26 27  1  0  0  0  0
 26 28  1  0  0  0  0
 29 30  2  0  0  0  0
 29 31  1  0  0  0  0
 31 32  1  0  0  0  0
 31 33  1  0  0  0  0
 33 34  1  0  0  0  0
 33 35  1  0  0  0  0
 33 36  1  0  0  0  0
M  CHG  1  20   1
M  END
$$$$

  -OEChem-02172215453D

 36 35  0     1  0  0  0  0  0999 V2000
   -3.8829   -1.8640    1.4360 H   0  0  0  0  0  0  0  0  0  0  0  0
   -3.9205   -0.8721    0.9769 C   0  0  0  0  0  0  0  0  0  0  0  0
   -4.4163   -0.1856    1.6681 H   0  0  0  0  0  0  0  0  0  0  0  0
   -4.5024   -0.9304    0.0541 H   0  0  0  0  0  0  0  0  0  0  0  0
   -2.5176   -0.3810    0.6765 C   0  0  0  0  0  0  0  0  0  0  0  0
   -1.5611   -1.1289    0.8251 O   0  0  0  0  0  0  0  0  0  0  0  0
   -2.3258    0.9016    0.2019 N   0  0  0  0  0  0  0  0  0  0  0  0
   -3.1443    1.5090    0.2748 H   0  0  0  0  0  0  0  0  0  0  0  0
   -1.0329    1.6042    0.2861 C   0  0  1  0  0  0  0  0  0  0  0  0
   -0.3819    1.1233    1.0247 H   0  0  0  0  0  0  0  0  0  0  0  0
   -0.3435    1.5827   -1.0982 C   0  0  0  0  0  0  0  0  0  0  0  0
   -1.0252    2.0025   -1.8460 H   0  0  0  0  0  0  0  0  0  0  0  0
    0.5526    2.2106   -1.0742 H   0  0  0  0  0  0  0  0  0  0  0  0
    0.0738    0.1645   -1.5114 C   0  0  0  0  0  0  0  0  0  0  0  0
    0.7462   -0.2541   -0.7543 H   0  0  0  0  0  0  0  0  0  0  0  0
   -0.8122   -0.4749   -1.5679 H   0  0  0  0  0  0  0  0  0  0  0  0
    0.7523    0.1660   -2.8769 C   0  0  0  0  0  0  0  0  0  0  0  0
    0.0646    0.5842   -3.6202 H   0  0  0  0  0  0  0  0  0  0  0  0
    1.6511    0.7916   -2.8375 H   0  0  0  0  0  0  0  0  0  0  0  0
    1.1070   -1.2209   -3.2285 N   0  3  0  0  0  0  0  0  0  0  0  0
    0.8862   -1.9395   -2.5388 H   0  0  0  0  0  0  0  0  0  0  0  0
    1.6505   -1.5685   -4.3585 C   0  0  0  0  0  0  0  0  0  0  0  0
    1.9438   -0.6454   -5.3363 N   0  0  0  0  0  0  0  0  0  0  0  0
    1.5736    0.2963   -5.2263 H   0  0  0  0  0  0  0  0  0  0  0  0
    2.1341   -0.9781   -6.2794 H   0  0  0  0  0  0  0  0  0  0  0  0
    1.9426   -2.8912   -4.5910 N   0  0  0  0  0  0  0  0  0  0  0  0
    1.8912   -3.5468   -3.8132 H   0  0  0  0  0  0  0  0  0  0  0  0
    2.5545   -3.1240   -5.3712 H   0  0  0  0  0  0  0  0  0  0  0  0
   -1.2622    3.0569    0.7764 C   0  0  0  0  0  0  0  0  0  0  0  0
   -2.3666    3.3831    1.1957 O   0  0  0  0  0  0  0  0  0  0  0  0
   -0.2823    4.0283    0.6620 N   0  0  0  0  0  0  0  0  0  0  0  0
    0.6447    3.7343    0.3708 H   0  0  0  0  0  0  0  0  0  0  0  0
   -0.4688    5.4040    1.1138 C   0  0  0  0  0  0  0  0  0  0  0  0
   -0.6625    5.4309    2.1915 H   0  0  0  0  0  0  0  0  0  0  0  0
    0.4282    5.9965    0.9089 H   0  0  0  0  0  0  0  0  0  0  0  0
   -1.3135    5.8688    0.5937 H   0  0  0  0  0  0  0  0  0  0  0  0
  1  2  1  0  0  0  0
  2  3  1  0  0  0  0
  2  4  1  0  0  0  0
  2  5  1  0  0  0  0
  5  6  2  0  0  0  0
  5  7  1  0  0  0  0
  7  8  1  0  0  0  0
  7  9  1  0  0  0  0
  9 10  1  0  0  0  0
  9 11  1  0  0  0  0
  9 29  1  0  0  0  0
 11 12  1  0  0  0  0
 11 13  1  0  0  0  0
 11 14  1  0  0  0  0
 14 15  1  0  0  0  0
 14 16  1  0  0  0  0
 14 17  1  0  0  0  0
 17 18  1  0  0  0  0
 17 19  1  0  0  0  0
 17 20  1  0  0  0  0
 20 21  1  0  0  0  0
 20 22  2  0  0  0  0
 22 23  1  0  0  0  0
 22 26  1  0  0  0  0
 23 24  1  0  0  0  0
 23 25  1  0  0  0  0
 26 27  1  0  0  0  0
 26 28  1  0  0  0  0
 29 30  2  0  0  0  0
 29 31  1  0  0  0  0
 31 32  1  0  0  0  0
 31 33  1  0  0  0  0
 33 34  1  0  0  0  0
 33 35  1  0  0  0  0
 33 36  1  0  0  0  0
M  CHG  1  20   1
M  END
$$$$

  -OEChem-02172215453D

 36 35  0     1  0  0  0  0  0999 V2000
   -3.8700   -1.8494    1.4485 H   0  0  0  0  0  0  0  0  0  0  0  0
   -3.9126   -0.8573    0.9903 C   0  0  0  0  0  0  0  0  0  0  0  0
   -4.3848   -0.1674    1.6945 H   0  0  0  0  0  0  0  0  0  0  0  0
   -4.5190   -0.9113    0.0833 H   0  0  0  0  0  0  0  0  0  0  0  0
   -2.5152   -0.3754    0.6525 C   0  0  0  0  0  0  0  0  0  0  0  0
   -1.5615   -1.1321    0.7713 O   0  0  0  0  0  0  0  0  0  0  0  0
   -2.3287    0.9117    0.1865 N   0  0  0  0  0  0  0  0  0  0  0  0
   -3.1427    1.5181    0.2992 H   0  0  0  0  0  0  0  0  0  0  0  0
   -1.0318    1.6085    0.2654 C   0  0  1  0  0  0  0  0  0  0  0  0
   -0.3809    1.1245    1.0023 H   0  0  0  0  0  0  0  0  0  0  0  0
   -0.3369    1.5850   -1.1181 C   0  0  0  0  0  0  0  0  0  0  0  0
   -1.0128    2.0090   -1.8689 H   0  0  0  0  0  0  0  0  0  0  0  0
    0.5641    2.2053   -1.0889 H   0  0  0  0  0  0  0  0  0  0  0  0
    0.0773    0.1660   -1.5307 C   0  0  0  0  0  0  0  0  0  0  0  0
    0.7439   -0.2560   -0.7701 H   0  0  0  0  0  0  0  0  0  0  0  0
   -0.8119   -0.4684   -1.5922 H   0  0  0  0  0  0  0  0  0  0  0  0
    0.7617    0.1606   -2.8934 C   0  0  0  0  0  0  0  0  0  0  0  0
    0.0800    0.5799   -3.6417 H   0  0  0  0  0  0  0  0  0  0  0  0
    1.6643    0.7803   -2.8526 H   0  0  0  0  0  0  0  0  0  0  0  0
    1.1091   -1.2304   -3.2356 N   0  3  0  0  0  0  0  0  0  0  0  0
    0.8806   -1.9432   -2.5421 H   0  0  0  0  0  0  0  0  0  0  0  0
    1.6557   -1.5897   -4.3603 C   0  0  0  0  0  0  0  0  0  0  0  0
    1.9606   -0.6763   -5.3435 N   0  0  0  0  0  0  0  0  0  0  0  0
    1.5982    0.2693   -5.2430 H   0  0  0  0  0  0  0  0  0  0  0  0
    2.1601   -1.0170   -6.2818 H   0  0  0  0  0  0  0  0  0  0  0  0
    1.9398   -2.9162   -4.5800 N   0  0  0  0  0  0  0  0  0  0  0  0
    1.8778   -3.5653   -3.7974 H   0  0  0  0  0  0  0  0  0  0  0  0
    2.5533   -3.1605   -5.3553 H   0  0  0  0  0  0  0  0  0  0  0  0
   -1.2660    3.0557    0.7734 C   0  0  0  0  0  0  0  0  0  0  0  0
   -2.2722    3.2987    1.4284 O   0  0  0  0  0  0  0  0  0  0  0  0
   -0.4473    4.1124    0.4112 N   0  0  0  0  0  0  0  0  0  0  0  0
    0.4009    3.9012   -0.1041 H   0  0  0  0  0  0  0  0  0  0  0  0
   -0.6705    5.4842    0.8591 C   0  0  0  0  0  0  0  0  0  0  0  0
   -0.6214    5.5441    1.9518 H   0  0  0  0  0  0  0  0  0  0  0  0
    0.0920    6.1493    0.4422 H   0  0  0  0  0  0  0  0  0  0  0  0
   -1.6535    5.8404    0.5320 H   0  0  0  0  0  0  0  0  0  0  0  0
  1  2  1  0  0  0  0
  2  3  1  0  0  0  0
  2  4  1  0  0  0  0
  2  5  1  0  0  0  0
  5  6  2  0  0  0  0
  5  7  1  0  0  0  0
  7  8  1  0  0  0  0
  7  9  1  0  0  0  0
  9 10  1  0  0  0  0
  9 11  1  0  0  0  0
  9 29  1  0  0  0  0
 11 12  1  0  0  0  0
 11 13  1  0  0  0  0
 11 14  1  0  0  0  0
 14 15  1  0  0  0  0
 14 16  1  0  0  0  0
 14 17  1  0  0  0  0
 17 18  1  0  0  0  0
 17 19  1  0  0  0  0
 17 20  1  0  0  0  0
 20 21  1  0  0  0  0
 20 22  2  0  0  0  0
 22 23  1  0  0  0  0
 22 26  1  0  0  0  0
 23 24  1  0  0  0  0
 23 25  1  0  0  0  0
 26 27  1  0  0  0  0
 26 28  1  0  0  0  0
 29 30  2  0  0  0  0
 29 31  1  0  0  0  0
 31 32  1  0  0  0  0
 31 33  1  0  0  0  0
 33 34  1  0  0  0  0
 33 35  1  0  0  0  0
 33 36  1  0  0  0  0
M  CHG  1  20   1
M  END
$$$$

  -OEChem-02172215453D

 36 35  0     1  0  0  0  0  0999 V2000
   -3.8624   -1.8760    1.3755 H   0  0  0  0  0  0  0  0  0  0  0  0
   -3.9033   -0.8510    0.9968 C   0  0  0  0  0  0  0  0  0  0  0  0
   -4.3277   -0.2084    1.7727 H   0  0  0  0  0  0  0  0  0  0  0  0
   -4.5511   -0.8243    0.1176 H   0  0  0  0  0  0  0  0  0  0  0  0
   -2.5117   -0.3705    0.6331 C   0  0  0  0  0  0  0  0  0  0  0  0
   -1.5582   -1.1307    0.7282 O   0  0  0  0  0  0  0  0  0  0  0  0
   -2.3333    0.9211    0.1755 N   0  0  0  0  0  0  0  0  0  0  0  0
   -3.1474    1.5218    0.3099 H   0  0  0  0  0  0  0  0  0  0  0  0
   -1.0346    1.6161    0.2440 C   0  0  1  0  0  0  0  0  0  0  0  0
   -0.3813    1.1294    0.9772 H   0  0  0  0  0  0  0  0  0  0  0  0
   -0.3361    1.5935   -1.1381 C   0  0  0  0  0  0  0  0  0  0  0  0
   -1.0088    2.0167   -1.8924 H   0  0  0  0  0  0  0  0  0  0  0  0
    0.5655    2.2133   -1.1021 H   0  0  0  0  0  0  0  0  0  0  0  0
    0.0794    0.1744   -1.5482 C   0  0  0  0  0  0  0  0  0  0  0  0
    0.7427   -0.2466   -0.7839 H   0  0  0  0  0  0  0  0  0  0  0  0
   -0.8103   -0.4591   -1.6121 H   0  0  0  0  0  0  0  0  0  0  0  0
    0.7680    0.1605   -2.9087 C   0  0  0  0  0  0  0  0  0  0  0  0
    0.0901    0.5765   -3.6620 H   0  0  0  0  0  0  0  0  0  0  0  0
    1.6718    0.7785   -2.8679 H   0  0  0  0  0  0  0  0  0  0  0  0
    1.1118   -1.2351   -3.2372 N   0  3  0  0  0  0  0  0  0  0  0  0
    0.8843   -1.9390   -2.5344 H   0  0  0  0  0  0  0  0  0  0  0  0
    1.6608   -1.6099   -4.3556 C   0  0  0  0  0  0  0  0  0  0  0  0
    1.9737   -0.7101   -5.3486 N   0  0  0  0  0  0  0  0  0  0  0  0
    1.6090    0.2360   -5.2634 H   0  0  0  0  0  0  0  0  0  0  0  0
    2.1730   -1.0646   -6.2820 H   0  0  0  0  0  0  0  0  0  0  0  0
    1.9446   -2.9396   -4.5561 N   0  0  0  0  0  0  0  0  0  0  0  0
    1.8799   -3.5769   -3.7641 H   0  0  0  0  0  0  0  0  0  0  0  0
    2.5650   -3.1941   -5.3225 H   0  0  0  0  0  0  0  0  0  0  0  0
   -1.2681    3.0563    0.7685 C   0  0  0  0  0  0  0  0  0  0  0  0
   -2.1156    3.2331    1.6337 O   0  0  0  0  0  0  0  0  0  0  0  0
   -0.6732    4.1693    0.1977 N   0  0  0  0  0  0  0  0  0  0  0  0
    0.0180    4.0199   -0.5299 H   0  0  0  0  0  0  0  0  0  0  0  0
   -0.9348    5.5335    0.6481 C   0  0  0  0  0  0  0  0  0  0  0  0
   -0.6779    5.6441    1.7073 H   0  0  0  0  0  0  0  0  0  0  0  0
   -0.3364    6.2460    0.0721 H   0  0  0  0  0  0  0  0  0  0  0  0
   -1.9926    5.7854    0.5166 H   0  0  0  0  0  0  0  0  0  0  0  0
  1  2  1  0  0  0  0
  2  3  1  0  0  0  0
  2  4  1  0  0  0  0
  2  5  1  0  0  0  0
  5  6  2  0  0  0  0
  5  7  1  0  0  0  0
  7  8  1  0  0  0  0
  7  9  1  0  0  0  0
  9 10  1  0  0  0  0
  9 11  1  0  0  0  0
  9 29  1  0  0  0  0
 11 12  1  0  0  0  0
 11 13  1  0  0  0  0
 11 14  1  0  0  0  0
 14 15  1  0  0  0  0
 14 16  1  0  0  0  0
 14 17  1  0  0  0  0
 17 18  1  0  0  0  0
 17 19  1  0  0  0  0
 17 20  1  0  0  0  0
 20 21  1  0  0  0  0
 20 22  2  0  0  0  0
 22 23  1  0  0  0  0
 22 26  1  0  0  0  0
 23 24  1  0  0  0  0
 23 25  1  0  0  0  0
 26 27  1  0  0  0  0
 26 28  1  0  0  0  0
 29 30  2  0  0  0  0
 29 31  1  0  0  0  0
 31 32  1  0  0  0  0
 31 33  1  0  0  0  0
 33 34  1  0  0  0  0
 33 35  1  0  0  0  0
 33 36  1  0  0  0  0
M  CHG  1  20   1
M  END
$$$$

  -OEChem-02172215453D

 36 35  0     1  0  0  0  0  0999 V2000
   -3.8562   -1.8922    1.3540 H   0  0  0  0  0  0  0  0  0  0  0  0
   -3.9014   -0.8599    0.9952 C   0  0  0  0  0  0  0  0  0  0  0  0
   -4.3233   -0.2332    1.7852 H   0  0  0  0  0  0  0  0  0  0  0  0
   -4.5534   -0.8189    0.1196 H   0  0  0  0  0  0  0  0  0  0  0  0
   -2.5126   -0.3695    0.6346 C   0  0  0  0  0  0  0  0  0  0  0  0
   -1.5566   -1.1271    0.7227 O   0  0  0  0  0  0  0  0  0  0  0  0
   -2.3418    0.9241    0.1780 N   0  0  0  0  0  0  0  0  0  0  0  0
   -3.1609    1.5180    0.3037 H   0  0  0  0  0  0  0  0  0  0  0  0
   -1.0435    1.6210    0.2344 C   0  0  1  0  0  0  0  0  0  0  0  0
   -0.3869    1.1349    0.9654 H   0  0  0  0  0  0  0  0  0  0  0  0
   -0.3434    1.5985   -1.1459 C   0  0  0  0  0  0  0  0  0  0  0  0
   -1.0172    2.0146   -1.9026 H   0  0  0  0  0  0  0  0  0  0  0  0
    0.5536    2.2257   -1.1064 H   0  0  0  0  0  0  0  0  0  0  0  0
    0.0776    0.1796   -1.5518 C   0  0  0  0  0  0  0  0  0  0  0  0
    0.7408   -0.2374   -0.7850 H   0  0  0  0  0  0  0  0  0  0  0  0
   -0.8106   -0.4562   -1.6153 H   0  0  0  0  0  0  0  0  0  0  0  0
    0.7688    0.1632   -2.9110 C   0  0  0  0  0  0  0  0  0  0  0  0
    0.0915    0.5746   -3.6674 H   0  0  0  0  0  0  0  0  0  0  0  0
    1.6715    0.7832   -2.8706 H   0  0  0  0  0  0  0  0  0  0  0  0
    1.1163   -1.2330   -3.2326 N   0  3  0  0  0  0  0  0  0  0  0  0
    0.8896   -1.9338   -2.5263 H   0  0  0  0  0  0  0  0  0  0  0  0
    1.6684   -1.6126   -4.3479 C   0  0  0  0  0  0  0  0  0  0  0  0
    1.9822   -0.7179   -5.3455 N   0  0  0  0  0  0  0  0  0  0  0  0
    1.6191    0.2295   -5.2668 H   0  0  0  0  0  0  0  0  0  0  0  0
    2.1901   -1.0765   -6.2754 H   0  0  0  0  0  0  0  0  0  0  0  0
    1.9510   -2.9438   -4.5415 N   0  0  0  0  0  0  0  0  0  0  0  0
    1.8852   -3.5778   -3.7469 H   0  0  0  0  0  0  0  0  0  0  0  0
    2.5682   -3.2038   -5.3086 H   0  0  0  0  0  0  0  0  0  0  0  0
   -1.2672    3.0584    0.7634 C   0  0  0  0  0  0  0  0  0  0  0  0
   -1.8972    3.2049    1.8009 O   0  0  0  0  0  0  0  0  0  0  0  0
   -0.9366    4.1853    0.0292 N   0  0  0  0  0  0  0  0  0  0  0  0
   -0.4655    4.0534   -0.8598 H   0  0  0  0  0  0  0  0  0  0  0  0
   -1.2305    5.5444    0.4745 C   0  0  0  0  0  0  0  0  0  0  0  0
   -0.7572    5.7425    1.4423 H   0  0  0  0  0  0  0  0  0  0  0  0
   -0.8516    6.2726   -0.2492 H   0  0  0  0  0  0  0  0  0  0  0  0
   -2.3113    5.6899    0.5768 H   0  0  0  0  0  0  0  0  0  0  0  0
  1  2  1  0  0  0  0
  2  3  1  0  0  0  0
  2  4  1  0  0  0  0
  2  5  1  0  0  0  0
  5  6  2  0  0  0  0
  5  7  1  0  0  0  0
  7  8  1  0  0  0  0
  7  9  1  0  0  0  0
  9 10  1  0  0  0  0
  9 11  1  0  0  0  0
  9 29  1  0  0  0  0
 11 12  1  0  0  0  0
 11 13  1  0  0  0  0
 11 14  1  0  0  0  0
 14 15  1  0  0  0  0
 14 16  1  0  0  0  0
 14 17  1  0  0  0  0
 17 18  1  0  0  0  0
 17 19  1  0  0  0  0
 17 20  1  0  0  0  0
 20 21  1  0  0  0  0
 20 22  2  0  0  0  0
 22 23  1  0  0  0  0
 22 26  1  0  0  0  0
 23 24  1  0  0  0  0
 23 25  1  0  0  0  0
 26 27  1  0  0  0  0
 26 28  1  0  0  0  0
 29 30  2  0  0  0  0
 29 31  1  0  0  0  0
 31 32  1  0  0  0  0
 31 33  1  0  0  0  0
 33 34  1  0  0  0  0
 33 35  1  0  0  0  0
 33 36  1  0  0  0  0
M  CHG  1  20   1
M  END
$$$$

  -OEChem-02172215453D

 36 35  0     1  0  0  0  0  0999 V2000
   -3.8497   -1.8935    1.3872 H   0  0  0  0  0  0  0  0  0  0  0  0
   -3.9069   -0.8714    1.0024 C   0  0  0  0  0  0  0  0  0  0  0  0
   -4.3399   -0.2314    1.7755 H   0  0  0  0  0  0  0  0  0  0  0  0
   -4.5560   -0.8601    0.1238 H   0  0  0  0  0  0  0  0  0  0  0  0
   -2.5222   -0.3735    0.6351 C   0  0  0  0  0  0  0  0  0  0  0  0
   -1.5631   -1.1277    0.7160 O   0  0  0  0  0  0  0  0  0  0  0  0
   -2.3595    0.9212    0.1770 N   0  0  0  0  0  0  0  0  0  0  0  0
   -3.1855    1.5077    0.2853 H   0  0  0  0  0  0  0  0  0  0  0  0
   -1.0635    1.6233    0.2220 C   0  0  1  0  0  0  0  0  0  0  0  0
   -0.4040    1.1377    0.9512 H   0  0  0  0  0  0  0  0  0  0  0  0
   -0.3598    1.6024   -1.1558 C   0  0  0  0  0  0  0  0  0  0  0  0
   -1.0351    2.0075   -1.9172 H   0  0  0  0  0  0  0  0  0  0  0  0
    0.5293    2.2413   -1.1149 H   0  0  0  0  0  0  0  0  0  0  0  0
    0.0704    0.1844   -1.5554 C   0  0  0  0  0  0  0  0  0  0  0  0
    0.7335   -0.2263   -0.7853 H   0  0  0  0  0  0  0  0  0  0  0  0
   -0.8138   -0.4569   -1.6188 H   0  0  0  0  0  0  0  0  0  0  0  0
    0.7660    0.1661   -2.9123 C   0  0  0  0  0  0  0  0  0  0  0  0
    0.0903    0.5714   -3.6732 H   0  0  0  0  0  0  0  0  0  0  0  0
    1.6653    0.7907   -2.8703 H   0  0  0  0  0  0  0  0  0  0  0  0
    1.1225   -1.2293   -3.2280 N   0  3  0  0  0  0  0  0  0  0  0  0
    0.9008   -1.9291   -2.5191 H   0  0  0  0  0  0  0  0  0  0  0  0
    1.6802   -1.6083   -4.3405 C   0  0  0  0  0  0  0  0  0  0  0  0
    1.9914   -0.7144   -5.3393 N   0  0  0  0  0  0  0  0  0  0  0  0
    1.6270    0.2325   -5.2619 H   0  0  0  0  0  0  0  0  0  0  0  0
    2.2019   -1.0739   -6.2680 H   0  0  0  0  0  0  0  0  0  0  0  0
    1.9719   -2.9378   -4.5306 N   0  0  0  0  0  0  0  0  0  0  0  0
    1.9080   -3.5705   -3.7348 H   0  0  0  0  0  0  0  0  0  0  0  0
    2.5942   -3.1942   -5.2948 H   0  0  0  0  0  0  0  0  0  0  0  0
   -1.2762    3.0598    0.7511 C   0  0  0  0  0  0  0  0  0  0  0  0
   -1.6337    3.2087    1.9096 O   0  0  0  0  0  0  0  0  0  0  0  0
   -1.2411    4.1665   -0.0806 N   0  0  0  0  0  0  0  0  0  0  0  0
   -1.0079    4.0201   -1.0572 H   0  0  0  0  0  0  0  0  0  0  0  0
   -1.5431    5.5201    0.3763 C   0  0  0  0  0  0  0  0  0  0  0  0
   -0.8565    5.8171    1.1766 H   0  0  0  0  0  0  0  0  0  0  0  0
   -1.4395    6.2323   -0.4482 H   0  0  0  0  0  0  0  0  0  0  0  0
   -2.5692    5.5782    0.7554 H   0  0  0  0  0  0  0  0  0  0  0  0
  1  2  1  0  0  0  0
  2  3  1  0  0  0  0
  2  4  1  0  0  0  0
  2  5  1  0  0  0  0
  5  6  2  0  0  0  0
  5  7  1  0  0  0  0
  7  8  1  0  0  0  0
  7  9  1  0  0  0  0
  9 10  1  0  0  0  0
  9 11  1  0  0  0  0
  9 29  1  0  0  0  0
 11 12  1  0  0  0  0
 11 13  1  0  0  0  0
 11 14  1  0  0  0  0
 14 15  1  0  0  0  0
 14 16  1  0  0  0  0
 14 17  1  0  0  0  0
 17 18  1  0  0  0  0
 17 19  1  0  0  0  0
 17 20  1  0  0  0  0
 20 21  1  0  0  0  0
 20 22  2  0  0  0  0
 22 23  1  0  0  0  0
 22 26  1  0  0  0  0
 23 24  1  0  0  0  0
 23 25  1  0  0  0  0
 26 27  1  0  0  0  0
 26 28  1  0  0  0  0
 29 30  2  0  0  0  0
 29 31  1  0  0  0  0
 31 32  1  0  0  0  0
 31 33  1  0  0  0  0
 33 34  1  0  0  0  0
 33 35  1  0  0  0  0
 33 36  1  0  0  0  0
M  CHG  1  20   1
M  END
$$$$

  -OEChem-02172215453D

 36 35  0     1  0  0  0  0  0999 V2000
   -3.8557   -1.9206    1.3706 H   0  0  0  0  0  0  0  0  0  0  0  0
   -3.9154   -0.8934    0.9995 C   0  0  0  0  0  0  0  0  0  0  0  0
   -4.3580   -0.2663    1.7777 H   0  0  0  0  0  0  0  0  0  0  0  0
   -4.5576   -0.8745    0.1158 H   0  0  0  0  0  0  0  0  0  0  0  0
   -2.5309   -0.3825    0.6499 C   0  0  0  0  0  0  0  0  0  0  0  0
   -1.5663   -1.1275    0.7434 O   0  0  0  0  0  0  0  0  0  0  0  0
   -2.3749    0.9109    0.1850 N   0  0  0  0  0  0  0  0  0  0  0  0
   -3.2098    1.4887    0.2625 H   0  0  0  0  0  0  0  0  0  0  0  0
   -1.0830    1.6222    0.2207 C   0  0  1  0  0  0  0  0  0  0  0  0
   -0.4189    1.1405    0.9487 H   0  0  0  0  0  0  0  0  0  0  0  0
   -0.3793    1.6021   -1.1555 C   0  0  0  0  0  0  0  0  0  0  0  0
   -1.0566    1.9975   -1.9197 H   0  0  0  0  0  0  0  0  0  0  0  0
    0.5029    2.2508   -1.1158 H   0  0  0  0  0  0  0  0  0  0  0  0
    0.0627    0.1863   -1.5491 C   0  0  0  0  0  0  0  0  0  0  0  0
    0.7327   -0.2124   -0.7786 H   0  0  0  0  0  0  0  0  0  0  0  0
   -0.8142   -0.4655   -1.6064 H   0  0  0  0  0  0  0  0  0  0  0  0
    0.7583    0.1724   -2.9058 C   0  0  0  0  0  0  0  0  0  0  0  0
    0.0786    0.5714   -3.6666 H   0  0  0  0  0  0  0  0  0  0  0  0
    1.6517    0.8054   -2.8642 H   0  0  0  0  0  0  0  0  0  0  0  0
    1.1283   -1.2198   -3.2203 N   0  3  0  0  0  0  0  0  0  0  0  0
    0.9094   -1.9216   -2.5126 H   0  0  0  0  0  0  0  0  0  0  0  0
    1.6897   -1.5943   -4.3325 C   0  0  0  0  0  0  0  0  0  0  0  0
    1.9921   -0.6977   -5.3315 N   0  0  0  0  0  0  0  0  0  0  0  0
    1.6317    0.2502   -5.2477 H   0  0  0  0  0  0  0  0  0  0  0  0
    2.1984   -1.0537   -6.2625 H   0  0  0  0  0  0  0  0  0  0  0  0
    1.9909   -2.9216   -4.5235 N   0  0  0  0  0  0  0  0  0  0  0  0
    1.9307   -3.5557   -3.7287 H   0  0  0  0  0  0  0  0  0  0  0  0
    2.6149   -3.1734   -5.2879 H   0  0  0  0  0  0  0  0  0  0  0  0
   -1.2885    3.0611    0.7405 C   0  0  0  0  0  0  0  0  0  0  0  0
   -1.3321    3.2557    1.9448 O   0  0  0  0  0  0  0  0  0  0  0  0
   -1.5605    4.1123   -0.1186 N   0  0  0  0  0  0  0  0  0  0  0  0
   -1.5832    3.9187   -1.1145 H   0  0  0  0  0  0  0  0  0  0  0  0
   -1.8549    5.4659    0.3434 C   0  0  0  0  0  0  0  0  0  0  0  0
   -1.0142    5.8666    0.9201 H   0  0  0  0  0  0  0  0  0  0  0  0
   -2.0347    6.1285   -0.5089 H   0  0  0  0  0  0  0  0  0  0  0  0
   -2.7480    5.4702    0.9777 H   0  0  0  0  0  0  0  0  0  0  0  0
  1  2  1  0  0  0  0
  2  3  1  0  0  0  0
  2  4  1  0  0  0  0
  2  5  1  0  0  0  0
  5  6  2  0  0  0  0
  5  7  1  0  0  0  0
  7  8  1  0  0  0  0
  7  9  1  0  0  0  0
  9 10  1  0  0  0  0
  9 11  1  0  0  0  0
  9 29  1  0  0  0  0
 11 12  1  0  0  0  0
 11 13  1  0  0  0  0
 11 14  1  0  0  0  0
 14 15  1  0  0  0  0
 14 16  1  0  0  0  0
 14 17  1  0  0  0  0
 17 18  1  0  0  0  0
 17 19  1  0  0  0  0
 17 20  1  0  0  0  0
 20 21  1  0  0  0  0
 20 22  2  0  0  0  0
 22 23  1  0  0  0  0
 22 26  1  0  0  0  0
 23 24  1  0  0  0  0
 23 25  1  0  0  0  0
 26 27  1  0  0  0  0
 26 28  1  0  0  0  0
 29 30  2  0  0  0  0
 29 31  1  0  0  0  0
 31 32  1  0  0  0  0
 31 33  1  0  0  0  0
 33 34  1  0  0  0  0
 33 35  1  0  0  0  0
 33 36  1  0  0  0  0
M  CHG  1  20   1
M  END
$$$$

  -OEChem-02172215453D

 36 35  0     1  0  0  0  0  0999 V2000
   -3.8669   -1.9485    1.3747 H   0  0  0  0  0  0  0  0  0  0  0  0
   -3.9316   -0.9224    1.0020 C   0  0  0  0  0  0  0  0  0  0  0  0
   -4.3921   -0.2996    1.7731 H   0  0  0  0  0  0  0  0  0  0  0  0
   -4.5615   -0.9108    0.1095 H   0  0  0  0  0  0  0  0  0  0  0  0
   -2.5471   -0.3993    0.6711 C   0  0  0  0  0  0  0  0  0  0  0  0
   -1.5775   -1.1355    0.7767 O   0  0  0  0  0  0  0  0  0  0  0  0
   -2.3968    0.8917    0.1979 N   0  0  0  0  0  0  0  0  0  0  0  0
   -3.2386    1.4615    0.2504 H   0  0  0  0  0  0  0  0  0  0  0  0
   -1.1088    1.6112    0.2297 C   0  0  1  0  0  0  0  0  0  0  0  0
   -0.4418    1.1324    0.9574 H   0  0  0  0  0  0  0  0  0  0  0  0
   -0.4042    1.5963   -1.1440 C   0  0  0  0  0  0  0  0  0  0  0  0
   -1.0817    1.9890   -1.9089 H   0  0  0  0  0  0  0  0  0  0  0  0
    0.4729    2.2518   -1.1024 H   0  0  0  0  0  0  0  0  0  0  0  0
    0.0478    0.1834   -1.5356 C   0  0  0  0  0  0  0  0  0  0  0  0
    0.7200   -0.2108   -0.7647 H   0  0  0  0  0  0  0  0  0  0  0  0
   -0.8243   -0.4746   -1.5935 H   0  0  0  0  0  0  0  0  0  0  0  0
    0.7445    0.1786   -2.8917 C   0  0  0  0  0  0  0  0  0  0  0  0
    0.0611    0.5726   -3.6516 H   0  0  0  0  0  0  0  0  0  0  0  0
    1.6316    0.8205   -2.8482 H   0  0  0  0  0  0  0  0  0  0  0  0
    1.1286   -1.2076   -3.2132 N   0  3  0  0  0  0  0  0  0  0  0  0
    0.9217   -1.9151   -2.5078 H   0  0  0  0  0  0  0  0  0  0  0  0
    1.6939   -1.5678   -4.3281 C   0  0  0  0  0  0  0  0  0  0  0  0
    1.9858   -0.6600   -5.3204 N   0  0  0  0  0  0  0  0  0  0  0  0
    1.6142    0.2832   -5.2304 H   0  0  0  0  0  0  0  0  0  0  0  0
    2.2041   -1.0058   -6.2526 H   0  0  0  0  0  0  0  0  0  0  0  0
    2.0147   -2.8895   -4.5272 N   0  0  0  0  0  0  0  0  0  0  0  0
    1.9670   -3.5277   -3.7348 H   0  0  0  0  0  0  0  0  0  0  0  0
    2.6450   -3.1260   -5.2914 H   0  0  0  0  0  0  0  0  0  0  0  0
   -1.3090    3.0537    0.7368 C   0  0  0  0  0  0  0  0  0  0  0  0
   -1.0217    3.3341    1.8893 O   0  0  0  0  0  0  0  0  0  0  0  0
   -1.8749    4.0216   -0.0750 N   0  0  0  0  0  0  0  0  0  0  0  0
   -2.1217    3.7609   -1.0245 H   0  0  0  0  0  0  0  0  0  0  0  0
   -2.1334    5.3868    0.3729 C   0  0  0  0  0  0  0  0  0  0  0  0
   -1.1984    5.8804    0.6591 H   0  0  0  0  0  0  0  0  0  0  0  0
   -2.6001    5.9685   -0.4282 H   0  0  0  0  0  0  0  0  0  0  0  0
   -2.8076    5.3868    1.2363 H   0  0  0  0  0  0  0  0  0  0  0  0
  1  2  1  0  0  0  0
  2  3  1  0  0  0  0
  2  4  1  0  0  0  0
  2  5  1  0  0  0  0
  5  6  2  0  0  0  0
  5  7  1  0  0  0  0
  7  8  1  0  0  0  0
  7  9  1  0  0  0  0
  9 10  1  0  0  0  0
  9 11  1  0  0  0  0
  9 29  1  0  0  0  0
 11 12  1  0  0  0  0
 11 13  1  0  0  0  0
 11 14  1  0  0  0  0
 14 15  1  0  0  0  0
 14 16  1  0  0  0  0
 14 17  1  0  0  0  0
 17 18  1  0  0  0  0
 17 19  1  0  0  0  0
 17 20  1  0  0  0  0
 20 21  1  0  0  0  0
 20 22  2  0  0  0  0
 22 23  1  0  0  0  0
 22 26  1  0  0  0  0
 23 24  1  0  0  0  0
 23 25  1  0  0  0  0
 26 27  1  0  0  0  0
 26 28  1  0  0  0  0
 29 30  2  0  0  0  0
 29 31  1  0  0  0  0
 31 32  1  0  0  0  0
 31 33  1  0  0  0  0
 33 34  1  0  0  0  0
 33 35  1  0  0  0  0
 33 36  1  0  0  0  0
M  CHG  1  20   1
M  END
$$$$

  -OEChem-02172215453D

 36 35  0     1  0  0  0  0  0999 V2000
   -3.8763   -1.9689    1.4291 H   0  0  0  0  0  0  0  0  0  0  0  0
   -3.9503   -0.9621    1.0080 C   0  0  0  0  0  0  0  0  0  0  0  0
   -4.4447   -0.3152    1.7372 H   0  0  0  0  0  0  0  0  0  0  0  0
   -4.5545   -1.0039    0.0988 H   0  0  0  0  0  0  0  0  0  0  0  0
   -2.5670   -0.4266    0.6905 C   0  0  0  0  0  0  0  0  0  0  0  0
   -1.5916   -1.1528    0.8081 O   0  0  0  0  0  0  0  0  0  0  0  0
   -2.4232    0.8638    0.2129 N   0  0  0  0  0  0  0  0  0  0  0  0
   -3.2705    1.4256    0.2522 H   0  0  0  0  0  0  0  0  0  0  0  0
   -1.1393    1.5930    0.2451 C   0  0  1  0  0  0  0  0  0  0  0  0
   -0.4714    1.1163    0.9735 H   0  0  0  0  0  0  0  0  0  0  0  0
   -0.4330    1.5869   -1.1262 C   0  0  0  0  0  0  0  0  0  0  0  0
   -1.1123    1.9791   -1.8903 H   0  0  0  0  0  0  0  0  0  0  0  0
    0.4388    2.2494   -1.0814 H   0  0  0  0  0  0  0  0  0  0  0  0
    0.0309    0.1786   -1.5204 C   0  0  0  0  0  0  0  0  0  0  0  0
    0.7070   -0.2108   -0.7505 H   0  0  0  0  0  0  0  0  0  0  0  0
   -0.8352   -0.4877   -1.5792 H   0  0  0  0  0  0  0  0  0  0  0  0
    0.7295    0.1873   -2.8760 C   0  0  0  0  0  0  0  0  0  0  0  0
    0.0429    0.5795   -3.6341 H   0  0  0  0  0  0  0  0  0  0  0  0
    1.6094    0.8387   -2.8273 H   0  0  0  0  0  0  0  0  0  0  0  0
    1.1291   -1.1924   -3.2081 N   0  3  0  0  0  0  0  0  0  0  0  0
    0.9337   -1.9072   -2.5068 H   0  0  0  0  0  0  0  0  0  0  0  0
    1.6992   -1.5362   -4.3259 C   0  0  0  0  0  0  0  0  0  0  0  0
    1.9812   -0.6162   -5.3098 N   0  0  0  0  0  0  0  0  0  0  0  0
    1.5998    0.3222   -5.2104 H   0  0  0  0  0  0  0  0  0  0  0  0
    2.2051   -0.9500   -6.2451 H   0  0  0  0  0  0  0  0  0  0  0  0
    2.0355   -2.8519   -4.5368 N   0  0  0  0  0  0  0  0  0  0  0  0
    1.9978   -3.4967   -3.7492 H   0  0  0  0  0  0  0  0  0  0  0  0
    2.6694   -3.0728   -5.3025 H   0  0  0  0  0  0  0  0  0  0  0  0
   -1.3329    3.0382    0.7436 C   0  0  0  0  0  0  0  0  0  0  0  0
   -0.7449    3.4203    1.7424 O   0  0  0  0  0  0  0  0  0  0  0  0
   -2.1607    3.9140    0.0623 N   0  0  0  0  0  0  0  0  0  0  0  0
   -2.5882    3.5906   -0.7999 H   0  0  0  0  0  0  0  0  0  0  0  0
   -2.3648    5.2993    0.4757 C   0  0  0  0  0  0  0  0  0  0  0  0
   -1.4217    5.8549    0.4363 H   0  0  0  0  0  0  0  0  0  0  0  0
   -3.0847    5.7923   -0.1847 H   0  0  0  0  0  0  0  0  0  0  0  0
   -2.7532    5.3411    1.4992 H   0  0  0  0  0  0  0  0  0  0  0  0
  1  2  1  0  0  0  0
  2  3  1  0  0  0  0
  2  4  1  0  0  0  0
  2  5  1  0  0  0  0
  5  6  2  0  0  0  0
  5  7  1  0  0  0  0
  7  8  1  0  0  0  0
  7  9  1  0  0  0  0
  9 10  1  0  0  0  0
  9 11  1  0  0  0  0
  9 29  1  0  0  0  0
 11 12  1  0  0  0  0
 11 13  1  0  0  0  0
 11 14  1  0  0  0  0
 14 15  1  0  0  0  0
 14 16  1  0  0  0  0
 14 17  1  0  0  0  0
 17 18  1  0  0  0  0
 17 19  1  0  0  0  0
 17 20  1  0  0  0  0
 20 21  1  0  0  0  0
 20 22  2  0  0  0  0
 22 23  1  0  0  0  0
 22 26  1  0  0  0  0
 23 24  1  0  0  0  0
 23 25  1  0  0  0  0
 26 27  1  0  0  0  0
 26 28  1  0  0  0  0
 29 30  2  0  0  0  0
 29 31  1  0  0  0  0
 31 32  1  0  0  0  0
 31 33  1  0  0  0  0
 33 34  1  0  0  0  0
 33 35  1  0  0  0  0
 33 36  1  0  0  0  0
M  CHG  1  20   1
M  END
$$$$

  -OEChem-02172215453D

 36 35  0     1  0  0  0  0  0999 V2000
   -3.8806   -2.0093    1.4191 H   0  0  0  0  0  0  0  0  0  0  0  0
   -3.9590   -0.9951    1.0170 C   0  0  0  0  0  0  0  0  0  0  0  0
   -4.4472   -0.3618    1.7618 H   0  0  0  0  0  0  0  0  0  0  0  0
   -4.5707   -1.0211    0.1123 H   0  0  0  0  0  0  0  0  0  0  0  0
   -2.5795   -0.4517    0.6984 C   0  0  0  0  0  0  0  0  0  0  0  0
   -1.5992   -1.1696    0.8227 O   0  0  0  0  0  0  0  0  0  0  0  0
   -2.4444    0.8389    0.2187 N   0  0  0  0  0  0  0  0  0  0  0  0
   -3.2961    1.3933    0.2589 H   0  0  0  0  0  0  0  0  0  0  0  0
   -1.1638    1.5758    0.2570 C   0  0  1  0  0  0  0  0  0  0  0  0
   -0.4970    1.1013    0.9875 H   0  0  0  0  0  0  0  0  0  0  0  0
   -0.4555    1.5754   -1.1121 C   0  0  0  0  0  0  0  0  0  0  0  0
   -1.1363    1.9674   -1.8750 H   0  0  0  0  0  0  0  0  0  0  0  0
    0.4134    2.2418   -1.0644 H   0  0  0  0  0  0  0  0  0  0  0  0
    0.0169    0.1714   -1.5095 C   0  0  0  0  0  0  0  0  0  0  0  0
    0.6948   -0.2156   -0.7401 H   0  0  0  0  0  0  0  0  0  0  0  0
   -0.8445   -0.5006   -1.5716 H   0  0  0  0  0  0  0  0  0  0  0  0
    0.7169    0.1926   -2.8637 C   0  0  0  0  0  0  0  0  0  0  0  0
    0.0290    0.5853   -3.6204 H   0  0  0  0  0  0  0  0  0  0  0  0
    1.5922    0.8496   -2.8095 H   0  0  0  0  0  0  0  0  0  0  0  0
    1.1269   -1.1816   -3.2040 N   0  3  0  0  0  0  0  0  0  0  0  0
    0.9356   -1.9025   -2.5079 H   0  0  0  0  0  0  0  0  0  0  0  0
    1.7011   -1.5128   -4.3236 C   0  0  0  0  0  0  0  0  0  0  0  0
    1.9772   -0.5831   -5.3000 N   0  0  0  0  0  0  0  0  0  0  0  0
    1.5911    0.3526   -5.1940 H   0  0  0  0  0  0  0  0  0  0  0  0
    2.2117   -0.9064   -6.2362 H   0  0  0  0  0  0  0  0  0  0  0  0
    2.0504   -2.8237   -4.5426 N   0  0  0  0  0  0  0  0  0  0  0  0
    2.0202   -3.4720   -3.7579 H   0  0  0  0  0  0  0  0  0  0  0  0
    2.6892   -3.0328   -5.3075 H   0  0  0  0  0  0  0  0  0  0  0  0
   -1.3469    3.0244    0.7501 C   0  0  0  0  0  0  0  0  0  0  0  0
   -0.5427    3.5009    1.5354 O   0  0  0  0  0  0  0  0  0  0  0  0
   -2.3801    3.8116    0.2702 N   0  0  0  0  0  0  0  0  0  0  0  0
   -2.9450    3.4414   -0.4874 H   0  0  0  0  0  0  0  0  0  0  0  0
   -2.5619    5.2056    0.6647 C   0  0  0  0  0  0  0  0  0  0  0  0
   -1.7089    5.8116    0.3409 H   0  0  0  0  0  0  0  0  0  0  0  0
   -3.4701    5.6145    0.2111 H   0  0  0  0  0  0  0  0  0  0  0  0
   -2.6564    5.2871    1.7531 H   0  0  0  0  0  0  0  0  0  0  0  0
  1  2  1  0  0  0  0
  2  3  1  0  0  0  0
  2  4  1  0  0  0  0
  2  5  1  0  0  0  0
  5  6  2  0  0  0  0
  5  7  1  0  0  0  0
  7  8  1  0  0  0  0
  7  9  1  0  0  0  0
  9 10  1  0  0  0  0
  9 11  1  0  0  0  0
  9 29  1  0  0  0  0
 11 12  1  0  0  0  0
 11 13  1  0  0  0  0
 11 14  1  0  0  0  0
 14 15  1  0  0  0  0
 14 16  1  0  0  0  0
 14 17  1  0  0  0  0
 17 18  1  0  0  0  0
 17 19  1  0  0  0  0
 17 20  1  0  0  0  0
 20 21  1  0  0  0  0
 20 22  2  0  0  0  0
 22 23  1  0  0  0  0
 22 26  1  0  0  0  0
 23 24  1  0  0  0  0
 23 25  1  0  0  0  0
 26 27  1  0  0  0  0
 26 28  1  0  0  0  0
 29 30  2  0  0  0  0
 29 31  1  0  0  0  0
 31 32  1  0  0  0  0
 31 33  1  0  0  0  0
 33 34  1  0  0  0  0
 33 35  1  0  0  0  0
 33 36  1  0  0  0  0
M  CHG  1  20   1
M  END
$$$$

  -OEChem-02172215453D

 36 35  0     1  0  0  0  0  0999 V2000
   -3.8718   -2.0489    1.4024 H   0  0  0  0  0  0  0  0  0  0  0  0
   -3.9570   -1.0423    0.9834 C   0  0  0  0  0  0  0  0  0  0  0  0
   -4.4880   -0.4110    1.7000 H   0  0  0  0  0  0  0  0  0  0  0  0
   -4.5324   -1.0947    0.0561 H   0  0  0  0  0  0  0  0  0  0  0  0
   -2.5783   -0.4720    0.7101 C   0  0  0  0  0  0  0  0  0  0  0  0
   -1.5898   -1.1715    0.8677 O   0  0  0  0  0  0  0  0  0  0  0  0
   -2.4519    0.8196    0.2296 N   0  0  0  0  0  0  0  0  0  0  0  0
   -3.3139    1.3568    0.2280 H   0  0  0  0  0  0  0  0  0  0  0  0
   -1.1785    1.5719    0.2702 C   0  0  1  0  0  0  0  0  0  0  0  0
   -0.5074    1.1030    1.0003 H   0  0  0  0  0  0  0  0  0  0  0  0
   -0.4756    1.5700   -1.1026 C   0  0  0  0  0  0  0  0  0  0  0  0
   -1.1624    1.9540   -1.8644 H   0  0  0  0  0  0  0  0  0  0  0  0
    0.3889    2.2432   -1.0633 H   0  0  0  0  0  0  0  0  0  0  0  0
    0.0088    0.1689   -1.4956 C   0  0  0  0  0  0  0  0  0  0  0  0
    0.6953   -0.2070   -0.7282 H   0  0  0  0  0  0  0  0  0  0  0  0
   -0.8455   -0.5126   -1.5503 H   0  0  0  0  0  0  0  0  0  0  0  0
    0.7019    0.1936   -2.8535 C   0  0  0  0  0  0  0  0  0  0  0  0
    0.0062    0.5770   -3.6077 H   0  0  0  0  0  0  0  0  0  0  0  0
    1.5695    0.8612   -2.8054 H   0  0  0  0  0  0  0  0  0  0  0  0
    1.1264   -1.1762   -3.1947 N   0  3  0  0  0  0  0  0  0  0  0  0
    0.9498   -1.8984   -2.4962 H   0  0  0  0  0  0  0  0  0  0  0  0
    1.6983   -1.5011   -4.3174 C   0  0  0  0  0  0  0  0  0  0  0  0
    1.9573   -0.5684   -5.2955 N   0  0  0  0  0  0  0  0  0  0  0  0
    1.5576    0.3613   -5.1875 H   0  0  0  0  0  0  0  0  0  0  0  0
    2.1882   -0.8898   -6.2334 H   0  0  0  0  0  0  0  0  0  0  0  0
    2.0632   -2.8076   -4.5377 N   0  0  0  0  0  0  0  0  0  0  0  0
    2.0444   -3.4570   -3.7535 H   0  0  0  0  0  0  0  0  0  0  0  0
    2.6987   -3.0098   -5.3073 H   0  0  0  0  0  0  0  0  0  0  0  0
   -1.3495    3.0259    0.7579 C   0  0  0  0  0  0  0  0  0  0  0  0
   -0.4100    3.5840    1.3034 O   0  0  0  0  0  0  0  0  0  0  0  0
   -2.5213    3.7314    0.5376 N   0  0  0  0  0  0  0  0  0  0  0  0
   -3.2226    3.3117   -0.0621 H   0  0  0  0  0  0  0  0  0  0  0  0
   -2.6931    5.1239    0.9418 C   0  0  0  0  0  0  0  0  0  0  0  0
   -1.9941    5.7704    0.4006 H   0  0  0  0  0  0  0  0  0  0  0  0
   -3.7127    5.4594    0.7282 H   0  0  0  0  0  0  0  0  0  0  0  0
   -2.5138    5.2361    2.0168 H   0  0  0  0  0  0  0  0  0  0  0  0
  1  2  1  0  0  0  0
  2  3  1  0  0  0  0
  2  4  1  0  0  0  0
  2  5  1  0  0  0  0
  5  6  2  0  0  0  0
  5  7  1  0  0  0  0
  7  8  1  0  0  0  0
  7  9  1  0  0  0  0
  9 10  1  0  0  0  0
  9 11  1  0  0  0  0
  9 29  1  0  0  0  0
 11 12  1  0  0  0  0
 11 13  1  0  0  0  0
 11 14  1  0  0  0  0
 14 15  1  0  0  0  0
 14 16  1  0  0  0  0
 14 17  1  0  0  0  0
 17 18  1  0  0  0  0
 17 19  1  0  0  0  0
 17 20  1  0  0  0  0
 20 21  1  0  0  0  0
 20 22  2  0  0  0  0
 22 23  1  0  0  0  0
 22 26  1  0  0  0  0
 23 24  1  0  0  0  0
 23 25  1  0  0  0  0
 26 27  1  0  0  0  0
 26 28  1  0  0  0  0
 29 30  2  0  0  0  0
 29 31  1  0  0  0  0
 31 32  1  0  0  0  0
 31 33  1  0  0  0  0
 33 34  1  0  0  0  0
 33 35  1  0  0  0  0
 33 36  1  0  0  0  0
M  CHG  1  20   1
M  END
$$$$

  -OEChem-02172215453D

 36 35  0     1  0  0  0  0  0999 V2000
   -3.8184   -2.1071    1.2932 H   0  0  0  0  0  0  0  0  0  0  0  0
   -3.9064   -1.1117    0.8480 C   0  0  0  0  0  0  0  0  0  0  0  0
   -4.5823   -0.5134    1.4641 H   0  0  0  0  0  0  0  0  0  0  0  0
   -4.3278   -1.2101   -0.1551 H   0  0  0  0  0  0  0  0  0  0  0  0
   -2.5436   -0.4500    0.7784 C   0  0  0  0  0  0  0  0  0  0  0  0
   -1.5458   -1.0801    1.0893 O   0  0  0  0  0  0  0  0  0  0  0  0
   -2.4260    0.8377    0.2882 N   0  0  0  0  0  0  0  0  0  0  0  0
   -3.2765    1.2763   -0.0524 H   0  0  0  0  0  0  0  0  0  0  0  0
   -1.1700    1.6190    0.2784 C   0  0  1  0  0  0  0  0  0  0  0  0
   -0.4712    1.1772    0.9984 H   0  0  0  0  0  0  0  0  0  0  0  0
   -0.5089    1.5756   -1.1144 C   0  0  0  0  0  0  0  0  0  0  0  0
   -1.2269    1.9179   -1.8671 H   0  0  0  0  0  0  0  0  0  0  0  0
    0.3439    2.2634   -1.1332 H   0  0  0  0  0  0  0  0  0  0  0  0
   -0.0077    0.1700   -1.4685 C   0  0  0  0  0  0  0  0  0  0  0  0
    0.7142   -0.1606   -0.7131 H   0  0  0  0  0  0  0  0  0  0  0  0
   -0.8445   -0.5348   -1.4687 H   0  0  0  0  0  0  0  0  0  0  0  0
    0.6394    0.1735   -2.8491 C   0  0  0  0  0  0  0  0  0  0  0  0
   -0.0914    0.5188   -3.5887 H   0  0  0  0  0  0  0  0  0  0  0  0
    1.4881    0.8664   -2.8454 H   0  0  0  0  0  0  0  0  0  0  0  0
    1.0919   -1.1905   -3.1766 N   0  3  0  0  0  0  0  0  0  0  0  0
    0.9551   -1.9053   -2.4621 H   0  0  0  0  0  0  0  0  0  0  0  0
    1.6338   -1.5189   -4.3131 C   0  0  0  0  0  0  0  0  0  0  0  0
    1.8284   -0.5939   -5.3145 N   0  0  0  0  0  0  0  0  0  0  0  0
    1.6964    0.3917   -5.0962 H   0  0  0  0  0  0  0  0  0  0  0  0
    2.3916   -0.8429   -6.1247 H   0  0  0  0  0  0  0  0  0  0  0  0
    2.0171   -2.8219   -4.5271 N   0  0  0  0  0  0  0  0  0  0  0  0
    2.0088   -3.4833   -3.7527 H   0  0  0  0  0  0  0  0  0  0  0  0
    2.5257   -3.0650   -5.3748 H   0  0  0  0  0  0  0  0  0  0  0  0
   -1.3358    3.0806    0.7527 C   0  0  0  0  0  0  0  0  0  0  0  0
   -0.3376    3.7685    0.9105 O   0  0  0  0  0  0  0  0  0  0  0  0
   -2.5813    3.6771    0.8553 N   0  0  0  0  0  0  0  0  0  0  0  0
   -3.3901    3.0666    0.8574 H   0  0  0  0  0  0  0  0  0  0  0  0
   -2.7575    5.0600    1.2904 C   0  0  0  0  0  0  0  0  0  0  0  0
   -2.2269    5.7451    0.6203 H   0  0  0  0  0  0  0  0  0  0  0  0
   -3.8183    5.3290    1.2846 H   0  0  0  0  0  0  0  0  0  0  0  0
   -2.3708    5.1947    2.3064 H   0  0  0  0  0  0  0  0  0  0  0  0
  1  2  1  0  0  0  0
  2  3  1  0  0  0  0
  2  4  1  0  0  0  0
  2  5  1  0  0  0  0
  5  6  2  0  0  0  0
  5  7  1  0  0  0  0
  7  8  1  0  0  0  0
  7  9  1  0  0  0  0
  9 10  1  0  0  0  0
  9 11  1  0  0  0  0
  9 29  1  0  0  0  0
 11 12  1  0  0  0  0
 11 13  1  0  0  0  0
 11 14  1  0  0  0  0
 14 15  1  0  0  0  0
 14 16  1  0  0  0  0
 14 17  1  0  0  0  0
 17 18  1  0  0  0  0
 17 19  1  0  0  0  0
 17 20  1  0  0  0  0
 20 21  1  0  0  0  0
 20 22  2  0  0  0  0
 22 23  1  0  0  0  0
 22 26  1  0  0  0  0
 23 24  1  0  0  0  0
 23 25  1  0  0  0  0
 26 27  1  0  0  0  0
 26 28  1  0  0  0  0
 29 30  2  0  0  0  0
 29 31  1  0  0  0  0
 31 32  1  0  0  0  0
 31 33  1  0  0  0  0
 33 34  1  0  0  0  0
 33 35  1  0  0  0  0
 33 36  1  0  0  0  0
M  CHG  1  20   1
M  END
$$$$

  -OEChem-02172215453D

 36 35  0     1  0  0  0  0  0999 V2000
   -3.8561   -2.0798    1.2194 H   0  0  0  0  0  0  0  0  0  0  0  0
   -3.9286   -1.0695    0.8069 C   0  0  0  0  0  0  0  0  0  0  0  0
   -4.5875   -0.4778    1.4472 H   0  0  0  0  0  0  0  0  0  0  0  0
   -4.3614   -1.1283   -0.1944 H   0  0  0  0  0  0  0  0  0  0  0  0
   -2.5542   -0.4313    0.7468 C   0  0  0  0  0  0  0  0  0  0  0  0
   -1.5683   -1.0747    1.0681 O   0  0  0  0  0  0  0  0  0  0  0  0
   -2.4146    0.8593    0.2710 N   0  0  0  0  0  0  0  0  0  0  0  0
   -3.2546    1.3170   -0.0737 H   0  0  0  0  0  0  0  0  0  0  0  0
   -1.1511    1.6275    0.2813 C   0  0  1  0  0  0  0  0  0  0  0  0
   -0.4630    1.1773    1.0061 H   0  0  0  0  0  0  0  0  0  0  0  0
   -0.4764    1.5834   -1.1071 C   0  0  0  0  0  0  0  0  0  0  0  0
   -1.1830    1.9393   -1.8645 H   0  0  0  0  0  0  0  0  0  0  0  0
    0.3861    2.2590   -1.1158 H   0  0  0  0  0  0  0  0  0  0  0  0
    0.0129    0.1738   -1.4643 C   0  0  0  0  0  0  0  0  0  0  0  0
    0.7232   -0.1695   -0.7034 H   0  0  0  0  0  0  0  0  0  0  0  0
   -0.8319   -0.5214   -1.4766 H   0  0  0  0  0  0  0  0  0  0  0  0
    0.6735    0.1765   -2.8388 C   0  0  0  0  0  0  0  0  0  0  0  0
   -0.0459    0.5344   -3.5835 H   0  0  0  0  0  0  0  0  0  0  0  0
    1.5312    0.8586   -2.8255 H   0  0  0  0  0  0  0  0  0  0  0  0
    1.1132   -1.1913   -3.1670 N   0  3  0  0  0  0  0  0  0  0  0  0
    0.9705   -1.9049   -2.4524 H   0  0  0  0  0  0  0  0  0  0  0  0
    1.6625   -1.5227   -4.2990 C   0  0  0  0  0  0  0  0  0  0  0  0
    1.8797   -0.6007   -5.2975 N   0  0  0  0  0  0  0  0  0  0  0  0
    1.4712    0.3258   -5.1920 H   0  0  0  0  0  0  0  0  0  0  0  0
    2.0892   -0.9323   -6.2367 H   0  0  0  0  0  0  0  0  0  0  0  0
    2.0482   -2.8250   -4.5090 N   0  0  0  0  0  0  0  0  0  0  0  0
    2.0644   -3.4612   -3.7139 H   0  0  0  0  0  0  0  0  0  0  0  0
    2.6739   -3.0230   -5.2876 H   0  0  0  0  0  0  0  0  0  0  0  0
   -1.3327    3.0837    0.7717 C   0  0  0  0  0  0  0  0  0  0  0  0
   -0.3871    3.8578    0.7314 O   0  0  0  0  0  0  0  0  0  0  0  0
   -2.5751    3.5633    1.1516 N   0  0  0  0  0  0  0  0  0  0  0  0
   -3.2929    2.8715    1.3399 H   0  0  0  0  0  0  0  0  0  0  0  0
   -2.7758    4.9197    1.6537 C   0  0  0  0  0  0  0  0  0  0  0  0
   -2.4586    5.6568    0.9081 H   0  0  0  0  0  0  0  0  0  0  0  0
   -3.8338    5.0905    1.8757 H   0  0  0  0  0  0  0  0  0  0  0  0
   -2.1989    5.0787    2.5712 H   0  0  0  0  0  0  0  0  0  0  0  0
  1  2  1  0  0  0  0
  2  3  1  0  0  0  0
  2  4  1  0  0  0  0
  2  5  1  0  0  0  0
  5  6  2  0  0  0  0
  5  7  1  0  0  0  0
  7  8  1  0  0  0  0
  7  9  1  0  0  0  0
  9 10  1  0  0  0  0
  9 11  1  0  0  0  0
  9 29  1  0  0  0  0
 11 12  1  0  0  0  0
 11 13  1  0  0  0  0
 11 14  1  0  0  0  0
 14 15  1  0  0  0  0
 14 16  1  0  0  0  0
 14 17  1  0  0  0  0
 17 18  1  0  0  0  0
 17 19  1  0  0  0  0
 17 20  1  0  0  0  0
 20 21  1  0  0  0  0
 20 22  2  0  0  0  0
 22 23  1  0  0  0  0
 22 26  1  0  0  0  0
 23 24  1  0  0  0  0
 23 25  1  0  0  0  0
 26 27  1  0  0  0  0
 26 28  1  0  0  0  0
 29 30  2  0  0  0  0
 29 31  1  0  0  0  0
 31 32  1  0  0  0  0
 31 33  1  0  0  0  0
 33 34  1  0  0  0  0
 33 35  1  0  0  0  0
 33 36  1  0  0  0  0
M  CHG  1  20   1
M  END
$$$$

  -OEChem-02172215453D

 36 35  0     1  0  0  0  0  0999 V2000
   -3.8849   -2.0418    1.2537 H   0  0  0  0  0  0  0  0  0  0  0  0
   -3.9408   -1.0427    0.8114 C   0  0  0  0  0  0  0  0  0  0  0  0
   -4.6043   -0.4272    1.4240 H   0  0  0  0  0  0  0  0  0  0  0  0
   -4.3572   -1.1259   -0.1953 H   0  0  0  0  0  0  0  0  0  0  0  0
   -2.5592   -0.4196    0.7540 C   0  0  0  0  0  0  0  0  0  0  0  0
   -1.5807   -1.0737    1.0769 O   0  0  0  0  0  0  0  0  0  0  0  0
   -2.4030    0.8691    0.2791 N   0  0  0  0  0  0  0  0  0  0  0  0
   -3.2435    1.3526   -0.0299 H   0  0  0  0  0  0  0  0  0  0  0  0
   -1.1324    1.6248    0.2986 C   0  0  1  0  0  0  0  0  0  0  0  0
   -0.4506    1.1711    1.0267 H   0  0  0  0  0  0  0  0  0  0  0  0
   -0.4556    1.5734   -1.0896 C   0  0  0  0  0  0  0  0  0  0  0  0
   -1.1569    1.9406   -1.8462 H   0  0  0  0  0  0  0  0  0  0  0  0
    0.4163    2.2366   -1.0965 H   0  0  0  0  0  0  0  0  0  0  0  0
    0.0204    0.1613   -1.4523 C   0  0  0  0  0  0  0  0  0  0  0  0
    0.7270   -0.1929   -0.6935 H   0  0  0  0  0  0  0  0  0  0  0  0
   -0.8314   -0.5251   -1.4695 H   0  0  0  0  0  0  0  0  0  0  0  0
    0.6807    0.1702   -2.8271 C   0  0  0  0  0  0  0  0  0  0  0  0
   -0.0374    0.5403   -3.5670 H   0  0  0  0  0  0  0  0  0  0  0  0
    1.5431    0.8464   -2.8079 H   0  0  0  0  0  0  0  0  0  0  0  0
    1.1119   -1.1962   -3.1718 N   0  3  0  0  0  0  0  0  0  0  0  0
    0.9678   -1.9169   -2.4648 H   0  0  0  0  0  0  0  0  0  0  0  0
    1.6580   -1.5158   -4.3090 C   0  0  0  0  0  0  0  0  0  0  0  0
    1.8784   -0.5813   -5.2954 N   0  0  0  0  0  0  0  0  0  0  0  0
    1.4726    0.3449   -5.1780 H   0  0  0  0  0  0  0  0  0  0  0  0
    2.0888   -0.9002   -6.2389 H   0  0  0  0  0  0  0  0  0  0  0  0
    2.0340   -2.8176   -4.5381 N   0  0  0  0  0  0  0  0  0  0  0  0
    2.0458   -3.4659   -3.7530 H   0  0  0  0  0  0  0  0  0  0  0  0
    2.6530   -3.0110   -5.3233 H   0  0  0  0  0  0  0  0  0  0  0  0
   -1.3244    3.0806    0.7899 C   0  0  0  0  0  0  0  0  0  0  0  0
   -0.4833    3.9331    0.5420 O   0  0  0  0  0  0  0  0  0  0  0  0
   -2.4876    3.4594    1.4381 N   0  0  0  0  0  0  0  0  0  0  0  0
   -3.0907    2.7130    1.7698 H   0  0  0  0  0  0  0  0  0  0  0  0
   -2.7038    4.8085    1.9528 C   0  0  0  0  0  0  0  0  0  0  0  0
   -2.6653    5.5407    1.1392 H   0  0  0  0  0  0  0  0  0  0  0  0
   -3.6848    4.8799    2.4326 H   0  0  0  0  0  0  0  0  0  0  0  0
   -1.9373    5.0652    2.6920 H   0  0  0  0  0  0  0  0  0  0  0  0
  1  2  1  0  0  0  0
  2  3  1  0  0  0  0
  2  4  1  0  0  0  0
  2  5  1  0  0  0  0
  5  6  2  0  0  0  0
  5  7  1  0  0  0  0
  7  8  1  0  0  0  0
  7  9  1  0  0  0  0
  9 10  1  0  0  0  0
  9 11  1  0  0  0  0
  9 29  1  0  0  0  0
 11 12  1  0  0  0  0
 11 13  1  0  0  0  0
 11 14  1  0  0  0  0
 14 15  1  0  0  0  0
 14 16  1  0  0  0  0
 14 17  1  0  0  0  0
 17 18  1  0  0  0  0
 17 19  1  0  0  0  0
 17 20  1  0  0  0  0
 20 21  1  0  0  0  0
 20 22  2  0  0  0  0
 22 23  1  0  0  0  0
 22 26  1  0  0  0  0
 23 24  1  0  0  0  0
 23 25  1  0  0  0  0
 26 27  1  0  0  0  0
 26 28  1  0  0  0  0
 29 30  2  0  0  0  0
 29 31  1  0  0  0  0
 31 32  1  0  0  0  0
 31 33  1  0  0  0  0
 33 34  1  0  0  0  0
 33 35  1  0  0  0  0
 33 36  1  0  0  0  0
M  CHG  1  20   1
M  END
$$$$

  -OEChem-02172215453D

 36 35  0     1  0  0  0  0  0999 V2000
   -3.9022   -2.0018    1.2699 H   0  0  0  0  0  0  0  0  0  0  0  0
   -3.9457   -1.0040    0.8236 C   0  0  0  0  0  0  0  0  0  0  0  0
   -4.5961   -0.3757    1.4371 H   0  0  0  0  0  0  0  0  0  0  0  0
   -4.3698   -1.0850   -0.1800 H   0  0  0  0  0  0  0  0  0  0  0  0
   -2.5557   -0.4016    0.7536 C   0  0  0  0  0  0  0  0  0  0  0  0
   -1.5834   -1.0675    1.0710 O   0  0  0  0  0  0  0  0  0  0  0  0
   -2.3862    0.8862    0.2822 N   0  0  0  0  0  0  0  0  0  0  0  0
   -3.2269    1.3916    0.0094 H   0  0  0  0  0  0  0  0  0  0  0  0
   -1.1096    1.6296    0.3046 C   0  0  1  0  0  0  0  0  0  0  0  0
   -0.4299    1.1724    1.0325 H   0  0  0  0  0  0  0  0  0  0  0  0
   -0.4325    1.5749   -1.0835 C   0  0  0  0  0  0  0  0  0  0  0  0
   -1.1291    1.9512   -1.8402 H   0  0  0  0  0  0  0  0  0  0  0  0
    0.4459    2.2299   -1.0869 H   0  0  0  0  0  0  0  0  0  0  0  0
    0.0302    0.1595   -1.4498 C   0  0  0  0  0  0  0  0  0  0  0  0
    0.7339   -0.2036   -0.6924 H   0  0  0  0  0  0  0  0  0  0  0  0
   -0.8277   -0.5192   -1.4690 H   0  0  0  0  0  0  0  0  0  0  0  0
    0.6905    0.1678   -2.8244 C   0  0  0  0  0  0  0  0  0  0  0  0
   -0.0242    0.5478   -3.5625 H   0  0  0  0  0  0  0  0  0  0  0  0
    1.5587    0.8360   -2.8024 H   0  0  0  0  0  0  0  0  0  0  0  0
    1.1099   -1.2006   -3.1758 N   0  3  0  0  0  0  0  0  0  0  0  0
    0.9562   -1.9244   -2.4739 H   0  0  0  0  0  0  0  0  0  0  0  0
    1.6529   -1.5183   -4.3150 C   0  0  0  0  0  0  0  0  0  0  0  0
    1.8804   -0.5796   -5.2958 N   0  0  0  0  0  0  0  0  0  0  0  0
    1.4802    0.3483   -5.1723 H   0  0  0  0  0  0  0  0  0  0  0  0
    2.0848   -0.8949   -6.2418 H   0  0  0  0  0  0  0  0  0  0  0  0
    2.0177   -2.8219   -4.5521 N   0  0  0  0  0  0  0  0  0  0  0  0
    2.0215   -3.4764   -3.7719 H   0  0  0  0  0  0  0  0  0  0  0  0
    2.6338   -3.0166   -5.3393 H   0  0  0  0  0  0  0  0  0  0  0  0
   -1.3149    3.0818    0.8021 C   0  0  0  0  0  0  0  0  0  0  0  0
   -0.6375    4.0005    0.3623 O   0  0  0  0  0  0  0  0  0  0  0  0
   -2.3267    3.3685    1.7018 N   0  0  0  0  0  0  0  0  0  0  0  0
   -2.7904    2.5785    2.1410 H   0  0  0  0  0  0  0  0  0  0  0  0
   -2.5603    4.7051    2.2402 C   0  0  0  0  0  0  0  0  0  0  0  0
   -2.7988    5.4074    1.4344 H   0  0  0  0  0  0  0  0  0  0  0  0
   -3.3993    4.6905    2.9427 H   0  0  0  0  0  0  0  0  0  0  0  0
   -1.6724    5.0670    2.7697 H   0  0  0  0  0  0  0  0  0  0  0  0
  1  2  1  0  0  0  0
  2  3  1  0  0  0  0
  2  4  1  0  0  0  0
  2  5  1  0  0  0  0
  5  6  2  0  0  0  0
  5  7  1  0  0  0  0
  7  8  1  0  0  0  0
  7  9  1  0  0  0  0
  9 10  1  0  0  0  0
  9 11  1  0  0  0  0
  9 29  1  0  0  0  0
 11 12  1  0  0  0  0
 11 13  1  0  0  0  0
 11 14  1  0  0  0  0
 14 15  1  0  0  0  0
 14 16  1  0  0  0  0
 14 17  1  0  0  0  0
 17 18  1  0  0  0  0
 17 19  1  0  0  0  0
 17 20  1  0  0  0  0
 20 21  1  0  0  0  0
 20 22  2  0  0  0  0
 22 23  1  0  0  0  0
 22 26  1  0  0  0  0
 23 24  1  0  0  0  0
 23 25  1  0  0  0  0
 26 27  1  0  0  0  0
 26 28  1  0  0  0  0
 29 30  2  0  0  0  0
 29 31  1  0  0  0  0
 31 32  1  0  0  0  0
 31 33  1  0  0  0  0
 33 34  1  0  0  0  0
 33 35  1  0  0  0  0
 33 36  1  0  0  0  0
M  CHG  1  20   1
M  END
$$$$

  -OEChem-02172215453D

 36 35  0     1  0  0  0  0  0999 V2000
   -3.9074   -1.9761    1.2847 H   0  0  0  0  0  0  0  0  0  0  0  0
   -3.9469   -0.9788    0.8373 C   0  0  0  0  0  0  0  0  0  0  0  0
   -4.5904   -0.3453    1.4527 H   0  0  0  0  0  0  0  0  0  0  0  0
   -4.3768   -1.0585   -0.1642 H   0  0  0  0  0  0  0  0  0  0  0  0
   -2.5527   -0.3870    0.7603 C   0  0  0  0  0  0  0  0  0  0  0  0
   -1.5845   -1.0593    1.0772 O   0  0  0  0  0  0  0  0  0  0  0  0
   -2.3728    0.8993    0.2892 N   0  0  0  0  0  0  0  0  0  0  0  0
   -3.2120    1.4208    0.0420 H   0  0  0  0  0  0  0  0  0  0  0  0
   -1.0903    1.6303    0.3131 C   0  0  1  0  0  0  0  0  0  0  0  0
   -0.4126    1.1690    1.0399 H   0  0  0  0  0  0  0  0  0  0  0  0
   -0.4129    1.5764   -1.0746 C   0  0  0  0  0  0  0  0  0  0  0  0
   -1.1057    1.9612   -1.8307 H   0  0  0  0  0  0  0  0  0  0  0  0
    0.4691    2.2269   -1.0705 H   0  0  0  0  0  0  0  0  0  0  0  0
    0.0380    0.1591   -1.4483 C   0  0  0  0  0  0  0  0  0  0  0  0
    0.7379   -0.2146   -0.6927 H   0  0  0  0  0  0  0  0  0  0  0  0
   -0.8262   -0.5117   -1.4714 H   0  0  0  0  0  0  0  0  0  0  0  0
    0.6992    0.1689   -2.8226 C   0  0  0  0  0  0  0  0  0  0  0  0
   -0.0118    0.5588   -3.5590 H   0  0  0  0  0  0  0  0  0  0  0  0
    1.5726    0.8301   -2.7969 H   0  0  0  0  0  0  0  0  0  0  0  0
    1.1065   -1.2017   -3.1802 N   0  3  0  0  0  0  0  0  0  0  0  0
    0.9406   -1.9284   -2.4841 H   0  0  0  0  0  0  0  0  0  0  0  0
    1.6476   -1.5191   -4.3204 C   0  0  0  0  0  0  0  0  0  0  0  0
    1.8847   -0.5781   -5.2969 N   0  0  0  0  0  0  0  0  0  0  0  0
    1.4946    0.3537   -5.1695 H   0  0  0  0  0  0  0  0  0  0  0  0
    2.0870   -0.8908   -6.2442 H   0  0  0  0  0  0  0  0  0  0  0  0
    1.9984   -2.8255   -4.5642 N   0  0  0  0  0  0  0  0  0  0  0  0
    1.9988   -3.4837   -3.7872 H   0  0  0  0  0  0  0  0  0  0  0  0
    2.6073   -3.0236   -5.3560 H   0  0  0  0  0  0  0  0  0  0  0  0
   -1.3019    3.0796    0.8129 C   0  0  0  0  0  0  0  0  0  0  0  0
   -0.8362    4.0352    0.2073 O   0  0  0  0  0  0  0  0  0  0  0  0
   -2.0956    3.3101    1.9223 N   0  0  0  0  0  0  0  0  0  0  0  0
   -2.4068    2.4984    2.4487 H   0  0  0  0  0  0  0  0  0  0  0  0
   -2.3396    4.6405    2.4712 C   0  0  0  0  0  0  0  0  0  0  0  0
   -2.8395    5.2754    1.7319 H   0  0  0  0  0  0  0  0  0  0  0  0
   -2.9793    4.5748    3.3567 H   0  0  0  0  0  0  0  0  0  0  0  0
   -1.3963    5.1158    2.7615 H   0  0  0  0  0  0  0  0  0  0  0  0
  1  2  1  0  0  0  0
  2  3  1  0  0  0  0
  2  4  1  0  0  0  0
  2  5  1  0  0  0  0
  5  6  2  0  0  0  0
  5  7  1  0  0  0  0
  7  8  1  0  0  0  0
  7  9  1  0  0  0  0
  9 10  1  0  0  0  0
  9 11  1  0  0  0  0
  9 29  1  0  0  0  0
 11 12  1  0  0  0  0
 11 13  1  0  0  0  0
 11 14  1  0  0  0  0
 14 15  1  0  0  0  0
 14 16  1  0  0  0  0
 14 17  1  0  0  0  0
 17 18  1  0  0  0  0
 17 19  1  0  0  0  0
 17 20  1  0  0  0  0
 20 21  1  0  0  0  0
 20 22  2  0  0  0  0
 22 23  1  0  0  0  0
 22 26  1  0  0  0  0
 23 24  1  0  0  0  0
 23 25  1  0  0  0  0
 26 27  1  0  0  0  0
 26 28  1  0  0  0  0
 29 30  2  0  0  0  0
 29 31  1  0  0  0  0
 31 32  1  0  0  0  0
 31 33  1  0  0  0  0
 33 34  1  0  0  0  0
 33 35  1  0  0  0  0
 33 36  1  0  0  0  0
M  CHG  1  20   1
M  END
$$$$

  -OEChem-02172215453D

 36 35  0     1  0  0  0  0  0999 V2000
   -3.9143   -1.9557    1.2987 H   0  0  0  0  0  0  0  0  0  0  0  0
   -3.9440   -0.9607    0.8454 C   0  0  0  0  0  0  0  0  0  0  0  0
   -4.5847   -0.3182    1.4544 H   0  0  0  0  0  0  0  0  0  0  0  0
   -4.3699   -1.0428   -0.1575 H   0  0  0  0  0  0  0  0  0  0  0  0
   -2.5456   -0.3789    0.7700 C   0  0  0  0  0  0  0  0  0  0  0  0
   -1.5813   -1.0574    1.0874 O   0  0  0  0  0  0  0  0  0  0  0  0
   -2.3566    0.9053    0.2977 N   0  0  0  0  0  0  0  0  0  0  0  0
   -3.1928    1.4358    0.0595 H   0  0  0  0  0  0  0  0  0  0  0  0
   -1.0706    1.6273    0.3252 C   0  0  1  0  0  0  0  0  0  0  0  0
   -0.3934    1.1614    1.0497 H   0  0  0  0  0  0  0  0  0  0  0  0
   -0.3955    1.5760   -1.0626 C   0  0  0  0  0  0  0  0  0  0  0  0
   -1.0890    1.9659   -1.8161 H   0  0  0  0  0  0  0  0  0  0  0  0
    0.4870    2.2257   -1.0556 H   0  0  0  0  0  0  0  0  0  0  0  0
    0.0455    0.1573   -1.4434 C   0  0  0  0  0  0  0  0  0  0  0  0
    0.7436   -0.2243   -0.6900 H   0  0  0  0  0  0  0  0  0  0  0  0
   -0.8232   -0.5074   -1.4677 H   0  0  0  0  0  0  0  0  0  0  0  0
    0.7049    0.1683   -2.8184 C   0  0  0  0  0  0  0  0  0  0  0  0
   -0.0045    0.5663   -3.5522 H   0  0  0  0  0  0  0  0  0  0  0  0
    1.5833    0.8231   -2.7915 H   0  0  0  0  0  0  0  0  0  0  0  0
    1.1027   -1.2031   -3.1830 N   0  3  0  0  0  0  0  0  0  0  0  0
    0.9332   -1.9324   -2.4906 H   0  0  0  0  0  0  0  0  0  0  0  0
    1.6398   -1.5180   -4.3256 C   0  0  0  0  0  0  0  0  0  0  0  0
    1.8814   -0.5739   -5.2978 N   0  0  0  0  0  0  0  0  0  0  0  0
    1.4906    0.3573   -5.1679 H   0  0  0  0  0  0  0  0  0  0  0  0
    2.0814   -0.8845   -6.2462 H   0  0  0  0  0  0  0  0  0  0  0  0
    1.9812   -2.8253   -4.5769 N   0  0  0  0  0  0  0  0  0  0  0  0
    1.9775   -3.4877   -3.8034 H   0  0  0  0  0  0  0  0  0  0  0  0
    2.5872   -3.0234   -5.3709 H   0  0  0  0  0  0  0  0  0  0  0  0
   -1.2831    3.0753    0.8226 C   0  0  0  0  0  0  0  0  0  0  0  0
   -1.0518    4.0353    0.0998 O   0  0  0  0  0  0  0  0  0  0  0  0
   -1.8103    3.2901    2.0828 N   0  0  0  0  0  0  0  0  0  0  0  0
   -1.9714    2.4758    2.6700 H   0  0  0  0  0  0  0  0  0  0  0  0
   -2.0622    4.6181    2.6331 C   0  0  0  0  0  0  0  0  0  0  0  0
   -2.7955    5.1545    2.0215 H   0  0  0  0  0  0  0  0  0  0  0  0
   -2.4550    4.5382    3.6514 H   0  0  0  0  0  0  0  0  0  0  0  0
   -1.1369    5.2032    2.6654 H   0  0  0  0  0  0  0  0  0  0  0  0
  1  2  1  0  0  0  0
  2  3  1  0  0  0  0
  2  4  1  0  0  0  0
  2  5  1  0  0  0  0
  5  6  2  0  0  0  0
  5  7  1  0  0  0  0
  7  8  1  0  0  0  0
  7  9  1  0  0  0  0
  9 10  1  0  0  0  0
  9 11  1  0  0  0  0
  9 29  1  0  0  0  0
 11 12  1  0  0  0  0
 11 13  1  0  0  0  0
 11 14  1  0  0  0  0
 14 15  1  0  0  0  0
 14 16  1  0  0  0  0
 14 17  1  0  0  0  0
 17 18  1  0  0  0  0
 17 19  1  0  0  0  0
 17 20  1  0  0  0  0
 20 21  1  0  0  0  0
 20 22  2  0  0  0  0
 22 23  1  0  0  0  0
 22 26  1  0  0  0  0
 23 24  1  0  0  0  0
 23 25  1  0  0  0  0
 26 27  1  0  0  0  0
 26 28  1  0  0  0  0
 29 30  2  0  0  0  0
 29 31  1  0  0  0  0
 31 32  1  0  0  0  0
 31 33  1  0  0  0  0
 33 34  1  0  0  0  0
 33 35  1  0  0  0  0
 33 36  1  0  0  0  0
M  CHG  1  20   1
M  END
$$$$

  -OEChem-02172215453D

 36 35  0     1  0  0  0  0  0999 V2000
   -3.9179   -1.9438    1.3096 H   0  0  0  0  0  0  0  0  0  0  0  0
   -3.9412   -0.9505    0.8524 C   0  0  0  0  0  0  0  0  0  0  0  0
   -4.5794   -0.3017    1.4572 H   0  0  0  0  0  0  0  0  0  0  0  0
   -4.3659   -1.0335   -0.1508 H   0  0  0  0  0  0  0  0  0  0  0  0
   -2.5392   -0.3770    0.7776 C   0  0  0  0  0  0  0  0  0  0  0  0
   -1.5783   -1.0607    1.0955 O   0  0  0  0  0  0  0  0  0  0  0  0
   -2.3421    0.9051    0.3036 N   0  0  0  0  0  0  0  0  0  0  0  0
   -3.1749    1.4435    0.0708 H   0  0  0  0  0  0  0  0  0  0  0  0
   -1.0541    1.6202    0.3367 C   0  0  1  0  0  0  0  0  0  0  0  0
   -0.3778    1.1500    1.0592 H   0  0  0  0  0  0  0  0  0  0  0  0
   -0.3810    1.5742   -1.0517 C   0  0  0  0  0  0  0  0  0  0  0  0
   -1.0739    1.9682   -1.8034 H   0  0  0  0  0  0  0  0  0  0  0  0
    0.5011    2.2244   -1.0417 H   0  0  0  0  0  0  0  0  0  0  0  0
    0.0524    0.1556   -1.4414 C   0  0  0  0  0  0  0  0  0  0  0  0
    0.7495   -0.2350   -0.6915 H   0  0  0  0  0  0  0  0  0  0  0  0
   -0.8201   -0.5044   -1.4695 H   0  0  0  0  0  0  0  0  0  0  0  0
    0.7104    0.1710   -2.8171 C   0  0  0  0  0  0  0  0  0  0  0  0
    0.0015    0.5757   -3.5478 H   0  0  0  0  0  0  0  0  0  0  0  0
    1.5917    0.8215   -2.7882 H   0  0  0  0  0  0  0  0  0  0  0  0
    1.0996   -1.2015   -3.1873 N   0  3  0  0  0  0  0  0  0  0  0  0
    0.9228   -1.9323   -2.4985 H   0  0  0  0  0  0  0  0  0  0  0  0
    1.6339   -1.5168   -4.3312 C   0  0  0  0  0  0  0  0  0  0  0  0
    1.8805   -0.5707   -5.3000 N   0  0  0  0  0  0  0  0  0  0  0  0
    1.4913    0.3606   -5.1661 H   0  0  0  0  0  0  0  0  0  0  0  0
    2.0728   -0.8797   -6.2507 H   0  0  0  0  0  0  0  0  0  0  0  0
    1.9670   -2.8255   -4.5865 N   0  0  0  0  0  0  0  0  0  0  0  0
    1.9572   -3.4904   -3.8152 H   0  0  0  0  0  0  0  0  0  0  0  0
    2.5734   -3.0253   -5.3800 H   0  0  0  0  0  0  0  0  0  0  0  0
   -1.2644    3.0685    0.8298 C   0  0  0  0  0  0  0  0  0  0  0  0
   -1.2885    4.0032    0.0405 O   0  0  0  0  0  0  0  0  0  0  0  0
   -1.4970    3.3075    2.1716 N   0  0  0  0  0  0  0  0  0  0  0  0
   -1.4962    2.5088    2.8010 H   0  0  0  0  0  0  0  0  0  0  0  0
   -1.7468    4.6371    2.7195 C   0  0  0  0  0  0  0  0  0  0  0  0
   -2.6582    5.0651    2.2887 H   0  0  0  0  0  0  0  0  0  0  0  0
   -1.8709    4.5830    3.8056 H   0  0  0  0  0  0  0  0  0  0  0  0
   -0.9073    5.3062    2.5020 H   0  0  0  0  0  0  0  0  0  0  0  0
  1  2  1  0  0  0  0
  2  3  1  0  0  0  0
  2  4  1  0  0  0  0
  2  5  1  0  0  0  0
  5  6  2  0  0  0  0
  5  7  1  0  0  0  0
  7  8  1  0  0  0  0
  7  9  1  0  0  0  0
  9 10  1  0  0  0  0
  9 11  1  0  0  0  0
  9 29  1  0  0  0  0
 11 12  1  0  0  0  0
 11 13  1  0  0  0  0
 11 14  1  0  0  0  0
 14 15  1  0  0  0  0
 14 16  1  0  0  0  0
 14 17  1  0  0  0  0
 17 18  1  0  0  0  0
 17 19  1  0  0  0  0
 17 20  1  0  0  0  0
 20 21  1  0  0  0  0
 20 22  2  0  0  0  0
 22 23  1  0  0  0  0
 22 26  1  0  0  0  0
 23 24  1  0  0  0  0
 23 25  1  0  0  0  0
 26 27  1  0  0  0  0
 26 28  1  0  0  0  0
 29 30  2  0  0  0  0
 29 31  1  0  0  0  0
 31 32  1  0  0  0  0
 31 33  1  0  0  0  0
 33 34  1  0  0  0  0
 33 35  1  0  0  0  0
 33 36  1  0  0  0  0
M  CHG  1  20   1
M  END
$$$$

  -OEChem-02172215453D

 36 35  0     1  0  0  0  0  0999 V2000
   -3.9223   -1.9340    1.3207 H   0  0  0  0  0  0  0  0  0  0  0  0
   -3.9404   -0.9407    0.8630 C   0  0  0  0  0  0  0  0  0  0  0  0
   -4.5716   -0.2871    1.4700 H   0  0  0  0  0  0  0  0  0  0  0  0
   -4.3699   -1.0212   -0.1384 H   0  0  0  0  0  0  0  0  0  0  0  0
   -2.5348   -0.3769    0.7817 C   0  0  0  0  0  0  0  0  0  0  0  0
   -1.5766   -1.0688    1.0914 O   0  0  0  0  0  0  0  0  0  0  0  0
   -2.3303    0.9029    0.3053 N   0  0  0  0  0  0  0  0  0  0  0  0
   -3.1600    1.4517    0.0842 H   0  0  0  0  0  0  0  0  0  0  0  0
   -1.0399    1.6116    0.3442 C   0  0  1  0  0  0  0  0  0  0  0  0
   -0.3665    1.1351    1.0650 H   0  0  0  0  0  0  0  0  0  0  0  0
   -0.3677    1.5739   -1.0439 C   0  0  0  0  0  0  0  0  0  0  0  0
   -1.0594    1.9745   -1.7935 H   0  0  0  0  0  0  0  0  0  0  0  0
    0.5156    2.2219   -1.0295 H   0  0  0  0  0  0  0  0  0  0  0  0
    0.0582    0.1549   -1.4416 C   0  0  0  0  0  0  0  0  0  0  0  0
    0.7528   -0.2441   -0.6939 H   0  0  0  0  0  0  0  0  0  0  0  0
   -0.8184   -0.4997   -1.4730 H   0  0  0  0  0  0  0  0  0  0  0  0
    0.7165    0.1721   -2.8171 C   0  0  0  0  0  0  0  0  0  0  0  0
    0.0102    0.5838   -3.5464 H   0  0  0  0  0  0  0  0  0  0  0  0
    1.6020    0.8168   -2.7857 H   0  0  0  0  0  0  0  0  0  0  0  0
    1.0971   -1.2015   -3.1921 N   0  3  0  0  0  0  0  0  0  0  0  0
    0.9140   -1.9339   -2.5065 H   0  0  0  0  0  0  0  0  0  0  0  0
    1.6296   -1.5160   -4.3369 C   0  0  0  0  0  0  0  0  0  0  0  0
    1.8824   -0.5687   -5.3029 N   0  0  0  0  0  0  0  0  0  0  0  0
    1.4942    0.3629   -5.1687 H   0  0  0  0  0  0  0  0  0  0  0  0
    2.0721   -0.8774   -6.2541 H   0  0  0  0  0  0  0  0  0  0  0  0
    1.9547   -2.8260   -4.5957 N   0  0  0  0  0  0  0  0  0  0  0  0
    1.9410   -3.4928   -3.8262 H   0  0  0  0  0  0  0  0  0  0  0  0
    2.5602   -3.0272   -5.3893 H   0  0  0  0  0  0  0  0  0  0  0  0
   -1.2461    3.0609    0.8318 C   0  0  0  0  0  0  0  0  0  0  0  0
   -1.5355    3.9438    0.0355 O   0  0  0  0  0  0  0  0  0  0  0  0
   -1.1765    3.3556    2.1806 N   0  0  0  0  0  0  0  0  0  0  0  0
   -0.9948    2.5895    2.8240 H   0  0  0  0  0  0  0  0  0  0  0  0
   -1.4201    4.6881    2.7239 C   0  0  0  0  0  0  0  0  0  0  0  0
   -2.4458    5.0082    2.5115 H   0  0  0  0  0  0  0  0  0  0  0  0
   -1.2760    4.6879    3.8089 H   0  0  0  0  0  0  0  0  0  0  0  0
   -0.7276    5.4146    2.2851 H   0  0  0  0  0  0  0  0  0  0  0  0
  1  2  1  0  0  0  0
  2  3  1  0  0  0  0
  2  4  1  0  0  0  0
  2  5  1  0  0  0  0
  5  6  2  0  0  0  0
  5  7  1  0  0  0  0
  7  8  1  0  0  0  0
  7  9  1  0  0  0  0
  9 10  1  0  0  0  0
  9 11  1  0  0  0  0
  9 29  1  0  0  0  0
 11 12  1  0  0  0  0
 11 13  1  0  0  0  0
 11 14  1  0  0  0  0
 14 15  1  0  0  0  0
 14 16  1  0  0  0  0
 14 17  1  0  0  0  0
 17 18  1  0  0  0  0
 17 19  1  0  0  0  0
 17 20  1  0  0  0  0
 20 21  1  0  0  0  0
 20 22  2  0  0  0  0
 22 23  1  0  0  0  0
 22 26  1  0  0  0  0
 23 24  1  0  0  0  0
 23 25  1  0  0  0  0
 26 27  1  0  0  0  0
 26 28  1  0  0  0  0
 29 30  2  0  0  0  0
 29 31  1  0  0  0  0
 31 32  1  0  0  0  0
 31 33  1  0  0  0  0
 33 34  1  0  0  0  0
 33 35  1  0  0  0  0
 33 36  1  0  0  0  0
M  CHG  1  20   1
M  END
$$$$

  -OEChem-02172215453D

 36 35  0     1  0  0  0  0  0999 V2000
   -3.9318   -1.9191    1.3414 H   0  0  0  0  0  0  0  0  0  0  0  0
   -3.9466   -0.9196    0.8976 C   0  0  0  0  0  0  0  0  0  0  0  0
   -4.5464   -0.2637    1.5333 H   0  0  0  0  0  0  0  0  0  0  0  0
   -4.4087   -0.9788   -0.0906 H   0  0  0  0  0  0  0  0  0  0  0  0
   -2.5347   -0.3787    0.7794 C   0  0  0  0  0  0  0  0  0  0  0  0
   -1.5795   -1.0858    1.0640 O   0  0  0  0  0  0  0  0  0  0  0  0
   -2.3217    0.8982    0.2995 N   0  0  0  0  0  0  0  0  0  0  0  0
   -3.1482    1.4633    0.1068 H   0  0  0  0  0  0  0  0  0  0  0  0
   -1.0279    1.5988    0.3433 C   0  0  1  0  0  0  0  0  0  0  0  0
   -0.3598    1.1157    1.0644 H   0  0  0  0  0  0  0  0  0  0  0  0
   -0.3527    1.5729   -1.0424 C   0  0  0  0  0  0  0  0  0  0  0  0
   -1.0406    1.9843   -1.7895 H   0  0  0  0  0  0  0  0  0  0  0  0
    0.5343    2.2156   -1.0192 H   0  0  0  0  0  0  0  0  0  0  0  0
    0.0656    0.1550   -1.4507 C   0  0  0  0  0  0  0  0  0  0  0  0
    0.7543   -0.2542   -0.7033 H   0  0  0  0  0  0  0  0  0  0  0  0
   -0.8158   -0.4927   -1.4893 H   0  0  0  0  0  0  0  0  0  0  0  0
    0.7289    0.1749   -2.8236 C   0  0  0  0  0  0  0  0  0  0  0  0
    0.0285    0.5956   -3.5536 H   0  0  0  0  0  0  0  0  0  0  0  0
    1.6199    0.8118   -2.7860 H   0  0  0  0  0  0  0  0  0  0  0  0
    1.0991   -1.2005   -3.2020 N   0  3  0  0  0  0  0  0  0  0  0  0
    0.9042   -1.9336   -2.5204 H   0  0  0  0  0  0  0  0  0  0  0  0
    1.6335   -1.5167   -4.3456 C   0  0  0  0  0  0  0  0  0  0  0  0
    1.8994   -0.5697   -5.3084 N   0  0  0  0  0  0  0  0  0  0  0  0
    1.5242    0.3666   -5.1707 H   0  0  0  0  0  0  0  0  0  0  0  0
    2.0811   -0.8787   -6.2611 H   0  0  0  0  0  0  0  0  0  0  0  0
    1.9447   -2.8294   -4.6072 N   0  0  0  0  0  0  0  0  0  0  0  0
    1.9191   -3.4989   -3.8403 H   0  0  0  0  0  0  0  0  0  0  0  0
    2.5511   -3.0351   -5.3990 H   0  0  0  0  0  0  0  0  0  0  0  0
   -1.2323    3.0493    0.8250 C   0  0  0  0  0  0  0  0  0  0  0  0
   -1.7793    3.8587    0.0879 O   0  0  0  0  0  0  0  0  0  0  0  0
   -0.8751    3.4243    2.1071 N   0  0  0  0  0  0  0  0  0  0  0  0
   -0.4916    2.7111    2.7221 H   0  0  0  0  0  0  0  0  0  0  0  0
   -1.1165    4.7594    2.6451 C   0  0  0  0  0  0  0  0  0  0  0  0
   -2.1899    4.9757    2.6695 H   0  0  0  0  0  0  0  0  0  0  0  0
   -0.7259    4.8346    3.6649 H   0  0  0  0  0  0  0  0  0  0  0  0
   -0.6194    5.5171    2.0299 H   0  0  0  0  0  0  0  0  0  0  0  0
  1  2  1  0  0  0  0
  2  3  1  0  0  0  0
  2  4  1  0  0  0  0
  2  5  1  0  0  0  0
  5  6  2  0  0  0  0
  5  7  1  0  0  0  0
  7  8  1  0  0  0  0
  7  9  1  0  0  0  0
  9 10  1  0  0  0  0
  9 11  1  0  0  0  0
  9 29  1  0  0  0  0
 11 12  1  0  0  0  0
 11 13  1  0  0  0  0
 11 14  1  0  0  0  0
 14 15  1  0  0  0  0
 14 16  1  0  0  0  0
 14 17  1  0  0  0  0
 17 18  1  0  0  0  0
 17 19  1  0  0  0  0
 17 20  1  0  0  0  0
 20 21  1  0  0  0  0
 20 22  2  0  0  0  0
 22 23  1  0  0  0  0
 22 26  1  0  0  0  0
 23 24  1  0  0  0  0
 23 25  1  0  0  0  0
 26 27  1  0  0  0  0
 26 28  1  0  0  0  0
 29 30  2  0  0  0  0
 29 31  1  0  0  0  0
 31 32  1  0  0  0  0
 31 33  1  0  0  0  0
 33 34  1  0  0  0  0
 33 35  1  0  0  0  0
 33 36  1  0  0  0  0
M  CHG  1  20   1
M  END
$$$$

  -OEChem-02172215453D

 36 35  0     1  0  0  0  0  0999 V2000
   -3.9361   -1.8992    1.3716 H   0  0  0  0  0  0  0  0  0  0  0  0
   -3.9489   -0.9021    0.9226 C   0  0  0  0  0  0  0  0  0  0  0  0
   -4.5278   -0.2361    1.5673 H   0  0  0  0  0  0  0  0  0  0  0  0
   -4.4323   -0.9618   -0.0554 H   0  0  0  0  0  0  0  0  0  0  0  0
   -2.5336   -0.3774    0.7727 C   0  0  0  0  0  0  0  0  0  0  0  0
   -1.5802   -1.0961    1.0348 O   0  0  0  0  0  0  0  0  0  0  0  0
   -2.3162    0.8970    0.2884 N   0  0  0  0  0  0  0  0  0  0  0  0
   -3.1409    1.4768    0.1314 H   0  0  0  0  0  0  0  0  0  0  0  0
   -1.0208    1.5943    0.3372 C   0  0  1  0  0  0  0  0  0  0  0  0
   -0.3587    1.1092    1.0623 H   0  0  0  0  0  0  0  0  0  0  0  0
   -0.3441    1.5736   -1.0464 C   0  0  0  0  0  0  0  0  0  0  0  0
   -1.0310    1.9903   -1.7917 H   0  0  0  0  0  0  0  0  0  0  0  0
    0.5445    2.2139   -1.0199 H   0  0  0  0  0  0  0  0  0  0  0  0
    0.0703    0.1552   -1.4583 C   0  0  0  0  0  0  0  0  0  0  0  0
    0.7560   -0.2588   -0.7103 H   0  0  0  0  0  0  0  0  0  0  0  0
   -0.8136   -0.4894   -1.4999 H   0  0  0  0  0  0  0  0  0  0  0  0
    0.7362    0.1743   -2.8300 C   0  0  0  0  0  0  0  0  0  0  0  0
    0.0392    0.5987   -3.5609 H   0  0  0  0  0  0  0  0  0  0  0  0
    1.6295    0.8075   -2.7901 H   0  0  0  0  0  0  0  0  0  0  0  0
    1.1011   -1.2028   -3.2090 N   0  3  0  0  0  0  0  0  0  0  0  0
    0.9005   -1.9362   -2.5291 H   0  0  0  0  0  0  0  0  0  0  0  0
    1.6362   -1.5213   -4.3517 C   0  0  0  0  0  0  0  0  0  0  0  0
    1.9082   -0.5754   -5.3137 N   0  0  0  0  0  0  0  0  0  0  0  0
    1.5331    0.3615   -5.1796 H   0  0  0  0  0  0  0  0  0  0  0  0
    2.0966   -0.8852   -6.2649 H   0  0  0  0  0  0  0  0  0  0  0  0
    1.9431   -2.8351   -4.6141 N   0  0  0  0  0  0  0  0  0  0  0  0
    1.9123   -3.5066   -3.8491 H   0  0  0  0  0  0  0  0  0  0  0  0
    2.5478   -3.0430   -5.4067 H   0  0  0  0  0  0  0  0  0  0  0  0
   -1.2239    3.0469    0.8113 C   0  0  0  0  0  0  0  0  0  0  0  0
   -1.9900    3.7746    0.1930 O   0  0  0  0  0  0  0  0  0  0  0  0
   -0.6086    3.5140    1.9583 N   0  0  0  0  0  0  0  0  0  0  0  0
   -0.0467    2.8599    2.4968 H   0  0  0  0  0  0  0  0  0  0  0  0
   -0.8391    4.8501    2.4986 C   0  0  0  0  0  0  0  0  0  0  0  0
   -1.8931    4.9789    2.7670 H   0  0  0  0  0  0  0  0  0  0  0  0
   -0.2326    5.0071    3.3959 H   0  0  0  0  0  0  0  0  0  0  0  0
   -0.5683    5.6146    1.7623 H   0  0  0  0  0  0  0  0  0  0  0  0
  1  2  1  0  0  0  0
  2  3  1  0  0  0  0
  2  4  1  0  0  0  0
  2  5  1  0  0  0  0
  5  6  2  0  0  0  0
  5  7  1  0  0  0  0
  7  8  1  0  0  0  0
  7  9  1  0  0  0  0
  9 10  1  0  0  0  0
  9 11  1  0  0  0  0
  9 29  1  0  0  0  0
 11 12  1  0  0  0  0
 11 13  1  0  0  0  0
 11 14  1  0  0  0  0
 14 15  1  0  0  0  0
 14 16  1  0  0  0  0
 14 17  1  0  0  0  0
 17 18  1  0  0  0  0
 17 19  1  0  0  0  0
 17 20  1  0  0  0  0
 20 21  1  0  0  0  0
 20 22  2  0  0  0  0
 22 23  1  0  0  0  0
 22 26  1  0  0  0  0
 23 24  1  0  0  0  0
 23 25  1  0  0  0  0
 26 27  1  0  0  0  0
 26 28  1  0  0  0  0
 29 30  2  0  0  0  0
 29 31  1  0  0  0  0
 31 32  1  0  0  0  0
 31 33  1  0  0  0  0
 33 34  1  0  0  0  0
 33 35  1  0  0  0  0
 33 36  1  0  0  0  0
M  CHG  1  20   1
M  END
$$$$

  -OEChem-02172215453D

 36 35  0     1  0  0  0  0  0999 V2000
   -3.9314   -1.8916    1.3935 H   0  0  0  0  0  0  0  0  0  0  0  0
   -3.9458   -0.9011    0.9300 C   0  0  0  0  0  0  0  0  0  0  0  0
   -4.5205   -0.2246    1.5676 H   0  0  0  0  0  0  0  0  0  0  0  0
   -4.4347   -0.9736   -0.0444 H   0  0  0  0  0  0  0  0  0  0  0  0
   -2.5311   -0.3804    0.7638 C   0  0  0  0  0  0  0  0  0  0  0  0
   -1.5767   -1.1031    1.0113 O   0  0  0  0  0  0  0  0  0  0  0  0
   -2.3149    0.8930    0.2767 N   0  0  0  0  0  0  0  0  0  0  0  0
   -3.1389    1.4832    0.1552 H   0  0  0  0  0  0  0  0  0  0  0  0
   -1.0207    1.5917    0.3331 C   0  0  1  0  0  0  0  0  0  0  0  0
   -0.3620    1.1070    1.0617 H   0  0  0  0  0  0  0  0  0  0  0  0
   -0.3439    1.5761   -1.0495 C   0  0  0  0  0  0  0  0  0  0  0  0
   -1.0308    1.9960   -1.7929 H   0  0  0  0  0  0  0  0  0  0  0  0
    0.5452    2.2152   -1.0208 H   0  0  0  0  0  0  0  0  0  0  0  0
    0.0705    0.1586   -1.4646 C   0  0  0  0  0  0  0  0  0  0  0  0
    0.7548   -0.2563   -0.7163 H   0  0  0  0  0  0  0  0  0  0  0  0
   -0.8136   -0.4854   -1.5082 H   0  0  0  0  0  0  0  0  0  0  0  0
    0.7376    0.1766   -2.8357 C   0  0  0  0  0  0  0  0  0  0  0  0
    0.0418    0.6012   -3.5679 H   0  0  0  0  0  0  0  0  0  0  0  0
    1.6324    0.8078   -2.7958 H   0  0  0  0  0  0  0  0  0  0  0  0
    1.1001   -1.2016   -3.2119 N   0  3  0  0  0  0  0  0  0  0  0  0
    0.8983   -1.9324   -2.5297 H   0  0  0  0  0  0  0  0  0  0  0  0
    1.6358   -1.5241   -4.3531 C   0  0  0  0  0  0  0  0  0  0  0  0
    1.9111   -0.5812   -5.3172 N   0  0  0  0  0  0  0  0  0  0  0  0
    1.5312    0.3543   -5.1888 H   0  0  0  0  0  0  0  0  0  0  0  0
    2.1033   -0.8944   -6.2666 H   0  0  0  0  0  0  0  0  0  0  0  0
    1.9411   -2.8392   -4.6108 N   0  0  0  0  0  0  0  0  0  0  0  0
    1.9080   -3.5076   -3.8432 H   0  0  0  0  0  0  0  0  0  0  0  0
    2.5466   -3.0510   -5.4018 H   0  0  0  0  0  0  0  0  0  0  0  0
   -1.2272    3.0459    0.8017 C   0  0  0  0  0  0  0  0  0  0  0  0
   -2.1552    3.6961    0.3375 O   0  0  0  0  0  0  0  0  0  0  0  0
   -0.4013    3.6123    1.7554 N   0  0  0  0  0  0  0  0  0  0  0  0
    0.3054    3.0210    2.1839 H   0  0  0  0  0  0  0  0  0  0  0  0
   -0.5977    4.9601    2.2802 C   0  0  0  0  0  0  0  0  0  0  0  0
   -1.5656    5.0378    2.7870 H   0  0  0  0  0  0  0  0  0  0  0  0
    0.1897    5.2057    2.9997 H   0  0  0  0  0  0  0  0  0  0  0  0
   -0.5649    5.6970    1.4704 H   0  0  0  0  0  0  0  0  0  0  0  0
  1  2  1  0  0  0  0
  2  3  1  0  0  0  0
  2  4  1  0  0  0  0
  2  5  1  0  0  0  0
  5  6  2  0  0  0  0
  5  7  1  0  0  0  0
  7  8  1  0  0  0  0
  7  9  1  0  0  0  0
  9 10  1  0  0  0  0
  9 11  1  0  0  0  0
  9 29  1  0  0  0  0
 11 12  1  0  0  0  0
 11 13  1  0  0  0  0
 11 14  1  0  0  0  0
 14 15  1  0  0  0  0
 14 16  1  0  0  0  0
 14 17  1  0  0  0  0
 17 18  1  0  0  0  0
 17 19  1  0  0  0  0
 17 20  1  0  0  0  0
 20 21  1  0  0  0  0
 20 22  2  0  0  0  0
 22 23  1  0  0  0  0
 22 26  1  0  0  0  0
 23 24  1  0  0  0  0
 23 25  1  0  0  0  0
 26 27  1  0  0  0  0
 26 28  1  0  0  0  0
 29 30  2  0  0  0  0
 29 31  1  0  0  0  0
 31 32  1  0  0  0  0
 31 33  1  0  0  0  0
 33 34  1  0  0  0  0
 33 35  1  0  0  0  0
 33 36  1  0  0  0  0
M  CHG  1  20   1
M  END
$$$$

  -OEChem-02172215453D

 36 35  0     1  0  0  0  0  0999 V2000
   -3.9236   -1.8817    1.4171 H   0  0  0  0  0  0  0  0  0  0  0  0
   -3.9448   -0.8900    0.9571 C   0  0  0  0  0  0  0  0  0  0  0  0
   -4.4915   -0.2103    1.6157 H   0  0  0  0  0  0  0  0  0  0  0  0
   -4.4670   -0.9556   -0.0003 H   0  0  0  0  0  0  0  0  0  0  0  0
   -2.5320   -0.3818    0.7447 C   0  0  0  0  0  0  0  0  0  0  0  0
   -1.5762   -1.1131    0.9613 O   0  0  0  0  0  0  0  0  0  0  0  0
   -2.3220    0.8918    0.2557 N   0  0  0  0  0  0  0  0  0  0  0  0
   -3.1459    1.4920    0.1890 H   0  0  0  0  0  0  0  0  0  0  0  0
   -1.0289    1.5929    0.3190 C   0  0  1  0  0  0  0  0  0  0  0  0
   -0.3745    1.1109    1.0536 H   0  0  0  0  0  0  0  0  0  0  0  0
   -0.3474    1.5780   -1.0623 C   0  0  0  0  0  0  0  0  0  0  0  0
   -1.0331    1.9964   -1.8077 H   0  0  0  0  0  0  0  0  0  0  0  0
    0.5412    2.2178   -1.0321 H   0  0  0  0  0  0  0  0  0  0  0  0
    0.0702    0.1608   -1.4771 C   0  0  0  0  0  0  0  0  0  0  0  0
    0.7510   -0.2555   -0.7263 H   0  0  0  0  0  0  0  0  0  0  0  0
   -0.8135   -0.4833   -1.5248 H   0  0  0  0  0  0  0  0  0  0  0  0
    0.7420    0.1772   -2.8459 C   0  0  0  0  0  0  0  0  0  0  0  0
    0.0488    0.6005   -3.5811 H   0  0  0  0  0  0  0  0  0  0  0  0
    1.6365    0.8086   -2.8037 H   0  0  0  0  0  0  0  0  0  0  0  0
    1.1053   -1.2025   -3.2170 N   0  3  0  0  0  0  0  0  0  0  0  0
    0.8978   -1.9319   -2.5346 H   0  0  0  0  0  0  0  0  0  0  0  0
    1.6450   -1.5296   -4.3551 C   0  0  0  0  0  0  0  0  0  0  0  0
    1.9249   -0.5903   -5.3215 N   0  0  0  0  0  0  0  0  0  0  0  0
    1.5508    0.3479   -5.1950 H   0  0  0  0  0  0  0  0  0  0  0  0
    2.1145   -0.9070   -6.2702 H   0  0  0  0  0  0  0  0  0  0  0  0
    1.9483   -2.8463   -4.6068 N   0  0  0  0  0  0  0  0  0  0  0  0
    1.9086   -3.5129   -3.8377 H   0  0  0  0  0  0  0  0  0  0  0  0
    2.5557   -3.0630   -5.3949 H   0  0  0  0  0  0  0  0  0  0  0  0
   -1.2385    3.0489    0.7856 C   0  0  0  0  0  0  0  0  0  0  0  0
   -2.2900    3.6194    0.5216 O   0  0  0  0  0  0  0  0  0  0  0  0
   -0.2576    3.7148    1.4980 N   0  0  0  0  0  0  0  0  0  0  0  0
    0.5700    3.1917    1.7701 H   0  0  0  0  0  0  0  0  0  0  0  0
   -0.4308    5.0690    2.0151 C   0  0  0  0  0  0  0  0  0  0  0  0
   -1.2604    5.1044    2.7295 H   0  0  0  0  0  0  0  0  0  0  0  0
    0.4790    5.3997    2.5257 H   0  0  0  0  0  0  0  0  0  0  0  0
   -0.6402    5.7688    1.1988 H   0  0  0  0  0  0  0  0  0  0  0  0
  1  2  1  0  0  0  0
  2  3  1  0  0  0  0
  2  4  1  0  0  0  0
  2  5  1  0  0  0  0
  5  6  2  0  0  0  0
  5  7  1  0  0  0  0
  7  8  1  0  0  0  0
  7  9  1  0  0  0  0
  9 10  1  0  0  0  0
  9 11  1  0  0  0  0
  9 29  1  0  0  0  0
 11 12  1  0  0  0  0
 11 13  1  0  0  0  0
 11 14  1  0  0  0  0
 14 15  1  0  0  0  0
 14 16  1  0  0  0  0
 14 17  1  0  0  0  0
 17 18  1  0  0  0  0
 17 19  1  0  0  0  0
 17 20  1  0  0  0  0
 20 21  1  0  0  0  0
 20 22  2  0  0  0  0
 22 23  1  0  0  0  0
 22 26  1  0  0  0  0
 23 24  1  0  0  0  0
 23 25  1  0  0  0  0
 26 27  1  0  0  0  0
 26 28  1  0  0  0  0
 29 30  2  0  0  0  0
 29 31  1  0  0  0  0
 31 32  1  0  0  0  0
 31 33  1  0  0  0  0
 33 34  1  0  0  0  0
 33 35  1  0  0  0  0
 33 36  1  0  0  0  0
M  CHG  1  20   1
M  END
$$$$

  -OEChem-02172215453D

 36 35  0     1  0  0  0  0  0999 V2000
   -3.9112   -1.8736    1.4410 H   0  0  0  0  0  0  0  0  0  0  0  0
   -3.9406   -0.8845    0.9754 C   0  0  0  0  0  0  0  0  0  0  0  0
   -4.4652   -0.1983    1.6450 H   0  0  0  0  0  0  0  0  0  0  0  0
   -4.4892   -0.9531    0.0332 H   0  0  0  0  0  0  0  0  0  0  0  0
   -2.5317   -0.3846    0.7214 C   0  0  0  0  0  0  0  0  0  0  0  0
   -1.5745   -1.1214    0.9122 O   0  0  0  0  0  0  0  0  0  0  0  0
   -2.3286    0.8909    0.2343 N   0  0  0  0  0  0  0  0  0  0  0  0
   -3.1519    1.4961    0.2174 H   0  0  0  0  0  0  0  0  0  0  0  0
   -1.0365    1.5944    0.3073 C   0  0  1  0  0  0  0  0  0  0  0  0
   -0.3846    1.1141    1.0452 H   0  0  0  0  0  0  0  0  0  0  0  0
   -0.3510    1.5813   -1.0738 C   0  0  0  0  0  0  0  0  0  0  0  0
   -1.0359    1.9996   -1.8200 H   0  0  0  0  0  0  0  0  0  0  0  0
    0.5382    2.2203   -1.0433 H   0  0  0  0  0  0  0  0  0  0  0  0
    0.0691    0.1649   -1.4897 C   0  0  0  0  0  0  0  0  0  0  0  0
    0.7467   -0.2528   -0.7366 H   0  0  0  0  0  0  0  0  0  0  0  0
   -0.8148   -0.4785   -1.5422 H   0  0  0  0  0  0  0  0  0  0  0  0
    0.7447    0.1790   -2.8568 C   0  0  0  0  0  0  0  0  0  0  0  0
    0.0545    0.6013   -3.5953 H   0  0  0  0  0  0  0  0  0  0  0  0
    1.6400    0.8089   -2.8130 H   0  0  0  0  0  0  0  0  0  0  0  0
    1.1070   -1.2025   -3.2219 N   0  3  0  0  0  0  0  0  0  0  0  0
    0.8964   -1.9283   -2.5366 H   0  0  0  0  0  0  0  0  0  0  0  0
    1.6495   -1.5364   -4.3567 C   0  0  0  0  0  0  0  0  0  0  0  0
    1.9347   -0.6034   -5.3277 N   0  0  0  0  0  0  0  0  0  0  0  0
    1.5554    0.3341   -5.2115 H   0  0  0  0  0  0  0  0  0  0  0  0
    2.1295   -0.9275   -6.2729 H   0  0  0  0  0  0  0  0  0  0  0  0
    1.9524   -2.8548   -4.5997 N   0  0  0  0  0  0  0  0  0  0  0  0
    1.9105   -3.5164   -3.8265 H   0  0  0  0  0  0  0  0  0  0  0  0
    2.5631   -3.0762   -5.3841 H   0  0  0  0  0  0  0  0  0  0  0  0
   -1.2508    3.0509    0.7767 C   0  0  0  0  0  0  0  0  0  0  0  0
   -2.3717    3.5440    0.7304 O   0  0  0  0  0  0  0  0  0  0  0  0
   -0.1877    3.8182    1.2184 N   0  0  0  0  0  0  0  0  0  0  0  0
    0.7156    3.3644    1.3190 H   0  0  0  0  0  0  0  0  0  0  0  0
   -0.3443    5.1820    1.7157 C   0  0  0  0  0  0  0  0  0  0  0  0
   -0.9909    5.1968    2.5997 H   0  0  0  0  0  0  0  0  0  0  0  0
    0.6287    5.5996    1.9927 H   0  0  0  0  0  0  0  0  0  0  0  0
   -0.7871    5.8234    0.9462 H   0  0  0  0  0  0  0  0  0  0  0  0
  1  2  1  0  0  0  0
  2  3  1  0  0  0  0
  2  4  1  0  0  0  0
  2  5  1  0  0  0  0
  5  6  2  0  0  0  0
  5  7  1  0  0  0  0
  7  8  1  0  0  0  0
  7  9  1  0  0  0  0
  9 10  1  0  0  0  0
  9 11  1  0  0  0  0
  9 29  1  0  0  0  0
 11 12  1  0  0  0  0
 11 13  1  0  0  0  0
 11 14  1  0  0  0  0
 14 15  1  0  0  0  0
 14 16  1  0  0  0  0
 14 17  1  0  0  0  0
 17 18  1  0  0  0  0
 17 19  1  0  0  0  0
 17 20  1  0  0  0  0
 20 21  1  0  0  0  0
 20 22  2  0  0  0  0
 22 23  1  0  0  0  0
 22 26  1  0  0  0  0
 23 24  1  0  0  0  0
 23 25  1  0  0  0  0
 26 27  1  0  0  0  0
 26 28  1  0  0  0  0
 29 30  2  0  0  0  0
 29 31  1  0  0  0  0
 31 32  1  0  0  0  0
 31 33  1  0  0  0  0
 33 34  1  0  0  0  0
 33 35  1  0  0  0  0
 33 36  1  0  0  0  0
M  CHG  1  20   1
M  END
$$$$

  -OEChem-02172215453D

 36 35  0     1  0  0  0  0  0999 V2000
   -3.7813   -1.8605    1.4766 H   0  0  0  0  0  0  0  0  0  0  0  0
   -3.8679   -0.8653    1.0319 C   0  0  0  0  0  0  0  0  0  0  0  0
   -4.3021   -0.1882    1.7719 H   0  0  0  0  0  0  0  0  0  0  0  0
   -4.5313   -0.9204    0.1657 H   0  0  0  0  0  0  0  0  0  0  0  0
   -2.5019   -0.3621    0.6085 C   0  0  0  0  0  0  0  0  0  0  0  0
   -1.5412   -1.1183    0.5978 O   0  0  0  0  0  0  0  0  0  0  0  0
   -2.3511    0.9335    0.1571 N   0  0  0  0  0  0  0  0  0  0  0  0
   -3.1663    1.5266    0.3220 H   0  0  0  0  0  0  0  0  0  0  0  0
   -1.0630    1.6435    0.2514 C   0  0  1  0  0  0  0  0  0  0  0  0
   -0.3154    1.0257    0.7607 H   0  0  0  0  0  0  0  0  0  0  0  0
   -0.5668    1.9538   -1.1729 C   0  0  0  0  0  0  0  0  0  0  0  0
   -1.3433    2.5012   -1.7189 H   0  0  0  0  0  0  0  0  0  0  0  0
    0.3201    2.5937   -1.1232 H   0  0  0  0  0  0  0  0  0  0  0  0
   -0.2090    0.6591   -1.9186 C   0  0  0  0  0  0  0  0  0  0  0  0
    0.5630    0.1178   -1.3606 H   0  0  0  0  0  0  0  0  0  0  0  0
   -1.0917    0.0132   -1.9795 H   0  0  0  0  0  0  0  0  0  0  0  0
    0.2832    0.9655   -3.3292 C   0  0  0  0  0  0  0  0  0  0  0  0
   -0.4970    1.5114   -3.8710 H   0  0  0  0  0  0  0  0  0  0  0  0
    1.1778    1.5956   -3.2733 H   0  0  0  0  0  0  0  0  0  0  0  0
    0.5921   -0.3015   -4.0165 N   0  3  0  0  0  0  0  0  0  0  0  0
    0.4682   -1.1593   -3.4785 H   0  0  0  0  0  0  0  0  0  0  0  0
    0.9814   -0.3775   -5.2560 C   0  0  0  0  0  0  0  0  0  0  0  0
    1.1382    0.7450   -6.0366 N   0  0  0  0  0  0  0  0  0  0  0  0
    0.7872    1.6289   -5.6738 H   0  0  0  0  0  0  0  0  0  0  0  0
    1.2009    0.6323   -7.0464 H   0  0  0  0  0  0  0  0  0  0  0  0
    1.2438   -1.6077   -5.8098 N   0  0  0  0  0  0  0  0  0  0  0  0
    1.3008   -2.4180   -5.1954 H   0  0  0  0  0  0  0  0  0  0  0  0
    1.7439   -1.6450   -6.6962 H   0  0  0  0  0  0  0  0  0  0  0  0
   -1.2118    2.9220    1.1089 C   0  0  0  0  0  0  0  0  0  0  0  0
   -2.3170    3.2421    1.5308 O   0  0  0  0  0  0  0  0  0  0  0  0
   -0.1322    3.7555    1.3423 N   0  0  0  0  0  0  0  0  0  0  0  0
    0.7848    3.4402    1.0404 H   0  0  0  0  0  0  0  0  0  0  0  0
   -0.2229    4.9649    2.1549 C   0  0  0  0  0  0  0  0  0  0  0  0
   -0.5326    4.7186    3.1763 H   0  0  0  0  0  0  0  0  0  0  0  0
    0.7487    5.4665    2.2002 H   0  0  0  0  0  0  0  0  0  0  0  0
   -0.9500    5.6628    1.7260 H   0  0  0  0  0  0  0  0  0  0  0  0
  1  2  1  0  0  0  0
  2  3  1  0  0  0  0
  2  4  1  0  0  0  0
  2  5  1  0  0  0  0
  5  6  2  0  0  0  0
  5  7  1  0  0  0  0
  7  8  1  0  0  0  0
  7  9  1  0  0  0  0
  9 10  1  0  0  0  0
  9 11  1  0  0  0  0
  9 29  1  0  0  0  0
 11 12  1  0  0  0  0
 11 13  1  0  0  0  0
 11 14  1  0  0  0  0
 14 15  1  0  0  0  0
 14 16  1  0  0  0  0
 14 17  1  0  0  0  0
 17 18  1  0  0  0  0
 17 19  1  0  0  0  0
 17 20  1  0  0  0  0
 20 21  1  0  0  0  0
 20 22  2  0  0  0  0
 22 23  1  0  0  0  0
 22 26  1  0  0  0  0
 23 24  1  0  0  0  0
 23 25  1  0  0  0  0
 26 27  1  0  0  0  0
 26 28  1  0  0  0  0
 29 30  2  0  0  0  0
 29 31  1  0  0  0  0
 31 32  1  0  0  0  0
 31 33  1  0  0  0  0
 33 34  1  0  0  0  0
 33 35  1  0  0  0  0
 33 36  1  0  0  0  0
M  CHG  1  20   1
M  END
$$$$

  -OEChem-02172215453D

 36 35  0     1  0  0  0  0  0999 V2000
   -3.7570   -1.8893    1.3847 H   0  0  0  0  0  0  0  0  0  0  0  0
   -3.8423   -0.8575    1.0323 C   0  0  0  0  0  0  0  0  0  0  0  0
   -4.2073   -0.2358    1.8540 H   0  0  0  0  0  0  0  0  0  0  0  0
   -4.5616   -0.8224    0.2109 H   0  0  0  0  0  0  0  0  0  0  0  0
   -2.4918   -0.3521    0.5639 C   0  0  0  0  0  0  0  0  0  0  0  0
   -1.5343   -1.1109    0.5067 O   0  0  0  0  0  0  0  0  0  0  0  0
   -2.3541    0.9509    0.1293 N   0  0  0  0  0  0  0  0  0  0  0  0
   -3.1646    1.5352    0.3400 H   0  0  0  0  0  0  0  0  0  0  0  0
   -1.0656    1.6601    0.2293 C   0  0  1  0  0  0  0  0  0  0  0  0
   -0.3169    1.0388    0.7337 H   0  0  0  0  0  0  0  0  0  0  0  0
   -0.5673    1.9733   -1.1957 C   0  0  0  0  0  0  0  0  0  0  0  0
   -1.3419    2.5229   -1.7419 H   0  0  0  0  0  0  0  0  0  0  0  0
    0.3227    2.6085   -1.1476 H   0  0  0  0  0  0  0  0  0  0  0  0
   -0.2108    0.6774   -1.9405 C   0  0  0  0  0  0  0  0  0  0  0  0
    0.5584    0.1346   -1.3794 H   0  0  0  0  0  0  0  0  0  0  0  0
   -1.0953    0.0342   -2.0019 H   0  0  0  0  0  0  0  0  0  0  0  0
    0.2849    0.9713   -3.3524 C   0  0  0  0  0  0  0  0  0  0  0  0
   -0.4913    1.5154   -3.9014 H   0  0  0  0  0  0  0  0  0  0  0  0
    1.1829    1.5968   -3.3006 H   0  0  0  0  0  0  0  0  0  0  0  0
    0.5867   -0.3073   -4.0211 N   0  3  0  0  0  0  0  0  0  0  0  0
    0.4547   -1.1553   -3.4694 H   0  0  0  0  0  0  0  0  0  0  0  0
    0.9781   -0.4082   -5.2580 C   0  0  0  0  0  0  0  0  0  0  0  0
    1.1459    0.6981   -6.0593 N   0  0  0  0  0  0  0  0  0  0  0  0
    0.7967    1.5912   -5.7182 H   0  0  0  0  0  0  0  0  0  0  0  0
    1.2259    0.5659   -7.0655 H   0  0  0  0  0  0  0  0  0  0  0  0
    1.2360   -1.6508   -5.7858 N   0  0  0  0  0  0  0  0  0  0  0  0
    1.2860   -2.4489   -5.1551 H   0  0  0  0  0  0  0  0  0  0  0  0
    1.7391   -1.7089   -6.6693 H   0  0  0  0  0  0  0  0  0  0  0  0
   -1.2193    2.9249    1.1098 C   0  0  0  0  0  0  0  0  0  0  0  0
   -2.2571    3.0972    1.7380 O   0  0  0  0  0  0  0  0  0  0  0  0
   -0.2593    3.9221    1.1216 N   0  0  0  0  0  0  0  0  0  0  0  0
    0.6177    3.7417    0.6431 H   0  0  0  0  0  0  0  0  0  0  0  0
   -0.3761    5.1283    1.9365 C   0  0  0  0  0  0  0  0  0  0  0  0
   -0.4440    4.8691    2.9987 H   0  0  0  0  0  0  0  0  0  0  0  0
    0.4981    5.7710    1.7935 H   0  0  0  0  0  0  0  0  0  0  0  0
   -1.2697    5.6963    1.6564 H   0  0  0  0  0  0  0  0  0  0  0  0
  1  2  1  0  0  0  0
  2  3  1  0  0  0  0
  2  4  1  0  0  0  0
  2  5  1  0  0  0  0
  5  6  2  0  0  0  0
  5  7  1  0  0  0  0
  7  8  1  0  0  0  0
  7  9  1  0  0  0  0
  9 10  1  0  0  0  0
  9 11  1  0  0  0  0
  9 29  1  0  0  0  0
 11 12  1  0  0  0  0
 11 13  1  0  0  0  0
 11 14  1  0  0  0  0
 14 15  1  0  0  0  0
 14 16  1  0  0  0  0
 14 17  1  0  0  0  0
 17 18  1  0  0  0  0
 17 19  1  0  0  0  0
 17 20  1  0  0  0  0
 20 21  1  0  0  0  0
 20 22  2  0  0  0  0
 22 23  1  0  0  0  0
 22 26  1  0  0  0  0
 23 24  1  0  0  0  0
 23 25  1  0  0  0  0
 26 27  1  0  0  0  0
 26 28  1  0  0  0  0
 29 30  2  0  0  0  0
 29 31  1  0  0  0  0
 31 32  1  0  0  0  0
 31 33  1  0  0  0  0
 33 34  1  0  0  0  0
 33 35  1  0  0  0  0
 33 36  1  0  0  0  0
M  CHG  1  20   1
M  END
$$$$

  -OEChem-02172215453D

 36 35  0     1  0  0  0  0  0999 V2000
   -3.7396   -1.8879    1.3619 H   0  0  0  0  0  0  0  0  0  0  0  0
   -3.8294   -0.8507    1.0276 C   0  0  0  0  0  0  0  0  0  0  0  0
   -4.1723   -0.2408    1.8675 H   0  0  0  0  0  0  0  0  0  0  0  0
   -4.5680   -0.8002    0.2243 H   0  0  0  0  0  0  0  0  0  0  0  0
   -2.4886   -0.3422    0.5355 C   0  0  0  0  0  0  0  0  0  0  0  0
   -1.5352   -1.1028    0.4434 O   0  0  0  0  0  0  0  0  0  0  0  0
   -2.3588    0.9664    0.1147 N   0  0  0  0  0  0  0  0  0  0  0  0
   -3.1669    1.5425    0.3518 H   0  0  0  0  0  0  0  0  0  0  0  0
   -1.0687    1.6742    0.2127 C   0  0  1  0  0  0  0  0  0  0  0  0
   -0.3209    1.0497    0.7142 H   0  0  0  0  0  0  0  0  0  0  0  0
   -0.5666    1.9833   -1.2137 C   0  0  0  0  0  0  0  0  0  0  0  0
   -1.3380    2.5336   -1.7636 H   0  0  0  0  0  0  0  0  0  0  0  0
    0.3271    2.6130   -1.1655 H   0  0  0  0  0  0  0  0  0  0  0  0
   -0.2106    0.6840   -1.9538 C   0  0  0  0  0  0  0  0  0  0  0  0
    0.5559    0.1423   -1.3882 H   0  0  0  0  0  0  0  0  0  0  0  0
   -1.0960    0.0423   -2.0147 H   0  0  0  0  0  0  0  0  0  0  0  0
    0.2889    0.9672   -3.3668 C   0  0  0  0  0  0  0  0  0  0  0  0
   -0.4846    1.5099   -3.9212 H   0  0  0  0  0  0  0  0  0  0  0  0
    1.1892    1.5899   -3.3185 H   0  0  0  0  0  0  0  0  0  0  0  0
    0.5879   -0.3183   -4.0245 N   0  3  0  0  0  0  0  0  0  0  0  0
    0.4575   -1.1606   -3.4637 H   0  0  0  0  0  0  0  0  0  0  0  0
    0.9816   -0.4328   -5.2597 C   0  0  0  0  0  0  0  0  0  0  0  0
    1.1552    0.6646   -6.0718 N   0  0  0  0  0  0  0  0  0  0  0  0
    0.7960    1.5591   -5.7453 H   0  0  0  0  0  0  0  0  0  0  0  0
    1.2412    0.5197   -7.0757 H   0  0  0  0  0  0  0  0  0  0  0  0
    1.2369   -1.6816   -5.7745 N   0  0  0  0  0  0  0  0  0  0  0  0
    1.2762   -2.4756   -5.1377 H   0  0  0  0  0  0  0  0  0  0  0  0
    1.7395   -1.7519   -6.6575 H   0  0  0  0  0  0  0  0  0  0  0  0
   -1.2216    2.9272    1.1115 C   0  0  0  0  0  0  0  0  0  0  0  0
   -2.1297    2.9621    1.9324 O   0  0  0  0  0  0  0  0  0  0  0  0
   -0.4517    4.0631    0.9286 N   0  0  0  0  0  0  0  0  0  0  0  0
    0.3144    4.0163    0.2647 H   0  0  0  0  0  0  0  0  0  0  0  0
   -0.6018    5.2677    1.7404 C   0  0  0  0  0  0  0  0  0  0  0  0
   -0.4286    5.0420    2.7982 H   0  0  0  0  0  0  0  0  0  0  0  0
    0.1193    6.0292    1.4280 H   0  0  0  0  0  0  0  0  0  0  0  0
   -1.6096    5.6826    1.6306 H   0  0  0  0  0  0  0  0  0  0  0  0
  1  2  1  0  0  0  0
  2  3  1  0  0  0  0
  2  4  1  0  0  0  0
  2  5  1  0  0  0  0
  5  6  2  0  0  0  0
  5  7  1  0  0  0  0
  7  8  1  0  0  0  0
  7  9  1  0  0  0  0
  9 10  1  0  0  0  0
  9 11  1  0  0  0  0
  9 29  1  0  0  0  0
 11 12  1  0  0  0  0
 11 13  1  0  0  0  0
 11 14  1  0  0  0  0
 14 15  1  0  0  0  0
 14 16  1  0  0  0  0
 14 17  1  0  0  0  0
 17 18  1  0  0  0  0
 17 19  1  0  0  0  0
 17 20  1  0  0  0  0
 20 21  1  0  0  0  0
 20 22  2  0  0  0  0
 22 23  1  0  0  0  0
 22 26  1  0  0  0  0
 23 24  1  0  0  0  0
 23 25  1  0  0  0  0
 26 27  1  0  0  0  0
 26 28  1  0  0  0  0
 29 30  2  0  0  0  0
 29 31  1  0  0  0  0
 31 32  1  0  0  0  0
 31 33  1  0  0  0  0
 33 34  1  0  0  0  0
 33 35  1  0  0  0  0
 33 36  1  0  0  0  0
M  CHG  1  20   1
M  END
$$$$

  -OEChem-02172215453D

 36 35  0     1  0  0  0  0  0999 V2000
   -3.7242   -1.8918    1.3409 H   0  0  0  0  0  0  0  0  0  0  0  0
   -3.8175   -0.8469    1.0315 C   0  0  0  0  0  0  0  0  0  0  0  0
   -4.1340   -0.2537    1.8935 H   0  0  0  0  0  0  0  0  0  0  0  0
   -4.5781   -0.7755    0.2506 H   0  0  0  0  0  0  0  0  0  0  0  0
   -2.4876   -0.3342    0.5140 C   0  0  0  0  0  0  0  0  0  0  0  0
   -1.5380   -1.0956    0.3926 O   0  0  0  0  0  0  0  0  0  0  0  0
   -2.3669    0.9790    0.1033 N   0  0  0  0  0  0  0  0  0  0  0  0
   -3.1750    1.5478    0.3539 H   0  0  0  0  0  0  0  0  0  0  0  0
   -1.0761    1.6862    0.1921 C   0  0  1  0  0  0  0  0  0  0  0  0
   -0.3270    1.0594    0.6896 H   0  0  0  0  0  0  0  0  0  0  0  0
   -0.5689    1.9961   -1.2324 C   0  0  0  0  0  0  0  0  0  0  0  0
   -1.3361    2.5475   -1.7869 H   0  0  0  0  0  0  0  0  0  0  0  0
    0.3278    2.6217   -1.1777 H   0  0  0  0  0  0  0  0  0  0  0  0
   -0.2127    0.6949   -1.9684 C   0  0  0  0  0  0  0  0  0  0  0  0
    0.5499    0.1530   -1.3976 H   0  0  0  0  0  0  0  0  0  0  0  0
   -1.0994    0.0553   -2.0310 H   0  0  0  0  0  0  0  0  0  0  0  0
    0.2935    0.9681   -3.3808 C   0  0  0  0  0  0  0  0  0  0  0  0
   -0.4765    1.5086   -3.9424 H   0  0  0  0  0  0  0  0  0  0  0  0
    1.1957    1.5881   -3.3330 H   0  0  0  0  0  0  0  0  0  0  0  0
    0.5897   -0.3247   -4.0253 N   0  3  0  0  0  0  0  0  0  0  0  0
    0.4535   -1.1607   -3.4564 H   0  0  0  0  0  0  0  0  0  0  0  0
    0.9882   -0.4536   -5.2573 C   0  0  0  0  0  0  0  0  0  0  0  0
    1.1706    0.6347   -6.0798 N   0  0  0  0  0  0  0  0  0  0  0  0
    0.8186    1.5351   -5.7623 H   0  0  0  0  0  0  0  0  0  0  0  0
    1.2564    0.4797   -7.0822 H   0  0  0  0  0  0  0  0  0  0  0  0
    1.2418   -1.7087   -5.7574 N   0  0  0  0  0  0  0  0  0  0  0  0
    1.2775   -2.4951   -5.1109 H   0  0  0  0  0  0  0  0  0  0  0  0
    1.7520   -1.7894   -6.6350 H   0  0  0  0  0  0  0  0  0  0  0  0
   -1.2251    2.9274    1.1053 C   0  0  0  0  0  0  0  0  0  0  0  0
   -1.9451    2.8480    2.0914 O   0  0  0  0  0  0  0  0  0  0  0  0
   -0.7038    4.1644    0.7665 N   0  0  0  0  0  0  0  0  0  0  0  0
   -0.1260    4.2270   -0.0652 H   0  0  0  0  0  0  0  0  0  0  0  0
   -0.8888    5.3598    1.5843 C   0  0  0  0  0  0  0  0  0  0  0  0
   -0.4924    5.1998    2.5929 H   0  0  0  0  0  0  0  0  0  0  0  0
   -0.3641    6.2107    1.1389 H   0  0  0  0  0  0  0  0  0  0  0  0
   -1.9518    5.6122    1.6614 H   0  0  0  0  0  0  0  0  0  0  0  0
  1  2  1  0  0  0  0
  2  3  1  0  0  0  0
  2  4  1  0  0  0  0
  2  5  1  0  0  0  0
  5  6  2  0  0  0  0
  5  7  1  0  0  0  0
  7  8  1  0  0  0  0
  7  9  1  0  0  0  0
  9 10  1  0  0  0  0
  9 11  1  0  0  0  0
  9 29  1  0  0  0  0
 11 12  1  0  0  0  0
 11 13  1  0  0  0  0
 11 14  1  0  0  0  0
 14 15  1  0  0  0  0
 14 16  1  0  0  0  0
 14 17  1  0  0  0  0
 17 18  1  0  0  0  0
 17 19  1  0  0  0  0
 17 20  1  0  0  0  0
 20 21  1  0  0  0  0
 20 22  2  0  0  0  0
 22 23  1  0  0  0  0
 22 26  1  0  0  0  0
 23 24  1  0  0  0  0
 23 25  1  0  0  0  0
 26 27  1  0  0  0  0
 26 28  1  0  0  0  0
 29 30  2  0  0  0  0
 29 31  1  0  0  0  0
 31 32  1  0  0  0  0
 31 33  1  0  0  0  0
 33 34  1  0  0  0  0
 33 35  1  0  0  0  0
 33 36  1  0  0  0  0
M  CHG  1  20   1
M  END
$$$$

  -OEChem-02172215453D

 36 35  0     1  0  0  0  0  0999 V2000
   -3.7149   -1.9003    1.3372 H   0  0  0  0  0  0  0  0  0  0  0  0
   -3.8166   -0.8564    1.0281 C   0  0  0  0  0  0  0  0  0  0  0  0
   -4.1404   -0.2668    1.8899 H   0  0  0  0  0  0  0  0  0  0  0  0
   -4.5748   -0.7919    0.2444 H   0  0  0  0  0  0  0  0  0  0  0  0
   -2.4897   -0.3325    0.5141 C   0  0  0  0  0  0  0  0  0  0  0  0
   -1.5373   -1.0892    0.3863 O   0  0  0  0  0  0  0  0  0  0  0  0
   -2.3777    0.9825    0.1045 N   0  0  0  0  0  0  0  0  0  0  0  0
   -3.1930    1.5454    0.3412 H   0  0  0  0  0  0  0  0  0  0  0  0
   -1.0883    1.6938    0.1827 C   0  0  1  0  0  0  0  0  0  0  0  0
   -0.3371    1.0679    0.6787 H   0  0  0  0  0  0  0  0  0  0  0  0
   -0.5776    2.0025   -1.2405 C   0  0  0  0  0  0  0  0  0  0  0  0
   -1.3453    2.5485   -1.7993 H   0  0  0  0  0  0  0  0  0  0  0  0
    0.3154    2.6335   -1.1806 H   0  0  0  0  0  0  0  0  0  0  0  0
   -0.2157    0.7006   -1.9728 C   0  0  0  0  0  0  0  0  0  0  0  0
    0.5460    0.1609   -1.3982 H   0  0  0  0  0  0  0  0  0  0  0  0
   -1.1018    0.0602   -2.0358 H   0  0  0  0  0  0  0  0  0  0  0  0
    0.2949    0.9696   -3.3847 C   0  0  0  0  0  0  0  0  0  0  0  0
   -0.4736    1.5065   -3.9516 H   0  0  0  0  0  0  0  0  0  0  0  0
    1.1965    1.5905   -3.3359 H   0  0  0  0  0  0  0  0  0  0  0  0
    0.5953   -0.3254   -4.0227 N   0  3  0  0  0  0  0  0  0  0  0  0
    0.4625   -1.1587   -3.4491 H   0  0  0  0  0  0  0  0  0  0  0  0
    0.9983   -0.4605   -5.2526 C   0  0  0  0  0  0  0  0  0  0  0  0
    1.1827    0.6227   -6.0810 N   0  0  0  0  0  0  0  0  0  0  0  0
    0.8391    1.5274   -5.7662 H   0  0  0  0  0  0  0  0  0  0  0  0
    1.2675    0.4629   -7.0829 H   0  0  0  0  0  0  0  0  0  0  0  0
    1.2502   -1.7187   -5.7454 N   0  0  0  0  0  0  0  0  0  0  0  0
    1.2856   -2.5003   -5.0932 H   0  0  0  0  0  0  0  0  0  0  0  0
    1.7640   -1.8048   -6.6204 H   0  0  0  0  0  0  0  0  0  0  0  0
   -1.2278    2.9323    1.0978 C   0  0  0  0  0  0  0  0  0  0  0  0
   -1.7120    2.7849    2.2105 O   0  0  0  0  0  0  0  0  0  0  0  0
   -0.9917    4.2187    0.6436 N   0  0  0  0  0  0  0  0  0  0  0  0
   -0.6390    4.3338   -0.3009 H   0  0  0  0  0  0  0  0  0  0  0  0
   -1.2056    5.4074    1.4646 C   0  0  0  0  0  0  0  0  0  0  0  0
   -0.6006    5.3577    2.3763 H   0  0  0  0  0  0  0  0  0  0  0  0
   -0.9219    6.3085    0.9122 H   0  0  0  0  0  0  0  0  0  0  0  0
   -2.2600    5.4944    1.7482 H   0  0  0  0  0  0  0  0  0  0  0  0
  1  2  1  0  0  0  0
  2  3  1  0  0  0  0
  2  4  1  0  0  0  0
  2  5  1  0  0  0  0
  5  6  2  0  0  0  0
  5  7  1  0  0  0  0
  7  8  1  0  0  0  0
  7  9  1  0  0  0  0
  9 10  1  0  0  0  0
  9 11  1  0  0  0  0
  9 29  1  0  0  0  0
 11 12  1  0  0  0  0
 11 13  1  0  0  0  0
 11 14  1  0  0  0  0
 14 15  1  0  0  0  0
 14 16  1  0  0  0  0
 14 17  1  0  0  0  0
 17 18  1  0  0  0  0
 17 19  1  0  0  0  0
 17 20  1  0  0  0  0
 20 21  1  0  0  0  0
 20 22  2  0  0  0  0
 22 23  1  0  0  0  0
 22 26  1  0  0  0  0
 23 24  1  0  0  0  0
 23 25  1  0  0  0  0
 26 27  1  0  0  0  0
 26 28  1  0  0  0  0
 29 30  2  0  0  0  0
 29 31  1  0  0  0  0
 31 32  1  0  0  0  0
 31 33  1  0  0  0  0
 33 34  1  0  0  0  0
 33 35  1  0  0  0  0
 33 36  1  0  0  0  0
M  CHG  1  20   1
M  END
$$$$

  -OEChem-02172215453D

 36 35  0     1  0  0  0  0  0999 V2000
   -3.7041   -1.8895    1.4030 H   0  0  0  0  0  0  0  0  0  0  0  0
   -3.8256   -0.8673    1.0335 C   0  0  0  0  0  0  0  0  0  0  0  0
   -4.1823   -0.2404    1.8547 H   0  0  0  0  0  0  0  0  0  0  0  0
   -4.5690   -0.8657    0.2329 H   0  0  0  0  0  0  0  0  0  0  0  0
   -2.5016   -0.3387    0.5173 C   0  0  0  0  0  0  0  0  0  0  0  0
   -1.5485   -1.0932    0.3850 O   0  0  0  0  0  0  0  0  0  0  0  0
   -2.3946    0.9764    0.1056 N   0  0  0  0  0  0  0  0  0  0  0  0
   -3.2169    1.5358    0.3234 H   0  0  0  0  0  0  0  0  0  0  0  0
   -1.1076    1.6929    0.1761 C   0  0  1  0  0  0  0  0  0  0  0  0
   -0.3545    1.0676    0.6708 H   0  0  0  0  0  0  0  0  0  0  0  0
   -0.5923    2.0038   -1.2436 C   0  0  0  0  0  0  0  0  0  0  0  0
   -1.3601    2.5439   -1.8080 H   0  0  0  0  0  0  0  0  0  0  0  0
    0.2953    2.6424   -1.1777 H   0  0  0  0  0  0  0  0  0  0  0  0
   -0.2224    0.7031   -1.9729 C   0  0  0  0  0  0  0  0  0  0  0  0
    0.5400    0.1684   -1.3945 H   0  0  0  0  0  0  0  0  0  0  0  0
   -1.1051    0.0580   -2.0387 H   0  0  0  0  0  0  0  0  0  0  0  0
    0.2935    0.9743   -3.3820 C   0  0  0  0  0  0  0  0  0  0  0  0
   -0.4731    1.5097   -3.9527 H   0  0  0  0  0  0  0  0  0  0  0  0
    1.1923    1.5986   -3.3278 H   0  0  0  0  0  0  0  0  0  0  0  0
    0.6017   -0.3197   -4.0182 N   0  3  0  0  0  0  0  0  0  0  0  0
    0.4671   -1.1533   -3.4457 H   0  0  0  0  0  0  0  0  0  0  0  0
    1.0111   -0.4536   -5.2459 C   0  0  0  0  0  0  0  0  0  0  0  0
    1.1953    0.6311   -6.0724 N   0  0  0  0  0  0  0  0  0  0  0  0
    0.8503    1.5353   -5.7579 H   0  0  0  0  0  0  0  0  0  0  0  0
    1.2940    0.4739   -7.0733 H   0  0  0  0  0  0  0  0  0  0  0  0
    1.2707   -1.7107   -5.7375 N   0  0  0  0  0  0  0  0  0  0  0  0
    1.3035   -2.4930   -5.0862 H   0  0  0  0  0  0  0  0  0  0  0  0
    1.7907   -1.7943   -6.6090 H   0  0  0  0  0  0  0  0  0  0  0  0
   -1.2384    2.9326    1.0873 C   0  0  0  0  0  0  0  0  0  0  0  0
   -1.4417    2.7661    2.2800 O   0  0  0  0  0  0  0  0  0  0  0  0
   -1.3072    4.2154    0.5707 N   0  0  0  0  0  0  0  0  0  0  0  0
   -1.1985    4.3319   -0.4316 H   0  0  0  0  0  0  0  0  0  0  0  0
   -1.5291    5.3986    1.3972 C   0  0  0  0  0  0  0  0  0  0  0  0
   -0.7293    5.5042    2.1383 H   0  0  0  0  0  0  0  0  0  0  0  0
   -1.5445    6.2997    0.7762 H   0  0  0  0  0  0  0  0  0  0  0  0
   -2.4869    5.3262    1.9240 H   0  0  0  0  0  0  0  0  0  0  0  0
  1  2  1  0  0  0  0
  2  3  1  0  0  0  0
  2  4  1  0  0  0  0
  2  5  1  0  0  0  0
  5  6  2  0  0  0  0
  5  7  1  0  0  0  0
  7  8  1  0  0  0  0
  7  9  1  0  0  0  0
  9 10  1  0  0  0  0
  9 11  1  0  0  0  0
  9 29  1  0  0  0  0
 11 12  1  0  0  0  0
 11 13  1  0  0  0  0
 11 14  1  0  0  0  0
 14 15  1  0  0  0  0
 14 16  1  0  0  0  0
 14 17  1  0  0  0  0
 17 18  1  0  0  0  0
 17 19  1  0  0  0  0
 17 20  1  0  0  0  0
 20 21  1  0  0  0  0
 20 22  2  0  0  0  0
 22 23  1  0  0  0  0
 22 26  1  0  0  0  0
 23 24  1  0  0  0  0
 23 25  1  0  0  0  0
 26 27  1  0  0  0  0
 26 28  1  0  0  0  0
 29 30  2  0  0  0  0
 29 31  1  0  0  0  0
 31 32  1  0  0  0  0
 31 33  1  0  0  0  0
 33 34  1  0  0  0  0
 33 35  1  0  0  0  0
 33 36  1  0  0  0  0
M  CHG  1  20   1
M  END
$$$$

  -OEChem-02172215453D

 36 35  0     1  0  0  0  0  0999 V2000
   -3.7215   -1.9356    1.3195 H   0  0  0  0  0  0  0  0  0  0  0  0
   -3.8316   -0.8907    1.0162 C   0  0  0  0  0  0  0  0  0  0  0  0
   -4.1769   -0.3121    1.8766 H   0  0  0  0  0  0  0  0  0  0  0  0
   -4.5776   -0.8305    0.2205 H   0  0  0  0  0  0  0  0  0  0  0  0
   -2.5031   -0.3468    0.5284 C   0  0  0  0  0  0  0  0  0  0  0  0
   -1.5414   -1.0921    0.4112 O   0  0  0  0  0  0  0  0  0  0  0  0
   -2.4041    0.9679    0.1126 N   0  0  0  0  0  0  0  0  0  0  0  0
   -3.2375    1.5203    0.3034 H   0  0  0  0  0  0  0  0  0  0  0  0
   -1.1230    1.6958    0.1779 C   0  0  1  0  0  0  0  0  0  0  0  0
   -0.3649    1.0754    0.6715 H   0  0  0  0  0  0  0  0  0  0  0  0
   -0.6092    2.0082   -1.2406 C   0  0  0  0  0  0  0  0  0  0  0  0
   -1.3799    2.5394   -1.8086 H   0  0  0  0  0  0  0  0  0  0  0  0
    0.2718    2.6560   -1.1737 H   0  0  0  0  0  0  0  0  0  0  0  0
   -0.2283    0.7073   -1.9632 C   0  0  0  0  0  0  0  0  0  0  0  0
    0.5377    0.1816   -1.3816 H   0  0  0  0  0  0  0  0  0  0  0  0
   -1.1055    0.0549   -2.0271 H   0  0  0  0  0  0  0  0  0  0  0  0
    0.2871    0.9776   -3.3722 C   0  0  0  0  0  0  0  0  0  0  0  0
   -0.4841    1.5043   -3.9450 H   0  0  0  0  0  0  0  0  0  0  0  0
    1.1804    1.6099   -3.3189 H   0  0  0  0  0  0  0  0  0  0  0  0
    0.6072   -0.3150   -4.0053 N   0  3  0  0  0  0  0  0  0  0  0  0
    0.4839   -1.1489   -3.4306 H   0  0  0  0  0  0  0  0  0  0  0  0
    1.0191   -0.4457   -5.2325 C   0  0  0  0  0  0  0  0  0  0  0  0
    1.1940    0.6408   -6.0589 N   0  0  0  0  0  0  0  0  0  0  0  0
    0.8513    1.5444   -5.7402 H   0  0  0  0  0  0  0  0  0  0  0  0
    1.2900    0.4867   -7.0606 H   0  0  0  0  0  0  0  0  0  0  0  0
    1.2870   -1.7009   -5.7244 N   0  0  0  0  0  0  0  0  0  0  0  0
    1.3306   -2.4823   -5.0725 H   0  0  0  0  0  0  0  0  0  0  0  0
    1.8022   -1.7806   -6.5992 H   0  0  0  0  0  0  0  0  0  0  0  0
   -1.2505    2.9394    1.0810 C   0  0  0  0  0  0  0  0  0  0  0  0
   -1.1440    2.8119    2.2903 O   0  0  0  0  0  0  0  0  0  0  0  0
   -1.6295    4.1664    0.5645 N   0  0  0  0  0  0  0  0  0  0  0  0
   -1.7659    4.2391   -0.4387 H   0  0  0  0  0  0  0  0  0  0  0  0
   -1.8513    5.3470    1.3945 C   0  0  0  0  0  0  0  0  0  0  0  0
   -0.9383    5.6089    1.9403 H   0  0  0  0  0  0  0  0  0  0  0  0
   -2.1386    6.2009    0.7732 H   0  0  0  0  0  0  0  0  0  0  0  0
   -2.6517    5.1625    2.1192 H   0  0  0  0  0  0  0  0  0  0  0  0
  1  2  1  0  0  0  0
  2  3  1  0  0  0  0
  2  4  1  0  0  0  0
  2  5  1  0  0  0  0
  5  6  2  0  0  0  0
  5  7  1  0  0  0  0
  7  8  1  0  0  0  0
  7  9  1  0  0  0  0
  9 10  1  0  0  0  0
  9 11  1  0  0  0  0
  9 29  1  0  0  0  0
 11 12  1  0  0  0  0
 11 13  1  0  0  0  0
 11 14  1  0  0  0  0
 14 15  1  0  0  0  0
 14 16  1  0  0  0  0
 14 17  1  0  0  0  0
 17 18  1  0  0  0  0
 17 19  1  0  0  0  0
 17 20  1  0  0  0  0
 20 21  1  0  0  0  0
 20 22  2  0  0  0  0
 22 23  1  0  0  0  0
 22 26  1  0  0  0  0
 23 24  1  0  0  0  0
 23 25  1  0  0  0  0
 26 27  1  0  0  0  0
 26 28  1  0  0  0  0
 29 30  2  0  0  0  0
 29 31  1  0  0  0  0
 31 32  1  0  0  0  0
 31 33  1  0  0  0  0
 33 34  1  0  0  0  0
 33 35  1  0  0  0  0
 33 36  1  0  0  0  0
M  CHG  1  20   1
M  END
$$$$

  -OEChem-02172215453D

 36 35  0     1  0  0  0  0  0999 V2000
   -3.7436   -1.9493    1.3567 H   0  0  0  0  0  0  0  0  0  0  0  0
   -3.8596   -0.9165    1.0158 C   0  0  0  0  0  0  0  0  0  0  0  0
   -4.2445   -0.3173    1.8449 H   0  0  0  0  0  0  0  0  0  0  0  0
   -4.5785   -0.8948    0.1936 H   0  0  0  0  0  0  0  0  0  0  0  0
   -2.5236   -0.3667    0.5550 C   0  0  0  0  0  0  0  0  0  0  0  0
   -1.5553   -1.1062    0.4645 O   0  0  0  0  0  0  0  0  0  0  0  0
   -2.4241    0.9452    0.1298 N   0  0  0  0  0  0  0  0  0  0  0  0
   -3.2654    1.4949    0.2891 H   0  0  0  0  0  0  0  0  0  0  0  0
   -1.1467    1.6819    0.1891 C   0  0  1  0  0  0  0  0  0  0  0  0
   -0.3860    1.0650    0.6834 H   0  0  0  0  0  0  0  0  0  0  0  0
   -0.6311    1.9941   -1.2274 C   0  0  0  0  0  0  0  0  0  0  0  0
   -1.4034    2.5207   -1.7976 H   0  0  0  0  0  0  0  0  0  0  0  0
    0.2444    2.6492   -1.1582 H   0  0  0  0  0  0  0  0  0  0  0  0
   -0.2383    0.6967   -1.9498 C   0  0  0  0  0  0  0  0  0  0  0  0
    0.5322    0.1770   -1.3685 H   0  0  0  0  0  0  0  0  0  0  0  0
   -1.1094    0.0361   -2.0158 H   0  0  0  0  0  0  0  0  0  0  0  0
    0.2779    0.9791   -3.3565 C   0  0  0  0  0  0  0  0  0  0  0  0
   -0.4965    1.5025   -3.9275 H   0  0  0  0  0  0  0  0  0  0  0  0
    1.1650    1.6197   -3.2972 H   0  0  0  0  0  0  0  0  0  0  0  0
    0.6134   -0.3045   -3.9995 N   0  3  0  0  0  0  0  0  0  0  0  0
    0.4960   -1.1450   -3.4332 H   0  0  0  0  0  0  0  0  0  0  0  0
    1.0292   -0.4188   -5.2272 C   0  0  0  0  0  0  0  0  0  0  0  0
    1.1936    0.6771   -6.0433 N   0  0  0  0  0  0  0  0  0  0  0  0
    0.8379    1.5736   -5.7185 H   0  0  0  0  0  0  0  0  0  0  0  0
    1.2933    0.5319   -7.0460 H   0  0  0  0  0  0  0  0  0  0  0  0
    1.3178   -1.6650   -5.7303 N   0  0  0  0  0  0  0  0  0  0  0  0
    1.3731   -2.4514   -5.0854 H   0  0  0  0  0  0  0  0  0  0  0  0
    1.8399   -1.7275   -6.6024 H   0  0  0  0  0  0  0  0  0  0  0  0
   -1.2690    2.9350    1.0785 C   0  0  0  0  0  0  0  0  0  0  0  0
   -0.8385    2.9122    2.2202 O   0  0  0  0  0  0  0  0  0  0  0  0
   -1.9351    4.0612    0.6272 N   0  0  0  0  0  0  0  0  0  0  0  0
   -2.2840    4.0583   -0.3261 H   0  0  0  0  0  0  0  0  0  0  0  0
   -2.1252    5.2557    1.4452 C   0  0  0  0  0  0  0  0  0  0  0  0
   -1.1586    5.6982    1.7091 H   0  0  0  0  0  0  0  0  0  0  0  0
   -2.7097    6.0026    0.8990 H   0  0  0  0  0  0  0  0  0  0  0  0
   -2.6606    5.0085    2.3685 H   0  0  0  0  0  0  0  0  0  0  0  0
  1  2  1  0  0  0  0
  2  3  1  0  0  0  0
  2  4  1  0  0  0  0
  2  5  1  0  0  0  0
  5  6  2  0  0  0  0
  5  7  1  0  0  0  0
  7  8  1  0  0  0  0
  7  9  1  0  0  0  0
  9 10  1  0  0  0  0
  9 11  1  0  0  0  0
  9 29  1  0  0  0  0
 11 12  1  0  0  0  0
 11 13  1  0  0  0  0
 11 14  1  0  0  0  0
 14 15  1  0  0  0  0
 14 16  1  0  0  0  0
 14 17  1  0  0  0  0
 17 18  1  0  0  0  0
 17 19  1  0  0  0  0
 17 20  1  0  0  0  0
 20 21  1  0  0  0  0
 20 22  2  0  0  0  0
 22 23  1  0  0  0  0
 22 26  1  0  0  0  0
 23 24  1  0  0  0  0
 23 25  1  0  0  0  0
 26 27  1  0  0  0  0
 26 28  1  0  0  0  0
 29 30  2  0  0  0  0
 29 31  1  0  0  0  0
 31 32  1  0  0  0  0
 31 33  1  0  0  0  0
 33 34  1  0  0  0  0
 33 35  1  0  0  0  0
 33 36  1  0  0  0  0
M  CHG  1  20   1
M  END
$$$$

  -OEChem-02172215453D

 36 35  0     1  0  0  0  0  0999 V2000
   -3.7661   -1.9887    1.3448 H   0  0  0  0  0  0  0  0  0  0  0  0
   -3.8813   -0.9528    1.0131 C   0  0  0  0  0  0  0  0  0  0  0  0
   -4.2761   -0.3626    1.8438 H   0  0  0  0  0  0  0  0  0  0  0  0
   -4.5915   -0.9249    0.1835 H   0  0  0  0  0  0  0  0  0  0  0  0
   -2.5414   -0.3955    0.5728 C   0  0  0  0  0  0  0  0  0  0  0  0
   -1.5653   -1.1268    0.5086 O   0  0  0  0  0  0  0  0  0  0  0  0
   -2.4449    0.9153    0.1432 N   0  0  0  0  0  0  0  0  0  0  0  0
   -3.2931    1.4588    0.2835 H   0  0  0  0  0  0  0  0  0  0  0  0
   -1.1717    1.6612    0.2040 C   0  0  1  0  0  0  0  0  0  0  0  0
   -0.4095    1.0469    0.6997 H   0  0  0  0  0  0  0  0  0  0  0  0
   -0.6548    1.9809   -1.2086 C   0  0  0  0  0  0  0  0  0  0  0  0
   -1.4279    2.5064   -1.7785 H   0  0  0  0  0  0  0  0  0  0  0  0
    0.2166    2.6410   -1.1338 H   0  0  0  0  0  0  0  0  0  0  0  0
   -0.2509    0.6891   -1.9339 C   0  0  0  0  0  0  0  0  0  0  0  0
    0.5224    0.1733   -1.3527 H   0  0  0  0  0  0  0  0  0  0  0  0
   -1.1163    0.0215   -2.0047 H   0  0  0  0  0  0  0  0  0  0  0  0
    0.2666    0.9858   -3.3371 C   0  0  0  0  0  0  0  0  0  0  0  0
   -0.5109    1.5065   -3.9063 H   0  0  0  0  0  0  0  0  0  0  0  0
    1.1473    1.6343   -3.2697 H   0  0  0  0  0  0  0  0  0  0  0  0
    0.6153   -0.2887   -3.9904 N   0  3  0  0  0  0  0  0  0  0  0  0
    0.5062   -1.1350   -3.4313 H   0  0  0  0  0  0  0  0  0  0  0  0
    1.0352   -0.3878   -5.2181 C   0  0  0  0  0  0  0  0  0  0  0  0
    1.1918    0.7162   -6.0250 N   0  0  0  0  0  0  0  0  0  0  0  0
    0.8267    1.6070   -5.6950 H   0  0  0  0  0  0  0  0  0  0  0  0
    1.3007    0.5807   -7.0280 H   0  0  0  0  0  0  0  0  0  0  0  0
    1.3371   -1.6268   -5.7303 N   0  0  0  0  0  0  0  0  0  0  0  0
    1.4003   -2.4161   -5.0897 H   0  0  0  0  0  0  0  0  0  0  0  0
    1.8663   -1.6761   -6.5989 H   0  0  0  0  0  0  0  0  0  0  0  0
   -1.2907    2.9203    1.0842 C   0  0  0  0  0  0  0  0  0  0  0  0
   -0.5760    3.0482    2.0653 O   0  0  0  0  0  0  0  0  0  0  0  0
   -2.2007    3.9142    0.7681 N   0  0  0  0  0  0  0  0  0  0  0  0
   -2.7284    3.8193   -0.0938 H   0  0  0  0  0  0  0  0  0  0  0  0
   -2.3467    5.1362    1.5533 C   0  0  0  0  0  0  0  0  0  0  0  0
   -1.4227    5.7236    1.5243 H   0  0  0  0  0  0  0  0  0  0  0  0
   -3.1603    5.7503    1.1550 H   0  0  0  0  0  0  0  0  0  0  0  0
   -2.5772    4.8969    2.5972 H   0  0  0  0  0  0  0  0  0  0  0  0
  1  2  1  0  0  0  0
  2  3  1  0  0  0  0
  2  4  1  0  0  0  0
  2  5  1  0  0  0  0
  5  6  2  0  0  0  0
  5  7  1  0  0  0  0
  7  8  1  0  0  0  0
  7  9  1  0  0  0  0
  9 10  1  0  0  0  0
  9 11  1  0  0  0  0
  9 29  1  0  0  0  0
 11 12  1  0  0  0  0
 11 13  1  0  0  0  0
 11 14  1  0  0  0  0
 14 15  1  0  0  0  0
 14 16  1  0  0  0  0
 14 17  1  0  0  0  0
 17 18  1  0  0  0  0
 17 19  1  0  0  0  0
 17 20  1  0  0  0  0
 20 21  1  0  0  0  0
 20 22  2  0  0  0  0
 22 23  1  0  0  0  0
 22 26  1  0  0  0  0
 23 24  1  0  0  0  0
 23 25  1  0  0  0  0
 26 27  1  0  0  0  0
 26 28  1  0  0  0  0
 29 30  2  0  0  0  0
 29 31  1  0  0  0  0
 31 32  1  0  0  0  0
 31 33  1  0  0  0  0
 33 34  1  0  0  0  0
 33 35  1  0  0  0  0
 33 36  1  0  0  0  0
M  CHG  1  20   1
M  END
$$$$

  -OEChem-02172215453D

 36 35  0     1  0  0  0  0  0999 V2000
   -3.7828   -2.0282    1.3401 H   0  0  0  0  0  0  0  0  0  0  0  0
   -3.9001   -0.9985    0.9900 C   0  0  0  0  0  0  0  0  0  0  0  0
   -4.3369   -0.4041    1.7964 H   0  0  0  0  0  0  0  0  0  0  0  0
   -4.5768   -0.9922    0.1323 H   0  0  0  0  0  0  0  0  0  0  0  0
   -2.5522   -0.4270    0.5949 C   0  0  0  0  0  0  0  0  0  0  0  0
   -1.5661   -1.1462    0.5687 O   0  0  0  0  0  0  0  0  0  0  0  0
   -2.4586    0.8828    0.1622 N   0  0  0  0  0  0  0  0  0  0  0  0
   -3.3166    1.4161    0.2707 H   0  0  0  0  0  0  0  0  0  0  0  0
   -1.1913    1.6409    0.2262 C   0  0  1  0  0  0  0  0  0  0  0  0
   -0.4262    1.0318    0.7232 H   0  0  0  0  0  0  0  0  0  0  0  0
   -0.6777    1.9639   -1.1861 C   0  0  0  0  0  0  0  0  0  0  0  0
   -1.4565    2.4840   -1.7531 H   0  0  0  0  0  0  0  0  0  0  0  0
    0.1875    2.6327   -1.1111 H   0  0  0  0  0  0  0  0  0  0  0  0
   -0.2606    0.6784   -1.9150 C   0  0  0  0  0  0  0  0  0  0  0  0
    0.5203    0.1715   -1.3366 H   0  0  0  0  0  0  0  0  0  0  0  0
   -1.1172   -0.0002   -1.9859 H   0  0  0  0  0  0  0  0  0  0  0  0
    0.2523    0.9880   -3.3176 C   0  0  0  0  0  0  0  0  0  0  0  0
   -0.5314    1.5044   -3.8827 H   0  0  0  0  0  0  0  0  0  0  0  0
    1.1256    1.6463   -3.2475 H   0  0  0  0  0  0  0  0  0  0  0  0
    0.6161   -0.2777   -3.9805 N   0  3  0  0  0  0  0  0  0  0  0  0
    0.5247   -1.1286   -3.4254 H   0  0  0  0  0  0  0  0  0  0  0  0
    1.0356   -0.3612   -5.2095 C   0  0  0  0  0  0  0  0  0  0  0  0
    1.1763    0.7526   -6.0059 N   0  0  0  0  0  0  0  0  0  0  0  0
    0.8055    1.6363   -5.6631 H   0  0  0  0  0  0  0  0  0  0  0  0
    1.2794    0.6292   -7.0112 H   0  0  0  0  0  0  0  0  0  0  0  0
    1.3538   -1.5915   -5.7330 N   0  0  0  0  0  0  0  0  0  0  0  0
    1.4260   -2.3860   -5.0999 H   0  0  0  0  0  0  0  0  0  0  0  0
    1.8837   -1.6262   -6.6020 H   0  0  0  0  0  0  0  0  0  0  0  0
   -1.3004    2.9087    1.0962 C   0  0  0  0  0  0  0  0  0  0  0  0
   -0.3874    3.2025    1.8516 O   0  0  0  0  0  0  0  0  0  0  0  0
   -2.3885    3.7575    0.9803 N   0  0  0  0  0  0  0  0  0  0  0  0
   -3.0635    3.5675    0.2472 H   0  0  0  0  0  0  0  0  0  0  0  0
   -2.5012    5.0059    1.7291 C   0  0  0  0  0  0  0  0  0  0  0  0
   -1.7029    5.6991    1.4428 H   0  0  0  0  0  0  0  0  0  0  0  0
   -3.4647    5.4847    1.5286 H   0  0  0  0  0  0  0  0  0  0  0  0
   -2.4307    4.8158    2.8058 H   0  0  0  0  0  0  0  0  0  0  0  0
  1  2  1  0  0  0  0
  2  3  1  0  0  0  0
  2  4  1  0  0  0  0
  2  5  1  0  0  0  0
  5  6  2  0  0  0  0
  5  7  1  0  0  0  0
  7  8  1  0  0  0  0
  7  9  1  0  0  0  0
  9 10  1  0  0  0  0
  9 11  1  0  0  0  0
  9 29  1  0  0  0  0
 11 12  1  0  0  0  0
 11 13  1  0  0  0  0
 11 14  1  0  0  0  0
 14 15  1  0  0  0  0
 14 16  1  0  0  0  0
 14 17  1  0  0  0  0
 17 18  1  0  0  0  0
 17 19  1  0  0  0  0
 17 20  1  0  0  0  0
 20 21  1  0  0  0  0
 20 22  2  0  0  0  0
 22 23  1  0  0  0  0
 22 26  1  0  0  0  0
 23 24  1  0  0  0  0
 23 25  1  0  0  0  0
 26 27  1  0  0  0  0
 26 28  1  0  0  0  0
 29 30  2  0  0  0  0
 29 31  1  0  0  0  0
 31 32  1  0  0  0  0
 31 33  1  0  0  0  0
 33 34  1  0  0  0  0
 33 35  1  0  0  0  0
 33 36  1  0  0  0  0
M  CHG  1  20   1
M  END
$$$$

  -OEChem-02172215453D

 36 35  0     1  0  0  0  0  0999 V2000
   -3.7579   -2.0829    1.3244 H   0  0  0  0  0  0  0  0  0  0  0  0
   -3.8874   -1.0731    0.9239 C   0  0  0  0  0  0  0  0  0  0  0  0
   -4.4294   -0.4742    1.6600 H   0  0  0  0  0  0  0  0  0  0  0  0
   -4.4756   -1.1314    0.0051 H   0  0  0  0  0  0  0  0  0  0  0  0
   -2.5350   -0.4485    0.6390 C   0  0  0  0  0  0  0  0  0  0  0  0
   -1.5237   -1.1278    0.7088 O   0  0  0  0  0  0  0  0  0  0  0  0
   -2.4570    0.8608    0.2006 N   0  0  0  0  0  0  0  0  0  0  0  0
   -3.3391    1.3616    0.1660 H   0  0  0  0  0  0  0  0  0  0  0  0
   -1.2084    1.6533    0.2394 C   0  0  1  0  0  0  0  0  0  0  0  0
   -0.4251    1.0639    0.7307 H   0  0  0  0  0  0  0  0  0  0  0  0
   -0.7236    1.9629   -1.1869 C   0  0  0  0  0  0  0  0  0  0  0  0
   -1.5238    2.4543   -1.7501 H   0  0  0  0  0  0  0  0  0  0  0  0
    0.1248    2.6550   -1.1390 H   0  0  0  0  0  0  0  0  0  0  0  0
   -0.2823    0.6773   -1.9009 C   0  0  0  0  0  0  0  0  0  0  0  0
    0.5210    0.2014   -1.3268 H   0  0  0  0  0  0  0  0  0  0  0  0
   -1.1219   -0.0242   -1.9496 H   0  0  0  0  0  0  0  0  0  0  0  0
    0.2006    0.9831   -3.3150 C   0  0  0  0  0  0  0  0  0  0  0  0
   -0.6054    1.4690   -3.8760 H   0  0  0  0  0  0  0  0  0  0  0  0
    1.0544    1.6679   -3.2641 H   0  0  0  0  0  0  0  0  0  0  0  0
    0.5921   -0.2771   -3.9721 N   0  3  0  0  0  0  0  0  0  0  0  0
    0.5291   -1.1267   -3.4116 H   0  0  0  0  0  0  0  0  0  0  0  0
    0.9948   -0.3567   -5.2070 C   0  0  0  0  0  0  0  0  0  0  0  0
    1.0876    0.7576   -6.0102 N   0  0  0  0  0  0  0  0  0  0  0  0
    0.9965    1.6746   -5.5779 H   0  0  0  0  0  0  0  0  0  0  0  0
    1.5551    0.6873   -6.9114 H   0  0  0  0  0  0  0  0  0  0  0  0
    1.3318   -1.5829   -5.7298 N   0  0  0  0  0  0  0  0  0  0  0  0
    1.3774   -2.3986   -5.1218 H   0  0  0  0  0  0  0  0  0  0  0  0
    1.7214   -1.6445   -6.6684 H   0  0  0  0  0  0  0  0  0  0  0  0
   -1.2965    2.9359    1.0935 C   0  0  0  0  0  0  0  0  0  0  0  0
   -0.2677    3.4145    1.5462 O   0  0  0  0  0  0  0  0  0  0  0  0
   -2.4852    3.6290    1.2518 N   0  0  0  0  0  0  0  0  0  0  0  0
   -3.3212    3.2568    0.8175 H   0  0  0  0  0  0  0  0  0  0  0  0
   -2.5812    4.8793    1.9996 C   0  0  0  0  0  0  0  0  0  0  0  0
   -1.9522    5.6497    1.5410 H   0  0  0  0  0  0  0  0  0  0  0  0
   -3.6147    5.2391    2.0105 H   0  0  0  0  0  0  0  0  0  0  0  0
   -2.2569    4.7330    3.0356 H   0  0  0  0  0  0  0  0  0  0  0  0
  1  2  1  0  0  0  0
  2  3  1  0  0  0  0
  2  4  1  0  0  0  0
  2  5  1  0  0  0  0
  5  6  2  0  0  0  0
  5  7  1  0  0  0  0
  7  8  1  0  0  0  0
  7  9  1  0  0  0  0
  9 10  1  0  0  0  0
  9 11  1  0  0  0  0
  9 29  1  0  0  0  0
 11 12  1  0  0  0  0
 11 13  1  0  0  0  0
 11 14  1  0  0  0  0
 14 15  1  0  0  0  0
 14 16  1  0  0  0  0
 14 17  1  0  0  0  0
 17 18  1  0  0  0  0
 17 19  1  0  0  0  0
 17 20  1  0  0  0  0
 20 21  1  0  0  0  0
 20 22  2  0  0  0  0
 22 23  1  0  0  0  0
 22 26  1  0  0  0  0
 23 24  1  0  0  0  0
 23 25  1  0  0  0  0
 26 27  1  0  0  0  0
 26 28  1  0  0  0  0
 29 30  2  0  0  0  0
 29 31  1  0  0  0  0
 31 32  1  0  0  0  0
 31 33  1  0  0  0  0
 33 34  1  0  0  0  0
 33 35  1  0  0  0  0
 33 36  1  0  0  0  0
M  CHG  1  20   1
M  END
$$$$

  -OEChem-02172215453D

 36 35  0     1  0  0  0  0  0999 V2000
   -3.7911   -2.0863    1.2523 H   0  0  0  0  0  0  0  0  0  0  0  0
   -3.8978   -1.0787    0.8399 C   0  0  0  0  0  0  0  0  0  0  0  0
   -4.5239   -0.4907    1.5153 H   0  0  0  0  0  0  0  0  0  0  0  0
   -4.3871   -1.1468   -0.1344 H   0  0  0  0  0  0  0  0  0  0  0  0
   -2.5348   -0.4291    0.6954 C   0  0  0  0  0  0  0  0  0  0  0  0
   -1.5250   -1.0790    0.9073 O   0  0  0  0  0  0  0  0  0  0  0  0
   -2.4346    0.8730    0.2410 N   0  0  0  0  0  0  0  0  0  0  0  0
   -3.3047    1.3448    0.0112 H   0  0  0  0  0  0  0  0  0  0  0  0
   -1.1879    1.6683    0.2625 C   0  0  1  0  0  0  0  0  0  0  0  0
   -0.3989    1.0913    0.7582 H   0  0  0  0  0  0  0  0  0  0  0  0
   -0.7159    1.9533   -1.1748 C   0  0  0  0  0  0  0  0  0  0  0  0
   -1.5226    2.4352   -1.7374 H   0  0  0  0  0  0  0  0  0  0  0  0
    0.1320    2.6473   -1.1497 H   0  0  0  0  0  0  0  0  0  0  0  0
   -0.2761    0.6608   -1.8769 C   0  0  0  0  0  0  0  0  0  0  0  0
    0.5372    0.1963   -1.3076 H   0  0  0  0  0  0  0  0  0  0  0  0
   -1.1108   -0.0473   -1.9098 H   0  0  0  0  0  0  0  0  0  0  0  0
    0.1894    0.9652   -3.2977 C   0  0  0  0  0  0  0  0  0  0  0  0
   -0.6274    1.4448   -3.8486 H   0  0  0  0  0  0  0  0  0  0  0  0
    1.0369    1.6585   -3.2561 H   0  0  0  0  0  0  0  0  0  0  0  0
    0.5861   -0.2885   -3.9648 N   0  3  0  0  0  0  0  0  0  0  0  0
    0.5428   -1.1416   -3.4078 H   0  0  0  0  0  0  0  0  0  0  0  0
    0.9747   -0.3555   -5.2054 C   0  0  0  0  0  0  0  0  0  0  0  0
    1.0453    0.7660   -6.0010 N   0  0  0  0  0  0  0  0  0  0  0  0
    0.9528    1.6783   -5.5586 H   0  0  0  0  0  0  0  0  0  0  0  0
    1.5079    0.7085   -6.9057 H   0  0  0  0  0  0  0  0  0  0  0  0
    1.3180   -1.5737   -5.7435 N   0  0  0  0  0  0  0  0  0  0  0  0
    1.3858   -2.3932   -5.1424 H   0  0  0  0  0  0  0  0  0  0  0  0
    1.6958   -1.6221   -6.6879 H   0  0  0  0  0  0  0  0  0  0  0  0
   -1.2819    2.9643    1.0984 C   0  0  0  0  0  0  0  0  0  0  0  0
   -0.2694    3.6233    1.2847 O   0  0  0  0  0  0  0  0  0  0  0  0
   -2.5020    3.4799    1.5026 N   0  0  0  0  0  0  0  0  0  0  0  0
   -3.3052    2.8636    1.4511 H   0  0  0  0  0  0  0  0  0  0  0  0
   -2.6182    4.7057    2.2878 C   0  0  0  0  0  0  0  0  0  0  0  0
   -2.1810    5.5522    1.7469 H   0  0  0  0  0  0  0  0  0  0  0  0
   -3.6705    4.9327    2.4858 H   0  0  0  0  0  0  0  0  0  0  0  0
   -2.1004    4.5979    3.2472 H   0  0  0  0  0  0  0  0  0  0  0  0
  1  2  1  0  0  0  0
  2  3  1  0  0  0  0
  2  4  1  0  0  0  0
  2  5  1  0  0  0  0
  5  6  2  0  0  0  0
  5  7  1  0  0  0  0
  7  8  1  0  0  0  0
  7  9  1  0  0  0  0
  9 10  1  0  0  0  0
  9 11  1  0  0  0  0
  9 29  1  0  0  0  0
 11 12  1  0  0  0  0
 11 13  1  0  0  0  0
 11 14  1  0  0  0  0
 14 15  1  0  0  0  0
 14 16  1  0  0  0  0
 14 17  1  0  0  0  0
 17 18  1  0  0  0  0
 17 19  1  0  0  0  0
 17 20  1  0  0  0  0
 20 21  1  0  0  0  0
 20 22  2  0  0  0  0
 22 23  1  0  0  0  0
 22 26  1  0  0  0  0
 23 24  1  0  0  0  0
 23 25  1  0  0  0  0
 26 27  1  0  0  0  0
 26 28  1  0  0  0  0
 29 30  2  0  0  0  0
 29 31  1  0  0  0  0
 31 32  1  0  0  0  0
 31 33  1  0  0  0  0
 33 34  1  0  0  0  0
 33 35  1  0  0  0  0
 33 36  1  0  0  0  0
M  CHG  1  20   1
M  END
$$$$

  -OEChem-02172215453D

 36 35  0     1  0  0  0  0  0999 V2000
   -3.8001   -2.0727    1.2277 H   0  0  0  0  0  0  0  0  0  0  0  0
   -3.8989   -1.0612    0.8231 C   0  0  0  0  0  0  0  0  0  0  0  0
   -4.5274   -0.4757    1.4986 H   0  0  0  0  0  0  0  0  0  0  0  0
   -4.3813   -1.1190   -0.1555 H   0  0  0  0  0  0  0  0  0  0  0  0
   -2.5318   -0.4169    0.6942 C   0  0  0  0  0  0  0  0  0  0  0  0
   -1.5267   -1.0692    0.9205 O   0  0  0  0  0  0  0  0  0  0  0  0
   -2.4209    0.8851    0.2435 N   0  0  0  0  0  0  0  0  0  0  0  0
   -3.2872    1.3685    0.0192 H   0  0  0  0  0  0  0  0  0  0  0  0
   -1.1704    1.6740    0.2722 C   0  0  1  0  0  0  0  0  0  0  0  0
   -0.3833    1.0964    0.7701 H   0  0  0  0  0  0  0  0  0  0  0  0
   -0.7011    1.9540   -1.1684 C   0  0  0  0  0  0  0  0  0  0  0  0
   -1.5071    2.4398   -1.7282 H   0  0  0  0  0  0  0  0  0  0  0  0
    0.1519    2.6416   -1.1502 H   0  0  0  0  0  0  0  0  0  0  0  0
   -0.2703    0.6597   -1.8708 C   0  0  0  0  0  0  0  0  0  0  0  0
    0.5427    0.1910   -1.3049 H   0  0  0  0  0  0  0  0  0  0  0  0
   -1.1089   -0.0434   -1.9021 H   0  0  0  0  0  0  0  0  0  0  0  0
    0.1906    0.9652   -3.2921 C   0  0  0  0  0  0  0  0  0  0  0  0
   -0.6267    1.4495   -3.8378 H   0  0  0  0  0  0  0  0  0  0  0  0
    1.0412    1.6547   -3.2528 H   0  0  0  0  0  0  0  0  0  0  0  0
    0.5794   -0.2887   -3.9625 N   0  3  0  0  0  0  0  0  0  0  0  0
    0.5349   -1.1423   -3.4065 H   0  0  0  0  0  0  0  0  0  0  0  0
    0.9627   -0.3546   -5.2044 C   0  0  0  0  0  0  0  0  0  0  0  0
    1.0344    0.7682   -5.9982 N   0  0  0  0  0  0  0  0  0  0  0  0
    0.9363    1.6803   -5.5566 H   0  0  0  0  0  0  0  0  0  0  0  0
    1.4921    0.7122   -6.9055 H   0  0  0  0  0  0  0  0  0  0  0  0
    1.3018   -1.5729   -5.7444 N   0  0  0  0  0  0  0  0  0  0  0  0
    1.3679   -2.3933   -5.1446 H   0  0  0  0  0  0  0  0  0  0  0  0
    1.6791   -1.6210   -6.6889 H   0  0  0  0  0  0  0  0  0  0  0  0
   -1.2772    2.9664    1.1142 C   0  0  0  0  0  0  0  0  0  0  0  0
   -0.3477    3.7607    1.1206 O   0  0  0  0  0  0  0  0  0  0  0  0
   -2.4539    3.3044    1.7607 N   0  0  0  0  0  0  0  0  0  0  0  0
   -3.1448    2.5693    1.8674 H   0  0  0  0  0  0  0  0  0  0  0  0
   -2.5883    4.5068    2.5778 C   0  0  0  0  0  0  0  0  0  0  0  0
   -2.3818    5.4023    1.9819 H   0  0  0  0  0  0  0  0  0  0  0  0
   -3.6057    4.5862    2.9732 H   0  0  0  0  0  0  0  0  0  0  0  0
   -1.8896    4.4784    3.4208 H   0  0  0  0  0  0  0  0  0  0  0  0
  1  2  1  0  0  0  0
  2  3  1  0  0  0  0
  2  4  1  0  0  0  0
  2  5  1  0  0  0  0
  5  6  2  0  0  0  0
  5  7  1  0  0  0  0
  7  8  1  0  0  0  0
  7  9  1  0  0  0  0
  9 10  1  0  0  0  0
  9 11  1  0  0  0  0
  9 29  1  0  0  0  0
 11 12  1  0  0  0  0
 11 13  1  0  0  0  0
 11 14  1  0  0  0  0
 14 15  1  0  0  0  0
 14 16  1  0  0  0  0
 14 17  1  0  0  0  0
 17 18  1  0  0  0  0
 17 19  1  0  0  0  0
 17 20  1  0  0  0  0
 20 21  1  0  0  0  0
 20 22  2  0  0  0  0
 22 23  1  0  0  0  0
 22 26  1  0  0  0  0
 23 24  1  0  0  0  0
 23 25  1  0  0  0  0
 26 27  1  0  0  0  0
 26 28  1  0  0  0  0
 29 30  2  0  0  0  0
 29 31  1  0  0  0  0
 31 32  1  0  0  0  0
 31 33  1  0  0  0  0
 33 34  1  0  0  0  0
 33 35  1  0  0  0  0
 33 36  1  0  0  0  0
M  CHG  1  20   1
M  END
$$$$

  -OEChem-02172215453D

 36 35  0     1  0  0  0  0  0999 V2000
   -3.8021   -2.0527    1.2299 H   0  0  0  0  0  0  0  0  0  0  0  0
   -3.8996   -1.0373    0.8346 C   0  0  0  0  0  0  0  0  0  0  0  0
   -4.5125   -0.4522    1.5245 H   0  0  0  0  0  0  0  0  0  0  0  0
   -4.3987   -1.0843   -0.1361 H   0  0  0  0  0  0  0  0  0  0  0  0
   -2.5298   -0.4025    0.6872 C   0  0  0  0  0  0  0  0  0  0  0  0
   -1.5260   -1.0609    0.9024 O   0  0  0  0  0  0  0  0  0  0  0  0
   -2.4143    0.9009    0.2413 N   0  0  0  0  0  0  0  0  0  0  0  0
   -3.2815    1.4011    0.0573 H   0  0  0  0  0  0  0  0  0  0  0  0
   -1.1600    1.6834    0.2737 C   0  0  1  0  0  0  0  0  0  0  0  0
   -0.3746    1.1043    0.7720 H   0  0  0  0  0  0  0  0  0  0  0  0
   -0.6894    1.9604   -1.1682 C   0  0  0  0  0  0  0  0  0  0  0  0
   -1.4929    2.4518   -1.7269 H   0  0  0  0  0  0  0  0  0  0  0  0
    0.1686    2.6417   -1.1519 H   0  0  0  0  0  0  0  0  0  0  0  0
   -0.2656    0.6642   -1.8717 C   0  0  0  0  0  0  0  0  0  0  0  0
    0.5440    0.1895   -1.3057 H   0  0  0  0  0  0  0  0  0  0  0  0
   -1.1084   -0.0340   -1.9037 H   0  0  0  0  0  0  0  0  0  0  0  0
    0.1966    0.9674   -3.2936 C   0  0  0  0  0  0  0  0  0  0  0  0
   -0.6173    1.4567   -3.8402 H   0  0  0  0  0  0  0  0  0  0  0  0
    1.0513    1.6521   -3.2545 H   0  0  0  0  0  0  0  0  0  0  0  0
    0.5784   -0.2887   -3.9641 N   0  3  0  0  0  0  0  0  0  0  0  0
    0.5301   -1.1422   -3.4083 H   0  0  0  0  0  0  0  0  0  0  0  0
    0.9608   -0.3562   -5.2061 C   0  0  0  0  0  0  0  0  0  0  0  0
    1.0385    0.7656   -6.0006 N   0  0  0  0  0  0  0  0  0  0  0  0
    0.9445    1.6788   -5.5602 H   0  0  0  0  0  0  0  0  0  0  0  0
    1.4977    0.7062   -6.9068 H   0  0  0  0  0  0  0  0  0  0  0  0
    1.2950   -1.5761   -5.7450 N   0  0  0  0  0  0  0  0  0  0  0  0
    1.3389   -2.4018   -5.1504 H   0  0  0  0  0  0  0  0  0  0  0  0
    1.6568   -1.6305   -6.6952 H   0  0  0  0  0  0  0  0  0  0  0  0
   -1.2788    2.9698    1.1253 C   0  0  0  0  0  0  0  0  0  0  0  0
   -0.4815    3.8845    0.9727 O   0  0  0  0  0  0  0  0  0  0  0  0
   -2.3358    3.1408    2.0024 N   0  0  0  0  0  0  0  0  0  0  0  0
   -2.8905    2.3178    2.2160 H   0  0  0  0  0  0  0  0  0  0  0  0
   -2.4731    4.3153    2.8586 C   0  0  0  0  0  0  0  0  0  0  0  0
   -2.5123    5.2289    2.2556 H   0  0  0  0  0  0  0  0  0  0  0  0
   -3.3948    4.2526    3.4451 H   0  0  0  0  0  0  0  0  0  0  0  0
   -1.6261    4.3878    3.5493 H   0  0  0  0  0  0  0  0  0  0  0  0
  1  2  1  0  0  0  0
  2  3  1  0  0  0  0
  2  4  1  0  0  0  0
  2  5  1  0  0  0  0
  5  6  2  0  0  0  0
  5  7  1  0  0  0  0
  7  8  1  0  0  0  0
  7  9  1  0  0  0  0
  9 10  1  0  0  0  0
  9 11  1  0  0  0  0
  9 29  1  0  0  0  0
 11 12  1  0  0  0  0
 11 13  1  0  0  0  0
 11 14  1  0  0  0  0
 14 15  1  0  0  0  0
 14 16  1  0  0  0  0
 14 17  1  0  0  0  0
 17 18  1  0  0  0  0
 17 19  1  0  0  0  0
 17 20  1  0  0  0  0
 20 21  1  0  0  0  0
 20 22  2  0  0  0  0
 22 23  1  0  0  0  0
 22 26  1  0  0  0  0
 23 24  1  0  0  0  0
 23 25  1  0  0  0  0
 26 27  1  0  0  0  0
 26 28  1  0  0  0  0
 29 30  2  0  0  0  0
 29 31  1  0  0  0  0
 31 32  1  0  0  0  0
 31 33  1  0  0  0  0
 33 34  1  0  0  0  0
 33 35  1  0  0  0  0
 33 36  1  0  0  0  0
M  CHG  1  20   1
M  END
$$$$

  -OEChem-02172215453D

 36 35  0     1  0  0  0  0  0999 V2000
   -3.8563   -2.0058    1.2184 H   0  0  0  0  0  0  0  0  0  0  0  0
   -3.9291   -0.9873    0.8260 C   0  0  0  0  0  0  0  0  0  0  0  0
   -4.5296   -0.3897    1.5160 H   0  0  0  0  0  0  0  0  0  0  0  0
   -4.4272   -1.0191   -0.1458 H   0  0  0  0  0  0  0  0  0  0  0  0
   -2.5451   -0.3838    0.6822 C   0  0  0  0  0  0  0  0  0  0  0  0
   -1.5554   -1.0608    0.9055 O   0  0  0  0  0  0  0  0  0  0  0  0
   -2.4014    0.9178    0.2418 N   0  0  0  0  0  0  0  0  0  0  0  0
   -3.2599    1.4425    0.0865 H   0  0  0  0  0  0  0  0  0  0  0  0
   -1.1344    1.6770    0.2864 C   0  0  1  0  0  0  0  0  0  0  0  0
   -0.3609    1.0855    0.7886 H   0  0  0  0  0  0  0  0  0  0  0  0
   -0.6491    1.9520   -1.1516 C   0  0  0  0  0  0  0  0  0  0  0  0
   -1.4391    2.4622   -1.7127 H   0  0  0  0  0  0  0  0  0  0  0  0
    0.2216    2.6166   -1.1239 H   0  0  0  0  0  0  0  0  0  0  0  0
   -0.2432    0.6541   -1.8624 C   0  0  0  0  0  0  0  0  0  0  0  0
    0.5556    0.1619   -1.2962 H   0  0  0  0  0  0  0  0  0  0  0  0
   -1.0972   -0.0296   -1.9046 H   0  0  0  0  0  0  0  0  0  0  0  0
    0.2322    0.9631   -3.2790 C   0  0  0  0  0  0  0  0  0  0  0  0
   -0.5719    1.4707   -3.8232 H   0  0  0  0  0  0  0  0  0  0  0  0
    1.0978    1.6335   -3.2298 H   0  0  0  0  0  0  0  0  0  0  0  0
    0.5975   -0.2919   -3.9606 N   0  3  0  0  0  0  0  0  0  0  0  0
    0.5332   -1.1497   -3.4134 H   0  0  0  0  0  0  0  0  0  0  0  0
    0.9861   -0.3531   -5.2012 C   0  0  0  0  0  0  0  0  0  0  0  0
    1.0872    0.7736   -5.9853 N   0  0  0  0  0  0  0  0  0  0  0  0
    0.7050    1.6449   -5.6232 H   0  0  0  0  0  0  0  0  0  0  0  0
    1.1719    0.6660   -6.9940 H   0  0  0  0  0  0  0  0  0  0  0  0
    1.3131   -1.5699   -5.7504 N   0  0  0  0  0  0  0  0  0  0  0  0
    1.4241   -2.3699   -5.1303 H   0  0  0  0  0  0  0  0  0  0  0  0
    1.8171   -1.5813   -6.6353 H   0  0  0  0  0  0  0  0  0  0  0  0
   -1.2595    2.9579    1.1460 C   0  0  0  0  0  0  0  0  0  0  0  0
   -0.6439    3.9724    0.8496 O   0  0  0  0  0  0  0  0  0  0  0  0
   -2.1378    2.9951    2.2148 N   0  0  0  0  0  0  0  0  0  0  0  0
   -2.5360    2.1095    2.5133 H   0  0  0  0  0  0  0  0  0  0  0  0
   -2.2769    4.1546    3.0909 C   0  0  0  0  0  0  0  0  0  0  0  0
   -2.5739    5.0379    2.5153 H   0  0  0  0  0  0  0  0  0  0  0  0
   -3.0421    3.9676    3.8508 H   0  0  0  0  0  0  0  0  0  0  0  0
   -1.3299    4.3684    3.5980 H   0  0  0  0  0  0  0  0  0  0  0  0
  1  2  1  0  0  0  0
  2  3  1  0  0  0  0
  2  4  1  0  0  0  0
  2  5  1  0  0  0  0
  5  6  2  0  0  0  0
  5  7  1  0  0  0  0
  7  8  1  0  0  0  0
  7  9  1  0  0  0  0
  9 10  1  0  0  0  0
  9 11  1  0  0  0  0
  9 29  1  0  0  0  0
 11 12  1  0  0  0  0
 11 13  1  0  0  0  0
 11 14  1  0  0  0  0
 14 15  1  0  0  0  0
 14 16  1  0  0  0  0
 14 17  1  0  0  0  0
 17 18  1  0  0  0  0
 17 19  1  0  0  0  0
 17 20  1  0  0  0  0
 20 21  1  0  0  0  0
 20 22  2  0  0  0  0
 22 23  1  0  0  0  0
 22 26  1  0  0  0  0
 23 24  1  0  0  0  0
 23 25  1  0  0  0  0
 26 27  1  0  0  0  0
 26 28  1  0  0  0  0
 29 30  2  0  0  0  0
 29 31  1  0  0  0  0
 31 32  1  0  0  0  0
 31 33  1  0  0  0  0
 33 34  1  0  0  0  0
 33 35  1  0  0  0  0
 33 36  1  0  0  0  0
M  CHG  1  20   1
M  END
$$$$

  -OEChem-02172215453D

 36 35  0     1  0  0  0  0  0999 V2000
   -3.8778   -1.9543    1.3054 H   0  0  0  0  0  0  0  0  0  0  0  0
   -3.9342   -0.9599    0.8532 C   0  0  0  0  0  0  0  0  0  0  0  0
   -4.5446   -0.3193    1.4945 H   0  0  0  0  0  0  0  0  0  0  0  0
   -4.4119   -1.0446   -0.1257 H   0  0  0  0  0  0  0  0  0  0  0  0
   -2.5434   -0.3744    0.7040 C   0  0  0  0  0  0  0  0  0  0  0  0
   -1.5617   -1.0590    0.9394 O   0  0  0  0  0  0  0  0  0  0  0  0
   -2.3840    0.9222    0.2554 N   0  0  0  0  0  0  0  0  0  0  0  0
   -3.2365    1.4608    0.1141 H   0  0  0  0  0  0  0  0  0  0  0  0
   -1.1091    1.6658    0.2981 C   0  0  1  0  0  0  0  0  0  0  0  0
   -0.3392    1.0704    0.8009 H   0  0  0  0  0  0  0  0  0  0  0  0
   -0.6230    1.9370   -1.1396 C   0  0  0  0  0  0  0  0  0  0  0  0
   -1.4090    2.4565   -1.6985 H   0  0  0  0  0  0  0  0  0  0  0  0
    0.2535    2.5943   -1.1090 H   0  0  0  0  0  0  0  0  0  0  0  0
   -0.2323    0.6379   -1.8562 C   0  0  0  0  0  0  0  0  0  0  0  0
    0.5624    0.1344   -1.2948 H   0  0  0  0  0  0  0  0  0  0  0  0
   -1.0932   -0.0369   -1.8999 H   0  0  0  0  0  0  0  0  0  0  0  0
    0.2426    0.9538   -3.2711 C   0  0  0  0  0  0  0  0  0  0  0  0
   -0.5588    1.4729   -3.8080 H   0  0  0  0  0  0  0  0  0  0  0  0
    1.1130    1.6175   -3.2188 H   0  0  0  0  0  0  0  0  0  0  0  0
    0.5960   -0.2958   -3.9680 N   0  3  0  0  0  0  0  0  0  0  0  0
    0.5296   -1.1598   -3.4307 H   0  0  0  0  0  0  0  0  0  0  0  0
    0.9805   -0.3430   -5.2104 C   0  0  0  0  0  0  0  0  0  0  0  0
    1.0876    0.7940   -5.9788 N   0  0  0  0  0  0  0  0  0  0  0  0
    0.7201    1.6649   -5.6002 H   0  0  0  0  0  0  0  0  0  0  0  0
    1.1659    0.7016   -6.9895 H   0  0  0  0  0  0  0  0  0  0  0  0
    1.2920   -1.5553   -5.7780 N   0  0  0  0  0  0  0  0  0  0  0  0
    1.3884   -2.3680   -5.1721 H   0  0  0  0  0  0  0  0  0  0  0  0
    1.7907   -1.5613   -6.6659 H   0  0  0  0  0  0  0  0  0  0  0  0
   -1.2409    2.9481    1.1526 C   0  0  0  0  0  0  0  0  0  0  0  0
   -0.8509    4.0288    0.7324 O   0  0  0  0  0  0  0  0  0  0  0  0
   -1.8811    2.8933    2.3775 N   0  0  0  0  0  0  0  0  0  0  0  0
   -2.1168    1.9725    2.7376 H   0  0  0  0  0  0  0  0  0  0  0  0
   -2.0322    4.0508    3.2536 C   0  0  0  0  0  0  0  0  0  0  0  0
   -2.6151    4.8346    2.7578 H   0  0  0  0  0  0  0  0  0  0  0  0
   -2.5523    3.7654    4.1733 H   0  0  0  0  0  0  0  0  0  0  0  0
   -1.0524    4.4595    3.5235 H   0  0  0  0  0  0  0  0  0  0  0  0
  1  2  1  0  0  0  0
  2  3  1  0  0  0  0
  2  4  1  0  0  0  0
  2  5  1  0  0  0  0
  5  6  2  0  0  0  0
  5  7  1  0  0  0  0
  7  8  1  0  0  0  0
  7  9  1  0  0  0  0
  9 10  1  0  0  0  0
  9 11  1  0  0  0  0
  9 29  1  0  0  0  0
 11 12  1  0  0  0  0
 11 13  1  0  0  0  0
 11 14  1  0  0  0  0
 14 15  1  0  0  0  0
 14 16  1  0  0  0  0
 14 17  1  0  0  0  0
 17 18  1  0  0  0  0
 17 19  1  0  0  0  0
 17 20  1  0  0  0  0
 20 21  1  0  0  0  0
 20 22  2  0  0  0  0
 22 23  1  0  0  0  0
 22 26  1  0  0  0  0
 23 24  1  0  0  0  0
 23 25  1  0  0  0  0
 26 27  1  0  0  0  0
 26 28  1  0  0  0  0
 29 30  2  0  0  0  0
 29 31  1  0  0  0  0
 31 32  1  0  0  0  0
 31 33  1  0  0  0  0
 33 34  1  0  0  0  0
 33 35  1  0  0  0  0
 33 36  1  0  0  0  0
M  CHG  1  20   1
M  END
$$$$

  -OEChem-02172215453D

 36 35  0     1  0  0  0  0  0999 V2000
   -3.8812   -1.9359    1.3243 H   0  0  0  0  0  0  0  0  0  0  0  0
   -3.9287   -0.9455    0.8624 C   0  0  0  0  0  0  0  0  0  0  0  0
   -4.5424   -0.2955    1.4911 H   0  0  0  0  0  0  0  0  0  0  0  0
   -4.3967   -1.0368   -0.1207 H   0  0  0  0  0  0  0  0  0  0  0  0
   -2.5334   -0.3682    0.7223 C   0  0  0  0  0  0  0  0  0  0  0  0
   -1.5570   -1.0563    0.9705 O   0  0  0  0  0  0  0  0  0  0  0  0
   -2.3625    0.9243    0.2676 N   0  0  0  0  0  0  0  0  0  0  0  0
   -3.2101    1.4705    0.1255 H   0  0  0  0  0  0  0  0  0  0  0  0
   -1.0831    1.6568    0.3107 C   0  0  1  0  0  0  0  0  0  0  0  0
   -0.3139    1.0588    0.8115 H   0  0  0  0  0  0  0  0  0  0  0  0
   -0.6005    1.9303   -1.1267 C   0  0  0  0  0  0  0  0  0  0  0  0
   -1.3855    2.4566   -1.6809 H   0  0  0  0  0  0  0  0  0  0  0  0
    0.2778    2.5844   -1.0927 H   0  0  0  0  0  0  0  0  0  0  0  0
   -0.2223    0.6325   -1.8521 C   0  0  0  0  0  0  0  0  0  0  0  0
    0.5717    0.1204   -1.2971 H   0  0  0  0  0  0  0  0  0  0  0  0
   -1.0887   -0.0354   -1.8961 H   0  0  0  0  0  0  0  0  0  0  0  0
    0.2491    0.9534   -3.2671 C   0  0  0  0  0  0  0  0  0  0  0  0
   -0.5509    1.4811   -3.7978 H   0  0  0  0  0  0  0  0  0  0  0  0
    1.1248    1.6101   -3.2143 H   0  0  0  0  0  0  0  0  0  0  0  0
    0.5901   -0.2952   -3.9719 N   0  3  0  0  0  0  0  0  0  0  0  0
    0.5117   -1.1617   -3.4404 H   0  0  0  0  0  0  0  0  0  0  0  0
    0.9693   -0.3395   -5.2163 C   0  0  0  0  0  0  0  0  0  0  0  0
    1.0821    0.8002   -5.9797 N   0  0  0  0  0  0  0  0  0  0  0  0
    0.7217    1.6715   -5.5956 H   0  0  0  0  0  0  0  0  0  0  0  0
    1.1524    0.7113   -6.9914 H   0  0  0  0  0  0  0  0  0  0  0  0
    1.2688   -1.5513   -5.7915 N   0  0  0  0  0  0  0  0  0  0  0  0
    1.3628   -2.3670   -5.1893 H   0  0  0  0  0  0  0  0  0  0  0  0
    1.7663   -1.5559   -6.6802 H   0  0  0  0  0  0  0  0  0  0  0  0
   -1.2185    2.9405    1.1596 C   0  0  0  0  0  0  0  0  0  0  0  0
   -1.0783    4.0465    0.6555 O   0  0  0  0  0  0  0  0  0  0  0  0
   -1.5782    2.8438    2.4911 N   0  0  0  0  0  0  0  0  0  0  0  0
   -1.6550    1.9115    2.8899 H   0  0  0  0  0  0  0  0  0  0  0  0
   -1.7413    4.0013    3.3649 C   0  0  0  0  0  0  0  0  0  0  0  0
   -2.5401    4.6525    2.9942 H   0  0  0  0  0  0  0  0  0  0  0  0
   -2.0017    3.6788    4.3779 H   0  0  0  0  0  0  0  0  0  0  0  0
   -0.8123    4.5794    3.4149 H   0  0  0  0  0  0  0  0  0  0  0  0
  1  2  1  0  0  0  0
  2  3  1  0  0  0  0
  2  4  1  0  0  0  0
  2  5  1  0  0  0  0
  5  6  2  0  0  0  0
  5  7  1  0  0  0  0
  7  8  1  0  0  0  0
  7  9  1  0  0  0  0
  9 10  1  0  0  0  0
  9 11  1  0  0  0  0
  9 29  1  0  0  0  0
 11 12  1  0  0  0  0
 11 13  1  0  0  0  0
 11 14  1  0  0  0  0
 14 15  1  0  0  0  0
 14 16  1  0  0  0  0
 14 17  1  0  0  0  0
 17 18  1  0  0  0  0
 17 19  1  0  0  0  0
 17 20  1  0  0  0  0
 20 21  1  0  0  0  0
 20 22  2  0  0  0  0
 22 23  1  0  0  0  0
 22 26  1  0  0  0  0
 23 24  1  0  0  0  0
 23 25  1  0  0  0  0
 26 27  1  0  0  0  0
 26 28  1  0  0  0  0
 29 30  2  0  0  0  0
 29 31  1  0  0  0  0
 31 32  1  0  0  0  0
 31 33  1  0  0  0  0
 33 34  1  0  0  0  0
 33 35  1  0  0  0  0
 33 36  1  0  0  0  0
M  CHG  1  20   1
M  END
$$$$

  -OEChem-02172215453D

 36 35  0     1  0  0  0  0  0999 V2000
   -3.8818   -1.9229    1.3417 H   0  0  0  0  0  0  0  0  0  0  0  0
   -3.9240   -0.9331    0.8784 C   0  0  0  0  0  0  0  0  0  0  0  0
   -4.5302   -0.2777    1.5086 H   0  0  0  0  0  0  0  0  0  0  0  0
   -4.3969   -1.0224   -0.1025 H   0  0  0  0  0  0  0  0  0  0  0  0
   -2.5252   -0.3658    0.7320 C   0  0  0  0  0  0  0  0  0  0  0  0
   -1.5517   -1.0589    0.9797 O   0  0  0  0  0  0  0  0  0  0  0  0
   -2.3476    0.9237    0.2719 N   0  0  0  0  0  0  0  0  0  0  0  0
   -3.1918    1.4768    0.1348 H   0  0  0  0  0  0  0  0  0  0  0  0
   -1.0652    1.6486    0.3169 C   0  0  1  0  0  0  0  0  0  0  0  0
   -0.2966    1.0479    0.8149 H   0  0  0  0  0  0  0  0  0  0  0  0
   -0.5845    1.9264   -1.1200 C   0  0  0  0  0  0  0  0  0  0  0  0
   -1.3692    2.4564   -1.6713 H   0  0  0  0  0  0  0  0  0  0  0  0
    0.2947    2.5793   -1.0829 H   0  0  0  0  0  0  0  0  0  0  0  0
   -0.2145    0.6302   -1.8525 C   0  0  0  0  0  0  0  0  0  0  0  0
    0.5776    0.1108   -1.3017 H   0  0  0  0  0  0  0  0  0  0  0  0
   -1.0846   -0.0330   -1.8978 H   0  0  0  0  0  0  0  0  0  0  0  0
    0.2552    0.9541   -3.2674 C   0  0  0  0  0  0  0  0  0  0  0  0
   -0.5432    1.4882   -3.7943 H   0  0  0  0  0  0  0  0  0  0  0  0
    1.1344    1.6062   -3.2141 H   0  0  0  0  0  0  0  0  0  0  0  0
    0.5877   -0.2941   -3.9773 N   0  3  0  0  0  0  0  0  0  0  0  0
    0.5057   -1.1621   -3.4489 H   0  0  0  0  0  0  0  0  0  0  0  0
    0.9636   -0.3370   -5.2226 C   0  0  0  0  0  0  0  0  0  0  0  0
    1.0809    0.8041   -5.9831 N   0  0  0  0  0  0  0  0  0  0  0  0
    0.7176    1.6733   -5.5972 H   0  0  0  0  0  0  0  0  0  0  0  0
    1.1406    0.7156   -6.9954 H   0  0  0  0  0  0  0  0  0  0  0  0
    1.2571   -1.5489   -5.8009 N   0  0  0  0  0  0  0  0  0  0  0  0
    1.3482   -2.3662   -5.2004 H   0  0  0  0  0  0  0  0  0  0  0  0
    1.7547   -1.5535   -6.6894 H   0  0  0  0  0  0  0  0  0  0  0  0
   -1.2018    2.9340    1.1604 C   0  0  0  0  0  0  0  0  0  0  0  0
   -1.3166    4.0260    0.6204 O   0  0  0  0  0  0  0  0  0  0  0  0
   -1.2597    2.8451    2.5386 N   0  0  0  0  0  0  0  0  0  0  0  0
   -1.1790    1.9208    2.9556 H   0  0  0  0  0  0  0  0  0  0  0  0
   -1.4196    4.0026    3.4126 C   0  0  0  0  0  0  0  0  0  0  0  0
   -2.3717    4.5058    3.2129 H   0  0  0  0  0  0  0  0  0  0  0  0
   -1.4074    3.6911    4.4616 H   0  0  0  0  0  0  0  0  0  0  0  0
   -0.6048    4.7179    3.2565 H   0  0  0  0  0  0  0  0  0  0  0  0
  1  2  1  0  0  0  0
  2  3  1  0  0  0  0
  2  4  1  0  0  0  0
  2  5  1  0  0  0  0
  5  6  2  0  0  0  0
  5  7  1  0  0  0  0
  7  8  1  0  0  0  0
  7  9  1  0  0  0  0
  9 10  1  0  0  0  0
  9 11  1  0  0  0  0
  9 29  1  0  0  0  0
 11 12  1  0  0  0  0
 11 13  1  0  0  0  0
 11 14  1  0  0  0  0
 14 15  1  0  0  0  0
 14 16  1  0  0  0  0
 14 17  1  0  0  0  0
 17 18  1  0  0  0  0
 17 19  1  0  0  0  0
 17 20  1  0  0  0  0
 20 21  1  0  0  0  0
 20 22  2  0  0  0  0
 22 23  1  0  0  0  0
 22 26  1  0  0  0  0
 23 24  1  0  0  0  0
 23 25  1  0  0  0  0
 26 27  1  0  0  0  0
 26 28  1  0  0  0  0
 29 30  2  0  0  0  0
 29 31  1  0  0  0  0
 31 32  1  0  0  0  0
 31 33  1  0  0  0  0
 33 34  1  0  0  0  0
 33 35  1  0  0  0  0
 33 36  1  0  0  0  0
M  CHG  1  20   1
M  END
$$$$

  -OEChem-02172215453D

 36 35  0     1  0  0  0  0  0999 V2000
   -3.8743   -1.9210    1.3510 H   0  0  0  0  0  0  0  0  0  0  0  0
   -3.9190   -0.9207    0.9108 C   0  0  0  0  0  0  0  0  0  0  0  0
   -4.4942   -0.2716    1.5758 H   0  0  0  0  0  0  0  0  0  0  0  0
   -4.4263   -0.9824   -0.0549 H   0  0  0  0  0  0  0  0  0  0  0  0
   -2.5187   -0.3675    0.7287 C   0  0  0  0  0  0  0  0  0  0  0  0
   -1.5462   -1.0736    0.9440 O   0  0  0  0  0  0  0  0  0  0  0  0
   -2.3381    0.9208    0.2665 N   0  0  0  0  0  0  0  0  0  0  0  0
   -3.1790    1.4867    0.1624 H   0  0  0  0  0  0  0  0  0  0  0  0
   -1.0527    1.6378    0.3150 C   0  0  1  0  0  0  0  0  0  0  0  0
   -0.2874    1.0304    0.8099 H   0  0  0  0  0  0  0  0  0  0  0  0
   -0.5705    1.9263   -1.1181 C   0  0  0  0  0  0  0  0  0  0  0  0
   -1.3534    2.4624   -1.6662 H   0  0  0  0  0  0  0  0  0  0  0  0
    0.3104    2.5767   -1.0758 H   0  0  0  0  0  0  0  0  0  0  0  0
   -0.2086    0.6319   -1.8582 C   0  0  0  0  0  0  0  0  0  0  0  0
    0.5793    0.1038   -1.3096 H   0  0  0  0  0  0  0  0  0  0  0  0
   -1.0838   -0.0244   -1.9073 H   0  0  0  0  0  0  0  0  0  0  0  0
    0.2646    0.9572   -3.2715 C   0  0  0  0  0  0  0  0  0  0  0  0
   -0.5291    1.4989   -3.7973 H   0  0  0  0  0  0  0  0  0  0  0  0
    1.1491    1.6019   -3.2165 H   0  0  0  0  0  0  0  0  0  0  0  0
    0.5876   -0.2920   -3.9835 N   0  3  0  0  0  0  0  0  0  0  0  0
    0.4926   -1.1604   -3.4580 H   0  0  0  0  0  0  0  0  0  0  0  0
    0.9644   -0.3359   -5.2284 C   0  0  0  0  0  0  0  0  0  0  0  0
    1.0922    0.8049   -5.9879 N   0  0  0  0  0  0  0  0  0  0  0  0
    0.7369    1.6775   -5.6021 H   0  0  0  0  0  0  0  0  0  0  0  0
    1.1523    0.7161   -7.0001 H   0  0  0  0  0  0  0  0  0  0  0  0
    1.2442   -1.5493   -5.8098 N   0  0  0  0  0  0  0  0  0  0  0  0
    1.3280   -2.3696   -5.2122 H   0  0  0  0  0  0  0  0  0  0  0  0
    1.7351   -1.5573   -6.7021 H   0  0  0  0  0  0  0  0  0  0  0  0
   -1.1862    2.9234    1.1561 C   0  0  0  0  0  0  0  0  0  0  0  0
   -1.5652    3.9624    0.6325 O   0  0  0  0  0  0  0  0  0  0  0  0
   -0.9426    2.8928    2.5165 N   0  0  0  0  0  0  0  0  0  0  0  0
   -0.6851    2.0008    2.9319 H   0  0  0  0  0  0  0  0  0  0  0  0
   -1.1036    4.0542    3.3852 C   0  0  0  0  0  0  0  0  0  0  0  0
   -2.1435    4.3979    3.3782 H   0  0  0  0  0  0  0  0  0  0  0  0
   -0.8309    3.7997    4.4142 H   0  0  0  0  0  0  0  0  0  0  0  0
   -0.4599    4.8754    3.0520 H   0  0  0  0  0  0  0  0  0  0  0  0
  1  2  1  0  0  0  0
  2  3  1  0  0  0  0
  2  4  1  0  0  0  0
  2  5  1  0  0  0  0
  5  6  2  0  0  0  0
  5  7  1  0  0  0  0
  7  8  1  0  0  0  0
  7  9  1  0  0  0  0
  9 10  1  0  0  0  0
  9 11  1  0  0  0  0
  9 29  1  0  0  0  0
 11 12  1  0  0  0  0
 11 13  1  0  0  0  0
 11 14  1  0  0  0  0
 14 15  1  0  0  0  0
 14 16  1  0  0  0  0
 14 17  1  0  0  0  0
 17 18  1  0  0  0  0
 17 19  1  0  0  0  0
 17 20  1  0  0  0  0
 20 21  1  0  0  0  0
 20 22  2  0  0  0  0
 22 23  1  0  0  0  0
 22 26  1  0  0  0  0
 23 24  1  0  0  0  0
 23 25  1  0  0  0  0
 26 27  1  0  0  0  0
 26 28  1  0  0  0  0
 29 30  2  0  0  0  0
 29 31  1  0  0  0  0
 31 32  1  0  0  0  0
 31 33  1  0  0  0  0
 33 34  1  0  0  0  0
 33 35  1  0  0  0  0
 33 36  1  0  0  0  0
M  CHG  1  20   1
M  END
$$$$

  -OEChem-02172215453D

 36 35  0     1  0  0  0  0  0999 V2000
   -3.8702   -1.9060    1.3784 H   0  0  0  0  0  0  0  0  0  0  0  0
   -3.9133   -0.9013    0.9482 C   0  0  0  0  0  0  0  0  0  0  0  0
   -4.4564   -0.2490    1.6365 H   0  0  0  0  0  0  0  0  0  0  0  0
   -4.4522   -0.9464   -0.0010 H   0  0  0  0  0  0  0  0  0  0  0  0
   -2.5118   -0.3676    0.7249 C   0  0  0  0  0  0  0  0  0  0  0  0
   -1.5431   -1.0886    0.9070 O   0  0  0  0  0  0  0  0  0  0  0  0
   -2.3265    0.9179    0.2568 N   0  0  0  0  0  0  0  0  0  0  0  0
   -3.1620    1.4979    0.1894 H   0  0  0  0  0  0  0  0  0  0  0  0
   -1.0374    1.6266    0.3102 C   0  0  1  0  0  0  0  0  0  0  0  0
   -0.2769    1.0139    0.8056 H   0  0  0  0  0  0  0  0  0  0  0  0
   -0.5539    1.9244   -1.1195 C   0  0  0  0  0  0  0  0  0  0  0  0
   -1.3332    2.4698   -1.6633 H   0  0  0  0  0  0  0  0  0  0  0  0
    0.3312    2.5683   -1.0718 H   0  0  0  0  0  0  0  0  0  0  0  0
   -0.2009    0.6323   -1.8681 C   0  0  0  0  0  0  0  0  0  0  0  0
    0.5828    0.0951   -1.3228 H   0  0  0  0  0  0  0  0  0  0  0  0
   -1.0808   -0.0176   -1.9208 H   0  0  0  0  0  0  0  0  0  0  0  0
    0.2750    0.9602   -3.2797 C   0  0  0  0  0  0  0  0  0  0  0  0
   -0.5139    1.5109   -3.8039 H   0  0  0  0  0  0  0  0  0  0  0  0
    1.1653    1.5964   -3.2214 H   0  0  0  0  0  0  0  0  0  0  0  0
    0.5875   -0.2904   -3.9944 N   0  3  0  0  0  0  0  0  0  0  0  0
    0.4847   -1.1590   -3.4703 H   0  0  0  0  0  0  0  0  0  0  0  0
    0.9643   -0.3365   -5.2394 C   0  0  0  0  0  0  0  0  0  0  0  0
    1.1024    0.8041   -5.9974 N   0  0  0  0  0  0  0  0  0  0  0  0
    0.7570    1.6795   -5.6091 H   0  0  0  0  0  0  0  0  0  0  0  0
    1.1598    0.7170   -7.0100 H   0  0  0  0  0  0  0  0  0  0  0  0
    1.2325   -1.5525   -5.8216 N   0  0  0  0  0  0  0  0  0  0  0  0
    1.3045   -2.3751   -5.2256 H   0  0  0  0  0  0  0  0  0  0  0  0
    1.7230   -1.5659   -6.7140 H   0  0  0  0  0  0  0  0  0  0  0  0
   -1.1742    2.9146    1.1455 C   0  0  0  0  0  0  0  0  0  0  0  0
   -1.7980    3.8638    0.6900 O   0  0  0  0  0  0  0  0  0  0  0  0
   -0.6569    2.9831    2.4256 N   0  0  0  0  0  0  0  0  0  0  0  0
   -0.2186    2.1479    2.8054 H   0  0  0  0  0  0  0  0  0  0  0  0
   -0.8183    4.1466    3.2912 C   0  0  0  0  0  0  0  0  0  0  0  0
   -1.8786    4.3285    3.4967 H   0  0  0  0  0  0  0  0  0  0  0  0
   -0.3045    3.9850    4.2439 H   0  0  0  0  0  0  0  0  0  0  0  0
   -0.3934    5.0387    2.8187 H   0  0  0  0  0  0  0  0  0  0  0  0
  1  2  1  0  0  0  0
  2  3  1  0  0  0  0
  2  4  1  0  0  0  0
  2  5  1  0  0  0  0
  5  6  2  0  0  0  0
  5  7  1  0  0  0  0
  7  8  1  0  0  0  0
  7  9  1  0  0  0  0
  9 10  1  0  0  0  0
  9 11  1  0  0  0  0
  9 29  1  0  0  0  0
 11 12  1  0  0  0  0
 11 13  1  0  0  0  0
 11 14  1  0  0  0  0
 14 15  1  0  0  0  0
 14 16  1  0  0  0  0
 14 17  1  0  0  0  0
 17 18  1  0  0  0  0
 17 19  1  0  0  0  0
 17 20  1  0  0  0  0
 20 21  1  0  0  0  0
 20 22  2  0  0  0  0
 22 23  1  0  0  0  0
 22 26  1  0  0  0  0
 23 24  1  0  0  0  0
 23 25  1  0  0  0  0
 26 27  1  0  0  0  0
 26 28  1  0  0  0  0
 29 30  2  0  0  0  0
 29 31  1  0  0  0  0
 31 32  1  0  0  0  0
 31 33  1  0  0  0  0
 33 34  1  0  0  0  0
 33 35  1  0  0  0  0
 33 36  1  0  0  0  0
M  CHG  1  20   1
M  END
$$$$

  -OEChem-02172215453D

 36 35  0     1  0  0  0  0  0999 V2000
   -3.8648   -1.8918    1.3999 H   0  0  0  0  0  0  0  0  0  0  0  0
   -3.9080   -0.8831    0.9791 C   0  0  0  0  0  0  0  0  0  0  0  0
   -4.4189   -0.2289    1.6900 H   0  0  0  0  0  0  0  0  0  0  0  0
   -4.4788   -0.9127    0.0481 H   0  0  0  0  0  0  0  0  0  0  0  0
   -2.5067   -0.3671    0.7148 C   0  0  0  0  0  0  0  0  0  0  0  0
   -1.5415   -1.0997    0.8696 O   0  0  0  0  0  0  0  0  0  0  0  0
   -2.3183    0.9160    0.2423 N   0  0  0  0  0  0  0  0  0  0  0  0
   -3.1484    1.5083    0.2131 H   0  0  0  0  0  0  0  0  0  0  0  0
   -1.0267    1.6196    0.3014 C   0  0  1  0  0  0  0  0  0  0  0  0
   -0.2705    1.0033    0.7991 H   0  0  0  0  0  0  0  0  0  0  0  0
   -0.5421    1.9257   -1.1251 C   0  0  0  0  0  0  0  0  0  0  0  0
   -1.3196    2.4778   -1.6650 H   0  0  0  0  0  0  0  0  0  0  0  0
    0.3455    2.5657   -1.0743 H   0  0  0  0  0  0  0  0  0  0  0  0
   -0.1952    0.6350   -1.8787 C   0  0  0  0  0  0  0  0  0  0  0  0
    0.5841    0.0910   -1.3335 H   0  0  0  0  0  0  0  0  0  0  0  0
   -1.0795   -0.0089   -1.9338 H   0  0  0  0  0  0  0  0  0  0  0  0
    0.2830    0.9617   -3.2896 C   0  0  0  0  0  0  0  0  0  0  0  0
   -0.5031    1.5166   -3.8136 H   0  0  0  0  0  0  0  0  0  0  0  0
    1.1768    1.5929   -3.2317 H   0  0  0  0  0  0  0  0  0  0  0  0
    0.5879   -0.2912   -4.0039 N   0  3  0  0  0  0  0  0  0  0  0  0
    0.4782   -1.1592   -3.4800 H   0  0  0  0  0  0  0  0  0  0  0  0
    0.9648   -0.3403   -5.2487 C   0  0  0  0  0  0  0  0  0  0  0  0
    1.1103    0.7989   -6.0073 N   0  0  0  0  0  0  0  0  0  0  0  0
    0.7645    1.6754   -5.6219 H   0  0  0  0  0  0  0  0  0  0  0  0
    1.1680    0.7089   -7.0196 H   0  0  0  0  0  0  0  0  0  0  0  0
    1.2269   -1.5579   -5.8298 N   0  0  0  0  0  0  0  0  0  0  0  0
    1.2932   -2.3804   -5.2331 H   0  0  0  0  0  0  0  0  0  0  0  0
    1.7194   -1.5744   -6.7211 H   0  0  0  0  0  0  0  0  0  0  0  0
   -1.1677    2.9096    1.1318 C   0  0  0  0  0  0  0  0  0  0  0  0
   -1.9932    3.7472    0.7926 O   0  0  0  0  0  0  0  0  0  0  0  0
   -0.4151    3.1076    2.2744 N   0  0  0  0  0  0  0  0  0  0  0  0
    0.1871    2.3489    2.5833 H   0  0  0  0  0  0  0  0  0  0  0  0
   -0.5704    4.2743    3.1373 C   0  0  0  0  0  0  0  0  0  0  0  0
   -1.5822    4.3112    3.5549 H   0  0  0  0  0  0  0  0  0  0  0  0
    0.1444    4.2320    3.9651 H   0  0  0  0  0  0  0  0  0  0  0  0
   -0.3899    5.1961    2.5737 H   0  0  0  0  0  0  0  0  0  0  0  0
  1  2  1  0  0  0  0
  2  3  1  0  0  0  0
  2  4  1  0  0  0  0
  2  5  1  0  0  0  0
  5  6  2  0  0  0  0
  5  7  1  0  0  0  0
  7  8  1  0  0  0  0
  7  9  1  0  0  0  0
  9 10  1  0  0  0  0
  9 11  1  0  0  0  0
  9 29  1  0  0  0  0
 11 12  1  0  0  0  0
 11 13  1  0  0  0  0
 11 14  1  0  0  0  0
 14 15  1  0  0  0  0
 14 16  1  0  0  0  0
 14 17  1  0  0  0  0
 17 18  1  0  0  0  0
 17 19  1  0  0  0  0
 17 20  1  0  0  0  0
 20 21  1  0  0  0  0
 20 22  2  0  0  0  0
 22 23  1  0  0  0  0
 22 26  1  0  0  0  0
 23 24  1  0  0  0  0
 23 25  1  0  0  0  0
 26 27  1  0  0  0  0
 26 28  1  0  0  0  0
 29 30  2  0  0  0  0
 29 31  1  0  0  0  0
 31 32  1  0  0  0  0
 31 33  1  0  0  0  0
 33 34  1  0  0  0  0
 33 35  1  0  0  0  0
 33 36  1  0  0  0  0
M  CHG  1  20   1
M  END
$$$$

  -OEChem-02172215453D

 36 35  0     1  0  0  0  0  0999 V2000
   -3.8522   -1.8744    1.4427 H   0  0  0  0  0  0  0  0  0  0  0  0
   -3.9027   -0.8746    1.0022 C   0  0  0  0  0  0  0  0  0  0  0  0
   -4.3958   -0.2043    1.7108 H   0  0  0  0  0  0  0  0  0  0  0  0
   -4.4937   -0.9214    0.0846 H   0  0  0  0  0  0  0  0  0  0  0  0
   -2.5068   -0.3683    0.6956 C   0  0  0  0  0  0  0  0  0  0  0  0
   -1.5431   -1.1118    0.8038 O   0  0  0  0  0  0  0  0  0  0  0  0
   -2.3246    0.9157    0.2240 N   0  0  0  0  0  0  0  0  0  0  0  0
   -3.1511    1.5142    0.2471 H   0  0  0  0  0  0  0  0  0  0  0  0
   -1.0341    1.6211    0.2890 C   0  0  1  0  0  0  0  0  0  0  0  0
   -0.2818    1.0034    0.7912 H   0  0  0  0  0  0  0  0  0  0  0  0
   -0.5469    1.9300   -1.1350 C   0  0  0  0  0  0  0  0  0  0  0  0
   -1.3248    2.4815   -1.6752 H   0  0  0  0  0  0  0  0  0  0  0  0
    0.3400    2.5711   -1.0825 H   0  0  0  0  0  0  0  0  0  0  0  0
   -0.1970    0.6389   -1.8880 C   0  0  0  0  0  0  0  0  0  0  0  0
    0.5811    0.0954   -1.3406 H   0  0  0  0  0  0  0  0  0  0  0  0
   -1.0801   -0.0064   -1.9447 H   0  0  0  0  0  0  0  0  0  0  0  0
    0.2847    0.9633   -3.2983 C   0  0  0  0  0  0  0  0  0  0  0  0
   -0.4996    1.5170   -3.8261 H   0  0  0  0  0  0  0  0  0  0  0  0
    1.1784    1.5946   -3.2389 H   0  0  0  0  0  0  0  0  0  0  0  0
    0.5913   -0.2915   -4.0085 N   0  3  0  0  0  0  0  0  0  0  0  0
    0.4771   -1.1583   -3.4835 H   0  0  0  0  0  0  0  0  0  0  0  0
    0.9714   -0.3447   -5.2520 C   0  0  0  0  0  0  0  0  0  0  0  0
    1.1194    0.7919   -6.0143 N   0  0  0  0  0  0  0  0  0  0  0  0
    0.7777    1.6708   -5.6307 H   0  0  0  0  0  0  0  0  0  0  0  0
    1.1733    0.6988   -7.0266 H   0  0  0  0  0  0  0  0  0  0  0  0
    1.2326   -1.5648   -5.8287 N   0  0  0  0  0  0  0  0  0  0  0  0
    1.2953   -2.3860   -5.2296 H   0  0  0  0  0  0  0  0  0  0  0  0
    1.7269   -1.5851   -6.7189 H   0  0  0  0  0  0  0  0  0  0  0  0
   -1.1759    2.9116    1.1199 C   0  0  0  0  0  0  0  0  0  0  0  0
   -2.1530    3.6279    0.9418 O   0  0  0  0  0  0  0  0  0  0  0  0
   -0.2340    3.2555    2.0721 N   0  0  0  0  0  0  0  0  0  0  0  0
    0.5158    2.5953    2.2590 H   0  0  0  0  0  0  0  0  0  0  0  0
   -0.3621    4.4295    2.9298 C   0  0  0  0  0  0  0  0  0  0  0  0
   -1.2639    4.3578    3.5472 H   0  0  0  0  0  0  0  0  0  0  0  0
    0.5048    4.5116    3.5929 H   0  0  0  0  0  0  0  0  0  0  0  0
   -0.4212    5.3419    2.3267 H   0  0  0  0  0  0  0  0  0  0  0  0
  1  2  1  0  0  0  0
  2  3  1  0  0  0  0
  2  4  1  0  0  0  0
  2  5  1  0  0  0  0
  5  6  2  0  0  0  0
  5  7  1  0  0  0  0
  7  8  1  0  0  0  0
  7  9  1  0  0  0  0
  9 10  1  0  0  0  0
  9 11  1  0  0  0  0
  9 29  1  0  0  0  0
 11 12  1  0  0  0  0
 11 13  1  0  0  0  0
 11 14  1  0  0  0  0
 14 15  1  0  0  0  0
 14 16  1  0  0  0  0
 14 17  1  0  0  0  0
 17 18  1  0  0  0  0
 17 19  1  0  0  0  0
 17 20  1  0  0  0  0
 20 21  1  0  0  0  0
 20 22  2  0  0  0  0
 22 23  1  0  0  0  0
 22 26  1  0  0  0  0
 23 24  1  0  0  0  0
 23 25  1  0  0  0  0
 26 27  1  0  0  0  0
 26 28  1  0  0  0  0
 29 30  2  0  0  0  0
 29 31  1  0  0  0  0
 31 32  1  0  0  0  0
 31 33  1  0  0  0  0
 33 34  1  0  0  0  0
 33 35  1  0  0  0  0
 33 36  1  0  0  0  0
M  CHG  1  20   1
M  END
$$$$

  -OEChem-02172215453D

 36 35  0     1  0  0  0  0  0999 V2000
   -3.8386   -1.8699    1.4635 H   0  0  0  0  0  0  0  0  0  0  0  0
   -3.8984   -0.8795    1.0031 C   0  0  0  0  0  0  0  0  0  0  0  0
   -4.3914   -0.1983    1.7015 H   0  0  0  0  0  0  0  0  0  0  0  0
   -4.4952   -0.9486    0.0904 H   0  0  0  0  0  0  0  0  0  0  0  0
   -2.5080   -0.3702    0.6765 C   0  0  0  0  0  0  0  0  0  0  0  0
   -1.5436   -1.1166    0.7552 O   0  0  0  0  0  0  0  0  0  0  0  0
   -2.3334    0.9162    0.2084 N   0  0  0  0  0  0  0  0  0  0  0  0
   -3.1564    1.5171    0.2769 H   0  0  0  0  0  0  0  0  0  0  0  0
   -1.0443    1.6243    0.2826 C   0  0  1  0  0  0  0  0  0  0  0  0
   -0.2946    1.0072    0.7892 H   0  0  0  0  0  0  0  0  0  0  0  0
   -0.5550    1.9347   -1.1410 C   0  0  0  0  0  0  0  0  0  0  0  0
   -1.3332    2.4840   -1.6830 H   0  0  0  0  0  0  0  0  0  0  0  0
    0.3311    2.5766   -1.0878 H   0  0  0  0  0  0  0  0  0  0  0  0
   -0.2012    0.6436   -1.8928 C   0  0  0  0  0  0  0  0  0  0  0  0
    0.5764    0.1016   -1.3430 H   0  0  0  0  0  0  0  0  0  0  0  0
   -1.0834   -0.0032   -1.9510 H   0  0  0  0  0  0  0  0  0  0  0  0
    0.2829    0.9653   -3.3030 C   0  0  0  0  0  0  0  0  0  0  0  0
   -0.5017    1.5162   -3.8332 H   0  0  0  0  0  0  0  0  0  0  0  0
    1.1756    1.5980   -3.2440 H   0  0  0  0  0  0  0  0  0  0  0  0
    0.5920   -0.2915   -4.0085 N   0  3  0  0  0  0  0  0  0  0  0  0
    0.4789   -1.1564   -3.4801 H   0  0  0  0  0  0  0  0  0  0  0  0
    0.9745   -0.3489   -5.2511 C   0  0  0  0  0  0  0  0  0  0  0  0
    1.1228    0.7851   -6.0170 N   0  0  0  0  0  0  0  0  0  0  0  0
    0.7718    1.6627   -5.6388 H   0  0  0  0  0  0  0  0  0  0  0  0
    1.1750    0.6868   -7.0289 H   0  0  0  0  0  0  0  0  0  0  0  0
    1.2387   -1.5705   -5.8228 N   0  0  0  0  0  0  0  0  0  0  0  0
    1.3016   -2.3893   -5.2204 H   0  0  0  0  0  0  0  0  0  0  0  0
    1.7328   -1.5938   -6.7129 H   0  0  0  0  0  0  0  0  0  0  0  0
   -1.1864    2.9141    1.1168 C   0  0  0  0  0  0  0  0  0  0  0  0
   -2.2576    3.5084    1.1213 O   0  0  0  0  0  0  0  0  0  0  0  0
   -0.1202    3.4151    1.8414 N   0  0  0  0  0  0  0  0  0  0  0  0
    0.7303    2.8605    1.8820 H   0  0  0  0  0  0  0  0  0  0  0  0
   -0.2164    4.6099    2.6744 C   0  0  0  0  0  0  0  0  0  0  0  0
   -0.9532    4.4647    3.4717 H   0  0  0  0  0  0  0  0  0  0  0  0
    0.7514    4.8315    3.1349 H   0  0  0  0  0  0  0  0  0  0  0  0
   -0.5167    5.4744    2.0727 H   0  0  0  0  0  0  0  0  0  0  0  0
  1  2  1  0  0  0  0
  2  3  1  0  0  0  0
  2  4  1  0  0  0  0
  2  5  1  0  0  0  0
  5  6  2  0  0  0  0
  5  7  1  0  0  0  0
  7  8  1  0  0  0  0
  7  9  1  0  0  0  0
  9 10  1  0  0  0  0
  9 11  1  0  0  0  0
  9 29  1  0  0  0  0
 11 12  1  0  0  0  0
 11 13  1  0  0  0  0
 11 14  1  0  0  0  0
 14 15  1  0  0  0  0
 14 16  1  0  0  0  0
 14 17  1  0  0  0  0
 17 18  1  0  0  0  0
 17 19  1  0  0  0  0
 17 20  1  0  0  0  0
 20 21  1  0  0  0  0
 20 22  2  0  0  0  0
 22 23  1  0  0  0  0
 22 26  1  0  0  0  0
 23 24  1  0  0  0  0
 23 25  1  0  0  0  0
 26 27  1  0  0  0  0
 26 28  1  0  0  0  0
 29 30  2  0  0  0  0
 29 31  1  0  0  0  0
 31 32  1  0  0  0  0
 31 33  1  0  0  0  0
 33 34  1  0  0  0  0
 33 35  1  0  0  0  0
 33 36  1  0  0  0  0
M  CHG  1  20   1
M  END
$$$$

  -OEChem-02172215453D

 36 35  0     1  0  0  0  0  0999 V2000
   -3.8119   -1.8910    1.4095 H   0  0  0  0  0  0  0  0  0  0  0  0
   -3.8787   -0.8677    1.0297 C   0  0  0  0  0  0  0  0  0  0  0  0
   -4.2996   -0.2309    1.8122 H   0  0  0  0  0  0  0  0  0  0  0  0
   -4.5436   -0.8553    0.1628 H   0  0  0  0  0  0  0  0  0  0  0  0
   -2.5030   -0.3645    0.6380 C   0  0  0  0  0  0  0  0  0  0  0  0
   -1.5396   -1.1165    0.6648 O   0  0  0  0  0  0  0  0  0  0  0  0
   -2.3425    0.9263    0.1773 N   0  0  0  0  0  0  0  0  0  0  0  0
   -3.1614    1.5240    0.3022 H   0  0  0  0  0  0  0  0  0  0  0  0
   -1.0546    1.6367    0.2622 C   0  0  1  0  0  0  0  0  0  0  0  0
   -0.3057    1.0199    0.7709 H   0  0  0  0  0  0  0  0  0  0  0  0
   -0.5618    1.9509   -1.1606 C   0  0  0  0  0  0  0  0  0  0  0  0
   -1.3392    2.4997   -1.7037 H   0  0  0  0  0  0  0  0  0  0  0  0
    0.3238    2.5931   -1.1067 H   0  0  0  0  0  0  0  0  0  0  0  0
   -0.2046    0.6595   -1.9112 C   0  0  0  0  0  0  0  0  0  0  0  0
    0.5699    0.1178   -1.3568 H   0  0  0  0  0  0  0  0  0  0  0  0
   -1.0867    0.0129   -1.9712 H   0  0  0  0  0  0  0  0  0  0  0  0
    0.2844    0.9722   -3.3220 C   0  0  0  0  0  0  0  0  0  0  0  0
   -0.4969    1.5207   -3.8596 H   0  0  0  0  0  0  0  0  0  0  0  0
    1.1789    1.6024   -3.2651 H   0  0  0  0  0  0  0  0  0  0  0  0
    0.5929   -0.2925   -4.0144 N   0  3  0  0  0  0  0  0  0  0  0  0
    0.4725   -1.1514   -3.4775 H   0  0  0  0  0  0  0  0  0  0  0  0
    0.9797   -0.3667   -5.2549 C   0  0  0  0  0  0  0  0  0  0  0  0
    1.1349    0.7564   -6.0350 N   0  0  0  0  0  0  0  0  0  0  0  0
    0.7759    1.6381   -5.6748 H   0  0  0  0  0  0  0  0  0  0  0  0
    1.2041    0.6437   -7.0444 H   0  0  0  0  0  0  0  0  0  0  0  0
    1.2436   -1.5962   -5.8098 N   0  0  0  0  0  0  0  0  0  0  0  0
    1.3023   -2.4071   -5.1965 H   0  0  0  0  0  0  0  0  0  0  0  0
    1.7416   -1.6325   -6.6974 H   0  0  0  0  0  0  0  0  0  0  0  0
   -1.2026    2.9209    1.1070 C   0  0  0  0  0  0  0  0  0  0  0  0
   -2.3197    3.3776    1.3196 O   0  0  0  0  0  0  0  0  0  0  0  0
   -0.0904    3.5883    1.5874 N   0  0  0  0  0  0  0  0  0  0  0  0
    0.8167    3.1469    1.4673 H   0  0  0  0  0  0  0  0  0  0  0  0
   -0.1821    4.7814    2.4235 C   0  0  0  0  0  0  0  0  0  0  0  0
   -0.7152    4.5578    3.3539 H   0  0  0  0  0  0  0  0  0  0  0  0
    0.8181    5.1460    2.6773 H   0  0  0  0  0  0  0  0  0  0  0  0
   -0.7156    5.5801    1.8968 H   0  0  0  0  0  0  0  0  0  0  0  0
  1  2  1  0  0  0  0
  2  3  1  0  0  0  0
  2  4  1  0  0  0  0
  2  5  1  0  0  0  0
  5  6  2  0  0  0  0
  5  7  1  0  0  0  0
  7  8  1  0  0  0  0
  7  9  1  0  0  0  0
  9 10  1  0  0  0  0
  9 11  1  0  0  0  0
  9 29  1  0  0  0  0
 11 12  1  0  0  0  0
 11 13  1  0  0  0  0
 11 14  1  0  0  0  0
 14 15  1  0  0  0  0
 14 16  1  0  0  0  0
 14 17  1  0  0  0  0
 17 18  1  0  0  0  0
 17 19  1  0  0  0  0
 17 20  1  0  0  0  0
 20 21  1  0  0  0  0
 20 22  2  0  0  0  0
 22 23  1  0  0  0  0
 22 26  1  0  0  0  0
 23 24  1  0  0  0  0
 23 25  1  0  0  0  0
 26 27  1  0  0  0  0
 26 28  1  0  0  0  0
 29 30  2  0  0  0  0
 29 31  1  0  0  0  0
 31 32  1  0  0  0  0
 31 33  1  0  0  0  0
 33 34  1  0  0  0  0
 33 35  1  0  0  0  0
 33 36  1  0  0  0  0
M  CHG  1  20   1
M  END
$$$$

  -OEChem-02172215453D

 36 35  0     1  0  0  0  0  0999 V2000
   -3.7395   -1.8839    1.4604 H   0  0  0  0  0  0  0  0  0  0  0  0
   -3.8341   -0.8576    1.0945 C   0  0  0  0  0  0  0  0  0  0  0  0
   -4.1883   -0.2256    1.9130 H   0  0  0  0  0  0  0  0  0  0  0  0
   -4.5659   -0.8368    0.2838 H   0  0  0  0  0  0  0  0  0  0  0  0
   -2.4929   -0.3538    0.5977 C   0  0  0  0  0  0  0  0  0  0  0  0
   -1.5351   -1.1096    0.5331 O   0  0  0  0  0  0  0  0  0  0  0  0
   -2.3649    0.9456    0.1495 N   0  0  0  0  0  0  0  0  0  0  0  0
   -3.1755    1.5240    0.3717 H   0  0  0  0  0  0  0  0  0  0  0  0
   -1.0783    1.6592    0.2466 C   0  0  1  0  0  0  0  0  0  0  0  0
   -0.2633    0.9696    0.4925 H   0  0  0  0  0  0  0  0  0  0  0  0
   -0.7806    2.2982   -1.1214 C   0  0  0  0  0  0  0  0  0  0  0  0
   -1.6256    2.9260   -1.4253 H   0  0  0  0  0  0  0  0  0  0  0  0
    0.1015    2.9424   -1.0441 H   0  0  0  0  0  0  0  0  0  0  0  0
   -0.5197    1.2133   -2.1775 C   0  0  0  0  0  0  0  0  0  0  0  0
    0.3262    0.5929   -1.8609 H   0  0  0  0  0  0  0  0  0  0  0  0
   -1.3974    0.5632   -2.2625 H   0  0  0  0  0  0  0  0  0  0  0  0
   -0.2237    1.8414   -3.5363 C   0  0  0  0  0  0  0  0  0  0  0  0
   -1.0723    2.4659   -3.8364 H   0  0  0  0  0  0  0  0  0  0  0  0
    0.6668    2.4749   -3.4572 H   0  0  0  0  0  0  0  0  0  0  0  0
   -0.0034    0.7692   -4.5239 N   0  3  0  0  0  0  0  0  0  0  0  0
   -0.0415   -0.1897   -4.1786 H   0  0  0  0  0  0  0  0  0  0  0  0
    0.2157    0.9803   -5.7894 C   0  0  0  0  0  0  0  0  0  0  0  0
    0.2604    2.2504   -6.3177 N   0  0  0  0  0  0  0  0  0  0  0  0
   -0.0501    3.0210   -5.7297 H   0  0  0  0  0  0  0  0  0  0  0  0
    0.1915    2.3608   -7.3274 H   0  0  0  0  0  0  0  0  0  0  0  0
    0.4078   -0.0901   -6.6297 N   0  0  0  0  0  0  0  0  0  0  0  0
    0.5416   -1.0146   -6.2240 H   0  0  0  0  0  0  0  0  0  0  0  0
    0.7821    0.0822   -7.5611 H   0  0  0  0  0  0  0  0  0  0  0  0
   -1.1148    2.7016    1.3888 C   0  0  0  0  0  0  0  0  0  0  0  0
   -2.1646    2.9083    1.9860 O   0  0  0  0  0  0  0  0  0  0  0  0
   -0.0131    3.4909    1.6679 N   0  0  0  0  0  0  0  0  0  0  0  0
    0.8646    3.2538    1.2154 H   0  0  0  0  0  0  0  0  0  0  0  0
   -0.0018    4.4913    2.7316 C   0  0  0  0  0  0  0  0  0  0  0  0
   -0.1759    4.0200    3.7048 H   0  0  0  0  0  0  0  0  0  0  0  0
    0.9657    5.0017    2.7631 H   0  0  0  0  0  0  0  0  0  0  0  0
   -0.7808    5.2422    2.5614 H   0  0  0  0  0  0  0  0  0  0  0  0
  1  2  1  0  0  0  0
  2  3  1  0  0  0  0
  2  4  1  0  0  0  0
  2  5  1  0  0  0  0
  5  6  2  0  0  0  0
  5  7  1  0  0  0  0
  7  8  1  0  0  0  0
  7  9  1  0  0  0  0
  9 10  1  0  0  0  0
  9 11  1  0  0  0  0
  9 29  1  0  0  0  0
 11 12  1  0  0  0  0
 11 13  1  0  0  0  0
 11 14  1  0  0  0  0
 14 15  1  0  0  0  0
 14 16  1  0  0  0  0
 14 17  1  0  0  0  0
 17 18  1  0  0  0  0
 17 19  1  0  0  0  0
 17 20  1  0  0  0  0
 20 21  1  0  0  0  0
 20 22  2  0  0  0  0
 22 23  1  0  0  0  0
 22 26  1  0  0  0  0
 23 24  1  0  0  0  0
 23 25  1  0  0  0  0
 26 27  1  0  0  0  0
 26 28  1  0  0  0  0
 29 30  2  0  0  0  0
 29 31  1  0  0  0  0
 31 32  1  0  0  0  0
 31 33  1  0  0  0  0
 33 34  1  0  0  0  0
 33 35  1  0  0  0  0
 33 36  1  0  0  0  0
M  CHG  1  20   1
M  END
$$$$

  -OEChem-02172215453D

 36 35  0     1  0  0  0  0  0999 V2000
   -3.6993   -1.8825    1.4322 H   0  0  0  0  0  0  0  0  0  0  0  0
   -3.8080   -0.8459    1.1010 C   0  0  0  0  0  0  0  0  0  0  0  0
   -4.1156   -0.2365    1.9548 H   0  0  0  0  0  0  0  0  0  0  0  0
   -4.5812   -0.7992    0.3308 H   0  0  0  0  0  0  0  0  0  0  0  0
   -2.4919   -0.3328    0.5506 C   0  0  0  0  0  0  0  0  0  0  0  0
   -1.5426   -1.0905    0.4137 O   0  0  0  0  0  0  0  0  0  0  0  0
   -2.3809    0.9758    0.1243 N   0  0  0  0  0  0  0  0  0  0  0  0
   -3.1865    1.5418    0.3905 H   0  0  0  0  0  0  0  0  0  0  0  0
   -1.0933    1.6885    0.2262 C   0  0  1  0  0  0  0  0  0  0  0  0
   -0.2792    0.9962    0.4674 H   0  0  0  0  0  0  0  0  0  0  0  0
   -0.7913    2.3239   -1.1441 C   0  0  0  0  0  0  0  0  0  0  0  0
   -1.6341    2.9521   -1.4528 H   0  0  0  0  0  0  0  0  0  0  0  0
    0.0940    2.9633   -1.0713 H   0  0  0  0  0  0  0  0  0  0  0  0
   -0.5289    1.2305   -2.1922 C   0  0  0  0  0  0  0  0  0  0  0  0
    0.3141    0.6104   -1.8673 H   0  0  0  0  0  0  0  0  0  0  0  0
   -1.4079    0.5817   -2.2747 H   0  0  0  0  0  0  0  0  0  0  0  0
   -0.2276    1.8426   -3.5572 C   0  0  0  0  0  0  0  0  0  0  0  0
   -1.0740    2.4654   -3.8665 H   0  0  0  0  0  0  0  0  0  0  0  0
    0.6642    2.4746   -3.4833 H   0  0  0  0  0  0  0  0  0  0  0  0
   -0.0070    0.7574   -4.5308 N   0  3  0  0  0  0  0  0  0  0  0  0
   -0.0491   -0.1967   -4.1728 H   0  0  0  0  0  0  0  0  0  0  0  0
    0.2163    0.9502   -5.7984 C   0  0  0  0  0  0  0  0  0  0  0  0
    0.2660    2.2126   -6.3445 N   0  0  0  0  0  0  0  0  0  0  0  0
   -0.0481    2.9914   -5.7694 H   0  0  0  0  0  0  0  0  0  0  0  0
    0.2016    2.3082   -7.3561 H   0  0  0  0  0  0  0  0  0  0  0  0
    0.4146   -0.1322   -6.6220 N   0  0  0  0  0  0  0  0  0  0  0  0
    0.5523   -1.0490   -6.2003 H   0  0  0  0  0  0  0  0  0  0  0  0
    0.8005    0.0280   -7.5509 H   0  0  0  0  0  0  0  0  0  0  0  0
   -1.1241    2.7086    1.3911 C   0  0  0  0  0  0  0  0  0  0  0  0
   -2.0757    2.7145    2.1627 O   0  0  0  0  0  0  0  0  0  0  0  0
   -0.1677    3.7026    1.5051 N   0  0  0  0  0  0  0  0  0  0  0  0
    0.6432    3.6512    0.8965 H   0  0  0  0  0  0  0  0  0  0  0  0
   -0.1713    4.6890    2.5816 C   0  0  0  0  0  0  0  0  0  0  0  0
   -0.1029    4.1945    3.5566 H   0  0  0  0  0  0  0  0  0  0  0  0
    0.6809    5.3678    2.4783 H   0  0  0  0  0  0  0  0  0  0  0  0
   -1.0906    5.2840    2.5542 H   0  0  0  0  0  0  0  0  0  0  0  0
  1  2  1  0  0  0  0
  2  3  1  0  0  0  0
  2  4  1  0  0  0  0
  2  5  1  0  0  0  0
  5  6  2  0  0  0  0
  5  7  1  0  0  0  0
  7  8  1  0  0  0  0
  7  9  1  0  0  0  0
  9 10  1  0  0  0  0
  9 11  1  0  0  0  0
  9 29  1  0  0  0  0
 11 12  1  0  0  0  0
 11 13  1  0  0  0  0
 11 14  1  0  0  0  0
 14 15  1  0  0  0  0
 14 16  1  0  0  0  0
 14 17  1  0  0  0  0
 17 18  1  0  0  0  0
 17 19  1  0  0  0  0
 17 20  1  0  0  0  0
 20 21  1  0  0  0  0
 20 22  2  0  0  0  0
 22 23  1  0  0  0  0
 22 26  1  0  0  0  0
 23 24  1  0  0  0  0
 23 25  1  0  0  0  0
 26 27  1  0  0  0  0
 26 28  1  0  0  0  0
 29 30  2  0  0  0  0
 29 31  1  0  0  0  0
 31 32  1  0  0  0  0
 31 33  1  0  0  0  0
 33 34  1  0  0  0  0
 33 35  1  0  0  0  0
 33 36  1  0  0  0  0
M  CHG  1  20   1
M  END
$$$$

  -OEChem-02172215453D

 36 35  0     1  0  0  0  0  0999 V2000
   -3.6752   -1.8867    1.3738 H   0  0  0  0  0  0  0  0  0  0  0  0
   -3.7828   -0.8339    1.0986 C   0  0  0  0  0  0  0  0  0  0  0  0
   -4.0354   -0.2621    1.9954 H   0  0  0  0  0  0  0  0  0  0  0  0
   -4.5936   -0.7388    0.3728 H   0  0  0  0  0  0  0  0  0  0  0  0
   -2.4875   -0.3136    0.5069 C   0  0  0  0  0  0  0  0  0  0  0  0
   -1.5485   -1.0711    0.3096 O   0  0  0  0  0  0  0  0  0  0  0  0
   -2.3899    1.0032    0.1030 N   0  0  0  0  0  0  0  0  0  0  0  0
   -3.1934    1.5572    0.3967 H   0  0  0  0  0  0  0  0  0  0  0  0
   -1.1019    1.7156    0.2046 C   0  0  1  0  0  0  0  0  0  0  0  0
   -0.2879    1.0208    0.4392 H   0  0  0  0  0  0  0  0  0  0  0  0
   -0.7955    2.3514   -1.1654 C   0  0  0  0  0  0  0  0  0  0  0  0
   -1.6361    2.9806   -1.4777 H   0  0  0  0  0  0  0  0  0  0  0  0
    0.0929    2.9863   -1.0928 H   0  0  0  0  0  0  0  0  0  0  0  0
   -0.5332    1.2509   -2.2072 C   0  0  0  0  0  0  0  0  0  0  0  0
    0.3072    0.6310   -1.8749 H   0  0  0  0  0  0  0  0  0  0  0  0
   -1.4132    0.6030   -2.2871 H   0  0  0  0  0  0  0  0  0  0  0  0
   -0.2255    1.8466   -3.5777 C   0  0  0  0  0  0  0  0  0  0  0  0
   -1.0684    2.4691   -3.8977 H   0  0  0  0  0  0  0  0  0  0  0  0
    0.6695    2.4751   -3.5094 H   0  0  0  0  0  0  0  0  0  0  0  0
   -0.0081    0.7451   -4.5339 N   0  3  0  0  0  0  0  0  0  0  0  0
   -0.0585   -0.2028   -4.1605 H   0  0  0  0  0  0  0  0  0  0  0  0
    0.2201    0.9153   -5.8039 C   0  0  0  0  0  0  0  0  0  0  0  0
    0.2785    2.1683   -6.3697 N   0  0  0  0  0  0  0  0  0  0  0  0
   -0.0265    2.9594   -5.8069 H   0  0  0  0  0  0  0  0  0  0  0  0
    0.2212    2.2497   -7.3829 H   0  0  0  0  0  0  0  0  0  0  0  0
    0.4107   -0.1811   -6.6107 N   0  0  0  0  0  0  0  0  0  0  0  0
    0.5398   -1.0927   -6.1753 H   0  0  0  0  0  0  0  0  0  0  0  0
    0.7968   -0.0386   -7.5423 H   0  0  0  0  0  0  0  0  0  0  0  0
   -1.1291    2.7114    1.3916 C   0  0  0  0  0  0  0  0  0  0  0  0
   -1.9184    2.5260    2.3090 O   0  0  0  0  0  0  0  0  0  0  0  0
   -0.3901    3.8820    1.3830 N   0  0  0  0  0  0  0  0  0  0  0  0
    0.2779    4.0174    0.6312 H   0  0  0  0  0  0  0  0  0  0  0  0
   -0.4253    4.8550    2.4713 C   0  0  0  0  0  0  0  0  0  0  0  0
   -0.1125    4.3901    3.4126 H   0  0  0  0  0  0  0  0  0  0  0  0
    0.2498    5.6895    2.2579 H   0  0  0  0  0  0  0  0  0  0  0  0
   -1.4375    5.2540    2.5975 H   0  0  0  0  0  0  0  0  0  0  0  0
  1  2  1  0  0  0  0
  2  3  1  0  0  0  0
  2  4  1  0  0  0  0
  2  5  1  0  0  0  0
  5  6  2  0  0  0  0
  5  7  1  0  0  0  0
  7  8  1  0  0  0  0
  7  9  1  0  0  0  0
  9 10  1  0  0  0  0
  9 11  1  0  0  0  0
  9 29  1  0  0  0  0
 11 12  1  0  0  0  0
 11 13  1  0  0  0  0
 11 14  1  0  0  0  0
 14 15  1  0  0  0  0
 14 16  1  0  0  0  0
 14 17  1  0  0  0  0
 17 18  1  0  0  0  0
 17 19  1  0  0  0  0
 17 20  1  0  0  0  0
 20 21  1  0  0  0  0
 20 22  2  0  0  0  0
 22 23  1  0  0  0  0
 22 26  1  0  0  0  0
 23 24  1  0  0  0  0
 23 25  1  0  0  0  0
 26 27  1  0  0  0  0
 26 28  1  0  0  0  0
 29 30  2  0  0  0  0
 29 31  1  0  0  0  0
 31 32  1  0  0  0  0
 31 33  1  0  0  0  0
 33 34  1  0  0  0  0
 33 35  1  0  0  0  0
 33 36  1  0  0  0  0
M  CHG  1  20   1
M  END
$$$$

  -OEChem-02172215453D

 36 35  0     1  0  0  0  0  0999 V2000
   -3.6566   -1.8898    1.3507 H   0  0  0  0  0  0  0  0  0  0  0  0
   -3.7723   -0.8334    1.0924 C   0  0  0  0  0  0  0  0  0  0  0  0
   -4.0116   -0.2752    2.0014 H   0  0  0  0  0  0  0  0  0  0  0  0
   -4.5953   -0.7308    0.3814 H   0  0  0  0  0  0  0  0  0  0  0  0
   -2.4881   -0.3011    0.4875 C   0  0  0  0  0  0  0  0  0  0  0  0
   -1.5534   -1.0550    0.2583 O   0  0  0  0  0  0  0  0  0  0  0  0
   -2.4008    1.0205    0.0955 N   0  0  0  0  0  0  0  0  0  0  0  0
   -3.2065    1.5670    0.3943 H   0  0  0  0  0  0  0  0  0  0  0  0
   -1.1133    1.7345    0.1904 C   0  0  1  0  0  0  0  0  0  0  0  0
   -0.2994    1.0379    0.4213 H   0  0  0  0  0  0  0  0  0  0  0  0
   -0.8017    2.3677   -1.1793 C   0  0  0  0  0  0  0  0  0  0  0  0
   -1.6397    2.9978   -1.4971 H   0  0  0  0  0  0  0  0  0  0  0  0
    0.0897    2.9987   -1.1033 H   0  0  0  0  0  0  0  0  0  0  0  0
   -0.5378    1.2617   -2.2148 C   0  0  0  0  0  0  0  0  0  0  0  0
    0.2999    0.6414   -1.8761 H   0  0  0  0  0  0  0  0  0  0  0  0
   -1.4189    0.6154   -2.2940 H   0  0  0  0  0  0  0  0  0  0  0  0
   -0.2239    1.8462   -3.5883 C   0  0  0  0  0  0  0  0  0  0  0  0
   -1.0639    2.4680   -3.9168 H   0  0  0  0  0  0  0  0  0  0  0  0
    0.6729    2.4725   -3.5221 H   0  0  0  0  0  0  0  0  0  0  0  0
   -0.0060    0.7359   -4.5339 N   0  3  0  0  0  0  0  0  0  0  0  0
   -0.0611   -0.2090   -4.1532 H   0  0  0  0  0  0  0  0  0  0  0  0
    0.2271    0.8948   -5.8041 C   0  0  0  0  0  0  0  0  0  0  0  0
    0.2909    2.1427   -6.3808 N   0  0  0  0  0  0  0  0  0  0  0  0
   -0.0163    2.9397   -5.8274 H   0  0  0  0  0  0  0  0  0  0  0  0
    0.2409    2.2151   -7.3951 H   0  0  0  0  0  0  0  0  0  0  0  0
    0.4170   -0.2096   -6.5999 N   0  0  0  0  0  0  0  0  0  0  0  0
    0.5432   -1.1176   -6.1558 H   0  0  0  0  0  0  0  0  0  0  0  0
    0.8042   -0.0769   -7.5325 H   0  0  0  0  0  0  0  0  0  0  0  0
   -1.1313    2.7168    1.3872 C   0  0  0  0  0  0  0  0  0  0  0  0
   -1.7115    2.3882    2.4130 O   0  0  0  0  0  0  0  0  0  0  0  0
   -0.6577    4.0137    1.2838 N   0  0  0  0  0  0  0  0  0  0  0  0
   -0.1926    4.2847    0.4238 H   0  0  0  0  0  0  0  0  0  0  0  0
   -0.7244    4.9773    2.3790 C   0  0  0  0  0  0  0  0  0  0  0  0
   -0.1882    4.5993    3.2563 H   0  0  0  0  0  0  0  0  0  0  0  0
   -0.2689    5.9263    2.0798 H   0  0  0  0  0  0  0  0  0  0  0  0
   -1.7657    5.1685    2.6600 H   0  0  0  0  0  0  0  0  0  0  0  0
  1  2  1  0  0  0  0
  2  3  1  0  0  0  0
  2  4  1  0  0  0  0
  2  5  1  0  0  0  0
  5  6  2  0  0  0  0
  5  7  1  0  0  0  0
  7  8  1  0  0  0  0
  7  9  1  0  0  0  0
  9 10  1  0  0  0  0
  9 11  1  0  0  0  0
  9 29  1  0  0  0  0
 11 12  1  0  0  0  0
 11 13  1  0  0  0  0
 11 14  1  0  0  0  0
 14 15  1  0  0  0  0
 14 16  1  0  0  0  0
 14 17  1  0  0  0  0
 17 18  1  0  0  0  0
 17 19  1  0  0  0  0
 17 20  1  0  0  0  0
 20 21  1  0  0  0  0
 20 22  2  0  0  0  0
 22 23  1  0  0  0  0
 22 26  1  0  0  0  0
 23 24  1  0  0  0  0
 23 25  1  0  0  0  0
 26 27  1  0  0  0  0
 26 28  1  0  0  0  0
 29 30  2  0  0  0  0
 29 31  1  0  0  0  0
 31 32  1  0  0  0  0
 31 33  1  0  0  0  0
 33 34  1  0  0  0  0
 33 35  1  0  0  0  0
 33 36  1  0  0  0  0
M  CHG  1  20   1
M  END
$$$$

  -OEChem-02172215453D

 36 35  0     1  0  0  0  0  0999 V2000
   -3.6571   -1.9070    1.3153 H   0  0  0  0  0  0  0  0  0  0  0  0
   -3.7751   -0.8468    1.0744 C   0  0  0  0  0  0  0  0  0  0  0  0
   -4.0263   -0.3062    1.9907 H   0  0  0  0  0  0  0  0  0  0  0  0
   -4.5909   -0.7363    0.3563 H   0  0  0  0  0  0  0  0  0  0  0  0
   -2.4875   -0.2987    0.4913 C   0  0  0  0  0  0  0  0  0  0  0  0
   -1.5484   -1.0464    0.2610 O   0  0  0  0  0  0  0  0  0  0  0  0
   -2.4077    1.0244    0.1008 N   0  0  0  0  0  0  0  0  0  0  0  0
   -3.2228    1.5661    0.3803 H   0  0  0  0  0  0  0  0  0  0  0  0
   -1.1236    1.7455    0.1868 C   0  0  1  0  0  0  0  0  0  0  0  0
   -0.3068    1.0514    0.4166 H   0  0  0  0  0  0  0  0  0  0  0  0
   -0.8107    2.3773   -1.1827 C   0  0  0  0  0  0  0  0  0  0  0  0
   -1.6502    3.0021   -1.5065 H   0  0  0  0  0  0  0  0  0  0  0  0
    0.0780    3.0126   -1.1019 H   0  0  0  0  0  0  0  0  0  0  0  0
   -0.5408    1.2693   -2.2141 C   0  0  0  0  0  0  0  0  0  0  0  0
    0.2980    0.6525   -1.8714 H   0  0  0  0  0  0  0  0  0  0  0  0
   -1.4197    0.6196   -2.2931 H   0  0  0  0  0  0  0  0  0  0  0  0
   -0.2247    1.8505   -3.5885 C   0  0  0  0  0  0  0  0  0  0  0  0
   -1.0650    2.4692   -3.9217 H   0  0  0  0  0  0  0  0  0  0  0  0
    0.6705    2.4787   -3.5217 H   0  0  0  0  0  0  0  0  0  0  0  0
   -0.0017    0.7360   -4.5275 N   0  3  0  0  0  0  0  0  0  0  0  0
   -0.0519   -0.2063   -4.1399 H   0  0  0  0  0  0  0  0  0  0  0  0
    0.2347    0.8863   -5.7983 C   0  0  0  0  0  0  0  0  0  0  0  0
    0.2982    2.1294   -6.3855 N   0  0  0  0  0  0  0  0  0  0  0  0
   -0.0034    2.9324   -5.8380 H   0  0  0  0  0  0  0  0  0  0  0  0
    0.2517    2.1942   -7.4005 H   0  0  0  0  0  0  0  0  0  0  0  0
    0.4274   -0.2244   -6.5846 N   0  0  0  0  0  0  0  0  0  0  0  0
    0.5568   -1.1277   -6.1319 H   0  0  0  0  0  0  0  0  0  0  0  0
    0.8146   -0.0989   -7.5181 H   0  0  0  0  0  0  0  0  0  0  0  0
   -1.1344    2.7258    1.3824 C   0  0  0  0  0  0  0  0  0  0  0  0
   -1.4616    2.3093    2.4839 O   0  0  0  0  0  0  0  0  0  0  0  0
   -0.9606    4.0891    1.2141 N   0  0  0  0  0  0  0  0  0  0  0  0
   -0.7326    4.4298    0.2860 H   0  0  0  0  0  0  0  0  0  0  0  0
   -1.0514    5.0470    2.3125 C   0  0  0  0  0  0  0  0  0  0  0  0
   -0.3292    4.8000    3.0982 H   0  0  0  0  0  0  0  0  0  0  0  0
   -0.8372    6.0586    1.9544 H   0  0  0  0  0  0  0  0  0  0  0  0
   -2.0571    5.0398    2.7461 H   0  0  0  0  0  0  0  0  0  0  0  0
  1  2  1  0  0  0  0
  2  3  1  0  0  0  0
  2  4  1  0  0  0  0
  2  5  1  0  0  0  0
  5  6  2  0  0  0  0
  5  7  1  0  0  0  0
  7  8  1  0  0  0  0
  7  9  1  0  0  0  0
  9 10  1  0  0  0  0
  9 11  1  0  0  0  0
  9 29  1  0  0  0  0
 11 12  1  0  0  0  0
 11 13  1  0  0  0  0
 11 14  1  0  0  0  0
 14 15  1  0  0  0  0
 14 16  1  0  0  0  0
 14 17  1  0  0  0  0
 17 18  1  0  0  0  0
 17 19  1  0  0  0  0
 17 20  1  0  0  0  0
 20 21  1  0  0  0  0
 20 22  2  0  0  0  0
 22 23  1  0  0  0  0
 22 26  1  0  0  0  0
 23 24  1  0  0  0  0
 23 25  1  0  0  0  0
 26 27  1  0  0  0  0
 26 28  1  0  0  0  0
 29 30  2  0  0  0  0
 29 31  1  0  0  0  0
 31 32  1  0  0  0  0
 31 33  1  0  0  0  0
 33 34  1  0  0  0  0
 33 35  1  0  0  0  0
 33 36  1  0  0  0  0
M  CHG  1  20   1
M  END
$$$$

  -OEChem-02172215453D

 36 35  0     1  0  0  0  0  0999 V2000
   -3.6659   -1.9062    1.3298 H   0  0  0  0  0  0  0  0  0  0  0  0
   -3.7884   -0.8518    1.0660 C   0  0  0  0  0  0  0  0  0  0  0  0
   -4.0684   -0.2970    1.9652 H   0  0  0  0  0  0  0  0  0  0  0  0
   -4.5873   -0.7635    0.3263 H   0  0  0  0  0  0  0  0  0  0  0  0
   -2.4919   -0.3020    0.5036 C   0  0  0  0  0  0  0  0  0  0  0  0
   -1.5511   -1.0498    0.2829 O   0  0  0  0  0  0  0  0  0  0  0  0
   -2.4112    1.0204    0.1098 N   0  0  0  0  0  0  0  0  0  0  0  0
   -3.2336    1.5620    0.3658 H   0  0  0  0  0  0  0  0  0  0  0  0
   -1.1302    1.7474    0.1877 C   0  0  1  0  0  0  0  0  0  0  0  0
   -0.3115    1.0549    0.4169 H   0  0  0  0  0  0  0  0  0  0  0  0
   -0.8169    2.3766   -1.1817 C   0  0  0  0  0  0  0  0  0  0  0  0
   -1.6584    2.9957   -1.5100 H   0  0  0  0  0  0  0  0  0  0  0  0
    0.0672    3.0181   -1.0966 H   0  0  0  0  0  0  0  0  0  0  0  0
   -0.5414    1.2675   -2.2103 C   0  0  0  0  0  0  0  0  0  0  0  0
    0.3001    0.6556   -1.8654 H   0  0  0  0  0  0  0  0  0  0  0  0
   -1.4172    0.6140   -2.2892 H   0  0  0  0  0  0  0  0  0  0  0  0
   -0.2248    1.8480   -3.5850 C   0  0  0  0  0  0  0  0  0  0  0  0
   -1.0669    2.4629   -3.9205 H   0  0  0  0  0  0  0  0  0  0  0  0
    0.6678    2.4800   -3.5171 H   0  0  0  0  0  0  0  0  0  0  0  0
    0.0045    0.7346   -4.5240 N   0  3  0  0  0  0  0  0  0  0  0  0
   -0.0417   -0.2083   -4.1374 H   0  0  0  0  0  0  0  0  0  0  0  0
    0.2427    0.8885   -5.7940 C   0  0  0  0  0  0  0  0  0  0  0  0
    0.3015    2.1342   -6.3758 N   0  0  0  0  0  0  0  0  0  0  0  0
   -0.0016    2.9336   -5.8239 H   0  0  0  0  0  0  0  0  0  0  0  0
    0.2542    2.2035   -7.3903 H   0  0  0  0  0  0  0  0  0  0  0  0
    0.4442   -0.2186   -6.5833 N   0  0  0  0  0  0  0  0  0  0  0  0
    0.5790   -1.1222   -6.1327 H   0  0  0  0  0  0  0  0  0  0  0  0
    0.8381   -0.0870   -7.5131 H   0  0  0  0  0  0  0  0  0  0  0  0
   -1.1347    2.7328    1.3768 C   0  0  0  0  0  0  0  0  0  0  0  0
   -1.1787    2.2888    2.5135 O   0  0  0  0  0  0  0  0  0  0  0  0
   -1.2728    4.0974    1.1878 N   0  0  0  0  0  0  0  0  0  0  0  0
   -1.2900    4.4473    0.2354 H   0  0  0  0  0  0  0  0  0  0  0  0
   -1.3948    5.0477    2.2898 C   0  0  0  0  0  0  0  0  0  0  0  0
   -0.5138    4.9981    2.9388 H   0  0  0  0  0  0  0  0  0  0  0  0
   -1.4821    6.0685    1.9047 H   0  0  0  0  0  0  0  0  0  0  0  0
   -2.2848    4.8290    2.8900 H   0  0  0  0  0  0  0  0  0  0  0  0
  1  2  1  0  0  0  0
  2  3  1  0  0  0  0
  2  4  1  0  0  0  0
  2  5  1  0  0  0  0
  5  6  2  0  0  0  0
  5  7  1  0  0  0  0
  7  8  1  0  0  0  0
  7  9  1  0  0  0  0
  9 10  1  0  0  0  0
  9 11  1  0  0  0  0
  9 29  1  0  0  0  0
 11 12  1  0  0  0  0
 11 13  1  0  0  0  0
 11 14  1  0  0  0  0
 14 15  1  0  0  0  0
 14 16  1  0  0  0  0
 14 17  1  0  0  0  0
 17 18  1  0  0  0  0
 17 19  1  0  0  0  0
 17 20  1  0  0  0  0
 20 21  1  0  0  0  0
 20 22  2  0  0  0  0
 22 23  1  0  0  0  0
 22 26  1  0  0  0  0
 23 24  1  0  0  0  0
 23 25  1  0  0  0  0
 26 27  1  0  0  0  0
 26 28  1  0  0  0  0
 29 30  2  0  0  0  0
 29 31  1  0  0  0  0
 31 32  1  0  0  0  0
 31 33  1  0  0  0  0
 33 34  1  0  0  0  0
 33 35  1  0  0  0  0
 33 36  1  0  0  0  0
M  CHG  1  20   1
M  END
$$$$

  -OEChem-02172215453D

 36 35  0     1  0  0  0  0  0999 V2000
   -3.6424   -1.9724    1.2712 H   0  0  0  0  0  0  0  0  0  0  0  0
   -3.7602   -0.9020    1.0800 C   0  0  0  0  0  0  0  0  0  0  0  0
   -4.0144   -0.4053    2.0199 H   0  0  0  0  0  0  0  0  0  0  0  0
   -4.5752   -0.7593    0.3668 H   0  0  0  0  0  0  0  0  0  0  0  0
   -2.4713   -0.3267    0.5250 C   0  0  0  0  0  0  0  0  0  0  0  0
   -1.5108   -1.0539    0.3241 O   0  0  0  0  0  0  0  0  0  0  0  0
   -2.4167    0.9940    0.1201 N   0  0  0  0  0  0  0  0  0  0  0  0
   -3.2581    1.5195    0.3452 H   0  0  0  0  0  0  0  0  0  0  0  0
   -1.1529    1.7521    0.1895 C   0  0  1  0  0  0  0  0  0  0  0  0
   -0.3194    1.0774    0.4200 H   0  0  0  0  0  0  0  0  0  0  0  0
   -0.8495    2.3838   -1.1802 C   0  0  0  0  0  0  0  0  0  0  0  0
   -1.7027    2.9832   -1.5144 H   0  0  0  0  0  0  0  0  0  0  0  0
    0.0186    3.0463   -1.0919 H   0  0  0  0  0  0  0  0  0  0  0  0
   -0.5460    1.2789   -2.2046 C   0  0  0  0  0  0  0  0  0  0  0  0
    0.3083    0.6878   -1.8549 H   0  0  0  0  0  0  0  0  0  0  0  0
   -1.4065    0.6052   -2.2839 H   0  0  0  0  0  0  0  0  0  0  0  0
   -0.2379    1.8625   -3.5800 C   0  0  0  0  0  0  0  0  0  0  0  0
   -1.0924    2.4572   -3.9215 H   0  0  0  0  0  0  0  0  0  0  0  0
    0.6392    2.5154   -3.5099 H   0  0  0  0  0  0  0  0  0  0  0  0
    0.0192    0.7502   -4.5135 N   0  3  0  0  0  0  0  0  0  0  0  0
    0.0229   -0.1896   -4.1167 H   0  0  0  0  0  0  0  0  0  0  0  0
    0.2583    0.9020   -5.7835 C   0  0  0  0  0  0  0  0  0  0  0  0
    0.2920    2.1454   -6.3727 N   0  0  0  0  0  0  0  0  0  0  0  0
    0.3036    2.9591   -5.7615 H   0  0  0  0  0  0  0  0  0  0  0  0
    0.7117    2.2349   -7.2959 H   0  0  0  0  0  0  0  0  0  0  0  0
    0.4847   -0.2060   -6.5652 N   0  0  0  0  0  0  0  0  0  0  0  0
    0.2966   -1.1284   -6.1762 H   0  0  0  0  0  0  0  0  0  0  0  0
    0.4653   -0.1012   -7.5780 H   0  0  0  0  0  0  0  0  0  0  0  0
   -1.1684    2.7505    1.3651 C   0  0  0  0  0  0  0  0  0  0  0  0
   -0.8912    2.3601    2.4878 O   0  0  0  0  0  0  0  0  0  0  0  0
   -1.6338    4.0435    1.1988 N   0  0  0  0  0  0  0  0  0  0  0  0
   -1.8971    4.3394    0.2644 H   0  0  0  0  0  0  0  0  0  0  0  0
   -1.7503    4.9961    2.2993 C   0  0  0  0  0  0  0  0  0  0  0  0
   -0.7769    5.1529    2.7764 H   0  0  0  0  0  0  0  0  0  0  0  0
   -2.1127    5.9608    1.9312 H   0  0  0  0  0  0  0  0  0  0  0  0
   -2.4542    4.6277    3.0533 H   0  0  0  0  0  0  0  0  0  0  0  0
  1  2  1  0  0  0  0
  2  3  1  0  0  0  0
  2  4  1  0  0  0  0
  2  5  1  0  0  0  0
  5  6  2  0  0  0  0
  5  7  1  0  0  0  0
  7  8  1  0  0  0  0
  7  9  1  0  0  0  0
  9 10  1  0  0  0  0
  9 11  1  0  0  0  0
  9 29  1  0  0  0  0
 11 12  1  0  0  0  0
 11 13  1  0  0  0  0
 11 14  1  0  0  0  0
 14 15  1  0  0  0  0
 14 16  1  0  0  0  0
 14 17  1  0  0  0  0
 17 18  1  0  0  0  0
 17 19  1  0  0  0  0
 17 20  1  0  0  0  0
 20 21  1  0  0  0  0
 20 22  2  0  0  0  0
 22 23  1  0  0  0  0
 22 26  1  0  0  0  0
 23 24  1  0  0  0  0
 23 25  1  0  0  0  0
 26 27  1  0  0  0  0
 26 28  1  0  0  0  0
 29 30  2  0  0  0  0
 29 31  1  0  0  0  0
 31 32  1  0  0  0  0
 31 33  1  0  0  0  0
 33 34  1  0  0  0  0
 33 35  1  0  0  0  0
 33 36  1  0  0  0  0
M  CHG  1  20   1
M  END
$$$$

  -OEChem-02172215453D

 36 35  0     1  0  0  0  0  0999 V2000
   -3.6648   -2.0110    1.2622 H   0  0  0  0  0  0  0  0  0  0  0  0
   -3.7909   -0.9440    1.0568 C   0  0  0  0  0  0  0  0  0  0  0  0
   -4.0914   -0.4441    1.9809 H   0  0  0  0  0  0  0  0  0  0  0  0
   -4.5772   -0.8201    0.3087 H   0  0  0  0  0  0  0  0  0  0  0  0
   -2.4884   -0.3540    0.5516 C   0  0  0  0  0  0  0  0  0  0  0  0
   -1.5113   -1.0699    0.4004 O   0  0  0  0  0  0  0  0  0  0  0  0
   -2.4366    0.9645    0.1384 N   0  0  0  0  0  0  0  0  0  0  0  0
   -3.2893    1.4840    0.3305 H   0  0  0  0  0  0  0  0  0  0  0  0
   -1.1800    1.7364    0.2037 C   0  0  1  0  0  0  0  0  0  0  0  0
   -0.3424    1.0671    0.4353 H   0  0  0  0  0  0  0  0  0  0  0  0
   -0.8756    2.3706   -1.1633 C   0  0  0  0  0  0  0  0  0  0  0  0
   -1.7316    2.9642   -1.5007 H   0  0  0  0  0  0  0  0  0  0  0  0
   -0.0142    3.0409   -1.0692 H   0  0  0  0  0  0  0  0  0  0  0  0
   -0.5578    1.2701   -2.1876 C   0  0  0  0  0  0  0  0  0  0  0  0
    0.2993    0.6842   -1.8354 H   0  0  0  0  0  0  0  0  0  0  0  0
   -1.4127    0.5904   -2.2732 H   0  0  0  0  0  0  0  0  0  0  0  0
   -0.2485    1.8633   -3.5586 C   0  0  0  0  0  0  0  0  0  0  0  0
   -1.1056    2.4542   -3.9005 H   0  0  0  0  0  0  0  0  0  0  0  0
    0.6232    2.5222   -3.4786 H   0  0  0  0  0  0  0  0  0  0  0  0
    0.0240    0.7613   -4.4998 N   0  3  0  0  0  0  0  0  0  0  0  0
    0.0386   -0.1815   -4.1106 H   0  0  0  0  0  0  0  0  0  0  0  0
    0.2673    0.9277   -5.7674 C   0  0  0  0  0  0  0  0  0  0  0  0
    0.2909    2.1767   -6.3450 N   0  0  0  0  0  0  0  0  0  0  0  0
    0.2916    2.9845   -5.7259 H   0  0  0  0  0  0  0  0  0  0  0  0
    0.7184    2.2790   -7.2635 H   0  0  0  0  0  0  0  0  0  0  0  0
    0.5114   -0.1696   -6.5586 N   0  0  0  0  0  0  0  0  0  0  0  0
    0.3376   -1.0983   -6.1780 H   0  0  0  0  0  0  0  0  0  0  0  0
    0.4937   -0.0559   -7.5704 H   0  0  0  0  0  0  0  0  0  0  0  0
   -1.1935    2.7484    1.3666 C   0  0  0  0  0  0  0  0  0  0  0  0
   -0.5869    2.5025    2.3964 O   0  0  0  0  0  0  0  0  0  0  0  0
   -1.9359    3.9133    1.2783 N   0  0  0  0  0  0  0  0  0  0  0  0
   -2.4153    4.1084    0.4053 H   0  0  0  0  0  0  0  0  0  0  0  0
   -1.9976    4.8999    2.3529 C   0  0  0  0  0  0  0  0  0  0  0  0
   -0.9965    5.2803    2.5825 H   0  0  0  0  0  0  0  0  0  0  0  0
   -2.6283    5.7448    2.0594 H   0  0  0  0  0  0  0  0  0  0  0  0
   -2.4187    4.4535    3.2602 H   0  0  0  0  0  0  0  0  0  0  0  0
  1  2  1  0  0  0  0
  2  3  1  0  0  0  0
  2  4  1  0  0  0  0
  2  5  1  0  0  0  0
  5  6  2  0  0  0  0
  5  7  1  0  0  0  0
  7  8  1  0  0  0  0
  7  9  1  0  0  0  0
  9 10  1  0  0  0  0
  9 11  1  0  0  0  0
  9 29  1  0  0  0  0
 11 12  1  0  0  0  0
 11 13  1  0  0  0  0
 11 14  1  0  0  0  0
 14 15  1  0  0  0  0
 14 16  1  0  0  0  0
 14 17  1  0  0  0  0
 17 18  1  0  0  0  0
 17 19  1  0  0  0  0
 17 20  1  0  0  0  0
 20 21  1  0  0  0  0
 20 22  2  0  0  0  0
 22 23  1  0  0  0  0
 22 26  1  0  0  0  0
 23 24  1  0  0  0  0
 23 25  1  0  0  0  0
 26 27  1  0  0  0  0
 26 28  1  0  0  0  0
 29 30  2  0  0  0  0
 29 31  1  0  0  0  0
 31 32  1  0  0  0  0
 31 33  1  0  0  0  0
 33 34  1  0  0  0  0
 33 35  1  0  0  0  0
 33 36  1  0  0  0  0
M  CHG  1  20   1
M  END
$$$$

  -OEChem-02172215453D

 36 35  0     1  0  0  0  0  0999 V2000
   -3.6971   -2.0286    1.2794 H   0  0  0  0  0  0  0  0  0  0  0  0
   -3.8231   -0.9680    1.0433 C   0  0  0  0  0  0  0  0  0  0  0  0
   -4.1697   -0.4499    1.9409 H   0  0  0  0  0  0  0  0  0  0  0  0
   -4.5760   -0.8695    0.2581 H   0  0  0  0  0  0  0  0  0  0  0  0
   -2.5048   -0.3776    0.5814 C   0  0  0  0  0  0  0  0  0  0  0  0
   -1.5170   -1.0876    0.4899 O   0  0  0  0  0  0  0  0  0  0  0  0
   -2.4455    0.9374    0.1578 N   0  0  0  0  0  0  0  0  0  0  0  0
   -3.3079    1.4549    0.3032 H   0  0  0  0  0  0  0  0  0  0  0  0
   -1.1917    1.7161    0.2188 C   0  0  1  0  0  0  0  0  0  0  0  0
   -0.3529    1.0494    0.4530 H   0  0  0  0  0  0  0  0  0  0  0  0
   -0.8865    2.3497   -1.1472 C   0  0  0  0  0  0  0  0  0  0  0  0
   -1.7430    2.9423   -1.4843 H   0  0  0  0  0  0  0  0  0  0  0  0
   -0.0279    3.0237   -1.0505 H   0  0  0  0  0  0  0  0  0  0  0  0
   -0.5613    1.2537   -2.1736 C   0  0  0  0  0  0  0  0  0  0  0  0
    0.2995    0.6731   -1.8221 H   0  0  0  0  0  0  0  0  0  0  0  0
   -1.4119    0.5694   -2.2625 H   0  0  0  0  0  0  0  0  0  0  0  0
   -0.2526    1.8571   -3.5404 C   0  0  0  0  0  0  0  0  0  0  0  0
   -1.1125    2.4453   -3.8798 H   0  0  0  0  0  0  0  0  0  0  0  0
    0.6147    2.5213   -3.4539 H   0  0  0  0  0  0  0  0  0  0  0  0
    0.0291    0.7669   -4.4928 N   0  3  0  0  0  0  0  0  0  0  0  0
    0.0536   -0.1801   -4.1142 H   0  0  0  0  0  0  0  0  0  0  0  0
    0.2732    0.9521   -5.7577 C   0  0  0  0  0  0  0  0  0  0  0  0
    0.2881    2.2094   -6.3172 N   0  0  0  0  0  0  0  0  0  0  0  0
    0.2819    3.0081   -5.6862 H   0  0  0  0  0  0  0  0  0  0  0  0
    0.7164    2.3283   -7.2331 H   0  0  0  0  0  0  0  0  0  0  0  0
    0.5265   -0.1314   -6.5648 N   0  0  0  0  0  0  0  0  0  0  0  0
    0.3544   -1.0667   -6.2001 H   0  0  0  0  0  0  0  0  0  0  0  0
    0.5107   -0.0015   -7.5749 H   0  0  0  0  0  0  0  0  0  0  0  0
   -1.2025    2.7427    1.3687 C   0  0  0  0  0  0  0  0  0  0  0  0
   -0.3433    2.6981    2.2343 O   0  0  0  0  0  0  0  0  0  0  0  0
   -2.1631    3.7387    1.4148 N   0  0  0  0  0  0  0  0  0  0  0  0
   -2.8209    3.8035    0.6452 H   0  0  0  0  0  0  0  0  0  0  0  0
   -2.2134    4.7458    2.4707 C   0  0  0  0  0  0  0  0  0  0  0  0
   -1.3185    5.3765    2.4432 H   0  0  0  0  0  0  0  0  0  0  0  0
   -3.0924    5.3857    2.3453 H   0  0  0  0  0  0  0  0  0  0  0  0
   -2.2749    4.2683    3.4548 H   0  0  0  0  0  0  0  0  0  0  0  0
  1  2  1  0  0  0  0
  2  3  1  0  0  0  0
  2  4  1  0  0  0  0
  2  5  1  0  0  0  0
  5  6  2  0  0  0  0
  5  7  1  0  0  0  0
  7  8  1  0  0  0  0
  7  9  1  0  0  0  0
  9 10  1  0  0  0  0
  9 11  1  0  0  0  0
  9 29  1  0  0  0  0
 11 12  1  0  0  0  0
 11 13  1  0  0  0  0
 11 14  1  0  0  0  0
 14 15  1  0  0  0  0
 14 16  1  0  0  0  0
 14 17  1  0  0  0  0
 17 18  1  0  0  0  0
 17 19  1  0  0  0  0
 17 20  1  0  0  0  0
 20 21  1  0  0  0  0
 20 22  2  0  0  0  0
 22 23  1  0  0  0  0
 22 26  1  0  0  0  0
 23 24  1  0  0  0  0
 23 25  1  0  0  0  0
 26 27  1  0  0  0  0
 26 28  1  0  0  0  0
 29 30  2  0  0  0  0
 29 31  1  0  0  0  0
 31 32  1  0  0  0  0
 31 33  1  0  0  0  0
 33 34  1  0  0  0  0
 33 35  1  0  0  0  0
 33 36  1  0  0  0  0
M  CHG  1  20   1
M  END
$$$$

  -OEChem-02172215453D

 36 35  0     1  0  0  0  0  0999 V2000
   -3.7423   -2.0496    1.3455 H   0  0  0  0  0  0  0  0  0  0  0  0
   -3.8782   -1.0325    0.9663 C   0  0  0  0  0  0  0  0  0  0  0  0
   -4.3788   -0.4383    1.7345 H   0  0  0  0  0  0  0  0  0  0  0  0
   -4.5077   -1.0706    0.0743 H   0  0  0  0  0  0  0  0  0  0  0  0
   -2.5323   -0.4193    0.6305 C   0  0  0  0  0  0  0  0  0  0  0  0
   -1.5264   -1.1075    0.6627 O   0  0  0  0  0  0  0  0  0  0  0  0
   -2.4591    0.8928    0.1992 N   0  0  0  0  0  0  0  0  0  0  0  0
   -3.3376    1.4008    0.2276 H   0  0  0  0  0  0  0  0  0  0  0  0
   -1.2099    1.6825    0.2506 C   0  0  1  0  0  0  0  0  0  0  0  0
   -0.3683    1.0184    0.4815 H   0  0  0  0  0  0  0  0  0  0  0  0
   -0.9165    2.3144   -1.1181 C   0  0  0  0  0  0  0  0  0  0  0  0
   -1.7789    2.9027   -1.4486 H   0  0  0  0  0  0  0  0  0  0  0  0
   -0.0619    2.9944   -1.0257 H   0  0  0  0  0  0  0  0  0  0  0  0
   -0.5869    1.2259   -2.1494 C   0  0  0  0  0  0  0  0  0  0  0  0
    0.2826    0.6533   -1.8068 H   0  0  0  0  0  0  0  0  0  0  0  0
   -1.4305    0.5329   -2.2386 H   0  0  0  0  0  0  0  0  0  0  0  0
   -0.2932    1.8488   -3.5105 C   0  0  0  0  0  0  0  0  0  0  0  0
   -1.1620    2.4314   -3.8366 H   0  0  0  0  0  0  0  0  0  0  0  0
    0.5661    2.5227   -3.4198 H   0  0  0  0  0  0  0  0  0  0  0  0
   -0.0042    0.7764   -4.4798 N   0  3  0  0  0  0  0  0  0  0  0  0
    0.0043   -0.1783   -4.1216 H   0  0  0  0  0  0  0  0  0  0  0  0
    0.2300    0.9841   -5.7431 C   0  0  0  0  0  0  0  0  0  0  0  0
    0.2258    2.2513   -6.2813 N   0  0  0  0  0  0  0  0  0  0  0  0
    0.2009    3.0468   -5.6466 H   0  0  0  0  0  0  0  0  0  0  0  0
    0.5753    2.3933   -7.2265 H   0  0  0  0  0  0  0  0  0  0  0  0
    0.4832   -0.0861   -6.5685 N   0  0  0  0  0  0  0  0  0  0  0  0
    0.5992   -1.0177   -6.1731 H   0  0  0  0  0  0  0  0  0  0  0  0
    0.7403    0.0732   -7.5408 H   0  0  0  0  0  0  0  0  0  0  0  0
   -1.1905    2.7316    1.3808 C   0  0  0  0  0  0  0  0  0  0  0  0
   -0.1507    2.9387    1.9868 O   0  0  0  0  0  0  0  0  0  0  0  0
   -2.2857    3.5438    1.6234 N   0  0  0  0  0  0  0  0  0  0  0  0
   -3.1120    3.4184    1.0499 H   0  0  0  0  0  0  0  0  0  0  0  0
   -2.2792    4.6076    2.6235 C   0  0  0  0  0  0  0  0  0  0  0  0
   -1.5270    5.3640    2.3745 H   0  0  0  0  0  0  0  0  0  0  0  0
   -3.2581    5.0949    2.6677 H   0  0  0  0  0  0  0  0  0  0  0  0
   -2.0522    4.2009    3.6151 H   0  0  0  0  0  0  0  0  0  0  0  0
  1  2  1  0  0  0  0
  2  3  1  0  0  0  0
  2  4  1  0  0  0  0
  2  5  1  0  0  0  0
  5  6  2  0  0  0  0
  5  7  1  0  0  0  0
  7  8  1  0  0  0  0
  7  9  1  0  0  0  0
  9 10  1  0  0  0  0
  9 11  1  0  0  0  0
  9 29  1  0  0  0  0
 11 12  1  0  0  0  0
 11 13  1  0  0  0  0
 11 14  1  0  0  0  0
 14 15  1  0  0  0  0
 14 16  1  0  0  0  0
 14 17  1  0  0  0  0
 17 18  1  0  0  0  0
 17 19  1  0  0  0  0
 17 20  1  0  0  0  0
 20 21  1  0  0  0  0
 20 22  2  0  0  0  0
 22 23  1  0  0  0  0
 22 26  1  0  0  0  0
 23 24  1  0  0  0  0
 23 25  1  0  0  0  0
 26 27  1  0  0  0  0
 26 28  1  0  0  0  0
 29 30  2  0  0  0  0
 29 31  1  0  0  0  0
 31 32  1  0  0  0  0
 31 33  1  0  0  0  0
 33 34  1  0  0  0  0
 33 35  1  0  0  0  0
 33 36  1  0  0  0  0
M  CHG  1  20   1
M  END
$$$$

  -OEChem-02172215453D

 36 35  0     1  0  0  0  0  0999 V2000
   -3.7923   -2.0764    1.2643 H   0  0  0  0  0  0  0  0  0  0  0  0
   -3.9008   -1.0675    0.8559 C   0  0  0  0  0  0  0  0  0  0  0  0
   -4.5199   -0.4804    1.5385 H   0  0  0  0  0  0  0  0  0  0  0  0
   -4.3981   -1.1327   -0.1145 H   0  0  0  0  0  0  0  0  0  0  0  0
   -2.5380   -0.4198    0.7015 C   0  0  0  0  0  0  0  0  0  0  0  0
   -1.5296   -1.0679    0.9198 O   0  0  0  0  0  0  0  0  0  0  0  0
   -2.4416    0.8835    0.2488 N   0  0  0  0  0  0  0  0  0  0  0  0
   -3.3180    1.3646    0.0702 H   0  0  0  0  0  0  0  0  0  0  0  0
   -1.1965    1.6803    0.2843 C   0  0  1  0  0  0  0  0  0  0  0  0
   -0.3508    1.0247    0.5225 H   0  0  0  0  0  0  0  0  0  0  0  0
   -0.9161    2.2920   -1.0978 C   0  0  0  0  0  0  0  0  0  0  0  0
   -1.7861    2.8705   -1.4270 H   0  0  0  0  0  0  0  0  0  0  0  0
   -0.0664    2.9804   -1.0221 H   0  0  0  0  0  0  0  0  0  0  0  0
   -0.5844    1.2008   -2.1253 C   0  0  0  0  0  0  0  0  0  0  0  0
    0.2944    0.6393   -1.7883 H   0  0  0  0  0  0  0  0  0  0  0  0
   -1.4215    0.4991   -2.2063 H   0  0  0  0  0  0  0  0  0  0  0  0
   -0.3078    1.8292   -3.4884 C   0  0  0  0  0  0  0  0  0  0  0  0
   -1.1860    2.4032   -3.8044 H   0  0  0  0  0  0  0  0  0  0  0  0
    0.5438    2.5133   -3.4020 H   0  0  0  0  0  0  0  0  0  0  0  0
   -0.0133    0.7692   -4.4699 N   0  3  0  0  0  0  0  0  0  0  0  0
    0.0118   -0.1888   -4.1220 H   0  0  0  0  0  0  0  0  0  0  0  0
    0.2076    0.9942   -5.7328 C   0  0  0  0  0  0  0  0  0  0  0  0
    0.1827    2.2672   -6.2567 N   0  0  0  0  0  0  0  0  0  0  0  0
    0.1578    3.0553   -5.6126 H   0  0  0  0  0  0  0  0  0  0  0  0
    0.5167    2.4237   -7.2054 H   0  0  0  0  0  0  0  0  0  0  0  0
    0.4684   -0.0630   -6.5722 N   0  0  0  0  0  0  0  0  0  0  0  0
    0.6099   -0.9946   -6.1856 H   0  0  0  0  0  0  0  0  0  0  0  0
    0.7255    0.1121   -7.5418 H   0  0  0  0  0  0  0  0  0  0  0  0
   -1.1696    2.7578    1.3888 C   0  0  0  0  0  0  0  0  0  0  0  0
   -0.0918    3.2112    1.7438 O   0  0  0  0  0  0  0  0  0  0  0  0
   -2.3316    3.3652    1.8333 N   0  0  0  0  0  0  0  0  0  0  0  0
   -3.2129    2.9329    1.5811 H   0  0  0  0  0  0  0  0  0  0  0  0
   -2.3352    4.4213    2.8415 C   0  0  0  0  0  0  0  0  0  0  0  0
   -1.7501    5.2817    2.4991 H   0  0  0  0  0  0  0  0  0  0  0  0
   -3.3581    4.7576    3.0363 H   0  0  0  0  0  0  0  0  0  0  0  0
   -1.9057    4.0564    3.7808 H   0  0  0  0  0  0  0  0  0  0  0  0
  1  2  1  0  0  0  0
  2  3  1  0  0  0  0
  2  4  1  0  0  0  0
  2  5  1  0  0  0  0
  5  6  2  0  0  0  0
  5  7  1  0  0  0  0
  7  8  1  0  0  0  0
  7  9  1  0  0  0  0
  9 10  1  0  0  0  0
  9 11  1  0  0  0  0
  9 29  1  0  0  0  0
 11 12  1  0  0  0  0
 11 13  1  0  0  0  0
 11 14  1  0  0  0  0
 14 15  1  0  0  0  0
 14 16  1  0  0  0  0
 14 17  1  0  0  0  0
 17 18  1  0  0  0  0
 17 19  1  0  0  0  0
 17 20  1  0  0  0  0
 20 21  1  0  0  0  0
 20 22  2  0  0  0  0
 22 23  1  0  0  0  0
 22 26  1  0  0  0  0
 23 24  1  0  0  0  0
 23 25  1  0  0  0  0
 26 27  1  0  0  0  0
 26 28  1  0  0  0  0
 29 30  2  0  0  0  0
 29 31  1  0  0  0  0
 31 32  1  0  0  0  0
 31 33  1  0  0  0  0
 33 34  1  0  0  0  0
 33 35  1  0  0  0  0
 33 36  1  0  0  0  0
M  CHG  1  20   1
M  END
$$$$

  -OEChem-02172215453D

 36 35  0     1  0  0  0  0  0999 V2000
   -3.8077   -2.0729    1.2399 H   0  0  0  0  0  0  0  0  0  0  0  0
   -3.9050   -1.0660    0.8231 C   0  0  0  0  0  0  0  0  0  0  0  0
   -4.5580   -0.4809    1.4751 H   0  0  0  0  0  0  0  0  0  0  0  0
   -4.3584   -1.1375   -0.1681 H   0  0  0  0  0  0  0  0  0  0  0  0
   -2.5411   -0.4096    0.7260 C   0  0  0  0  0  0  0  0  0  0  0  0
   -1.5413   -1.0411    1.0181 O   0  0  0  0  0  0  0  0  0  0  0  0
   -2.4313    0.8888    0.2627 N   0  0  0  0  0  0  0  0  0  0  0  0
   -3.2973    1.3637    0.0225 H   0  0  0  0  0  0  0  0  0  0  0  0
   -1.1833    1.6813    0.2979 C   0  0  1  0  0  0  0  0  0  0  0  0
   -0.3386    1.0275    0.5435 H   0  0  0  0  0  0  0  0  0  0  0  0
   -0.9061    2.2823   -1.0915 C   0  0  0  0  0  0  0  0  0  0  0  0
   -1.7756    2.8616   -1.4198 H   0  0  0  0  0  0  0  0  0  0  0  0
   -0.0549    2.9697   -1.0270 H   0  0  0  0  0  0  0  0  0  0  0  0
   -0.5793    1.1879   -2.1169 C   0  0  0  0  0  0  0  0  0  0  0  0
    0.3013    0.6270   -1.7831 H   0  0  0  0  0  0  0  0  0  0  0  0
   -1.4176    0.4876   -2.1939 H   0  0  0  0  0  0  0  0  0  0  0  0
   -0.3088    1.8182   -3.4803 C   0  0  0  0  0  0  0  0  0  0  0  0
   -1.1885    2.3934   -3.7896 H   0  0  0  0  0  0  0  0  0  0  0  0
    0.5426    2.5029   -3.3952 H   0  0  0  0  0  0  0  0  0  0  0  0
   -0.0177    0.7642   -4.4694 N   0  3  0  0  0  0  0  0  0  0  0  0
    0.0094   -0.1961   -4.1285 H   0  0  0  0  0  0  0  0  0  0  0  0
    0.1968    0.9986   -5.7318 C   0  0  0  0  0  0  0  0  0  0  0  0
    0.1672    2.2759   -6.2453 N   0  0  0  0  0  0  0  0  0  0  0  0
    0.1475    3.0580   -5.5939 H   0  0  0  0  0  0  0  0  0  0  0  0
    0.5011    2.4406   -7.1925 H   0  0  0  0  0  0  0  0  0  0  0  0
    0.4529   -0.0515   -6.5820 N   0  0  0  0  0  0  0  0  0  0  0  0
    0.5971   -0.9867   -6.2054 H   0  0  0  0  0  0  0  0  0  0  0  0
    0.6981    0.1318   -7.5532 H   0  0  0  0  0  0  0  0  0  0  0  0
   -1.1666    2.7678    1.3960 C   0  0  0  0  0  0  0  0  0  0  0  0
   -0.1395    3.4023    1.5884 O   0  0  0  0  0  0  0  0  0  0  0  0
   -2.3285    3.1573    2.0403 N   0  0  0  0  0  0  0  0  0  0  0  0
   -3.1294    2.5411    1.9537 H   0  0  0  0  0  0  0  0  0  0  0  0
   -2.3464    4.1767    3.0854 C   0  0  0  0  0  0  0  0  0  0  0  0
   -1.9743    5.1313    2.6982 H   0  0  0  0  0  0  0  0  0  0  0  0
   -3.3667    4.3294    3.4502 H   0  0  0  0  0  0  0  0  0  0  0  0
   -1.7186    3.8721    3.9295 H   0  0  0  0  0  0  0  0  0  0  0  0
  1  2  1  0  0  0  0
  2  3  1  0  0  0  0
  2  4  1  0  0  0  0
  2  5  1  0  0  0  0
  5  6  2  0  0  0  0
  5  7  1  0  0  0  0
  7  8  1  0  0  0  0
  7  9  1  0  0  0  0
  9 10  1  0  0  0  0
  9 11  1  0  0  0  0
  9 29  1  0  0  0  0
 11 12  1  0  0  0  0
 11 13  1  0  0  0  0
 11 14  1  0  0  0  0
 14 15  1  0  0  0  0
 14 16  1  0  0  0  0
 14 17  1  0  0  0  0
 17 18  1  0  0  0  0
 17 19  1  0  0  0  0
 17 20  1  0  0  0  0
 20 21  1  0  0  0  0
 20 22  2  0  0  0  0
 22 23  1  0  0  0  0
 22 26  1  0  0  0  0
 23 24  1  0  0  0  0
 23 25  1  0  0  0  0
 26 27  1  0  0  0  0
 26 28  1  0  0  0  0
 29 30  2  0  0  0  0
 29 31  1  0  0  0  0
 31 32  1  0  0  0  0
 31 33  1  0  0  0  0
 33 34  1  0  0  0  0
 33 35  1  0  0  0  0
 33 36  1  0  0  0  0
M  CHG  1  20   1
M  END
$$$$

  -OEChem-02172215453D

 36 35  0     1  0  0  0  0  0999 V2000
   -3.8190   -2.0595    1.2385 H   0  0  0  0  0  0  0  0  0  0  0  0
   -3.9085   -1.0567    0.8106 C   0  0  0  0  0  0  0  0  0  0  0  0
   -4.5687   -0.4634    1.4477 H   0  0  0  0  0  0  0  0  0  0  0  0
   -4.3494   -1.1377   -0.1855 H   0  0  0  0  0  0  0  0  0  0  0  0
   -2.5415   -0.4049    0.7245 C   0  0  0  0  0  0  0  0  0  0  0  0
   -1.5459   -1.0379    1.0278 O   0  0  0  0  0  0  0  0  0  0  0  0
   -2.4233    0.8933    0.2641 N   0  0  0  0  0  0  0  0  0  0  0  0
   -3.2880    1.3801    0.0413 H   0  0  0  0  0  0  0  0  0  0  0  0
   -1.1728    1.6821    0.3058 C   0  0  1  0  0  0  0  0  0  0  0  0
   -0.3290    1.0282    0.5538 H   0  0  0  0  0  0  0  0  0  0  0  0
   -0.8980    2.2777   -1.0879 C   0  0  0  0  0  0  0  0  0  0  0  0
   -1.7671    2.8585   -1.4153 H   0  0  0  0  0  0  0  0  0  0  0  0
   -0.0447    2.9631   -1.0316 H   0  0  0  0  0  0  0  0  0  0  0  0
   -0.5747    1.1805   -2.1107 C   0  0  0  0  0  0  0  0  0  0  0  0
    0.3055    0.6188   -1.7777 H   0  0  0  0  0  0  0  0  0  0  0  0
   -1.4143    0.4814   -2.1852 H   0  0  0  0  0  0  0  0  0  0  0  0
   -0.3079    1.8125   -3.4742 C   0  0  0  0  0  0  0  0  0  0  0  0
   -1.1881    2.3886   -3.7803 H   0  0  0  0  0  0  0  0  0  0  0  0
    0.5434    2.4970   -3.3890 H   0  0  0  0  0  0  0  0  0  0  0  0
   -0.0190    0.7618   -4.4673 N   0  3  0  0  0  0  0  0  0  0  0  0
    0.0166   -0.1992   -4.1289 H   0  0  0  0  0  0  0  0  0  0  0  0
    0.1915    1.0023   -5.7293 C   0  0  0  0  0  0  0  0  0  0  0  0
    0.1589    2.2820   -6.2362 N   0  0  0  0  0  0  0  0  0  0  0  0
    0.1315    3.0606   -5.5807 H   0  0  0  0  0  0  0  0  0  0  0  0
    0.4971    2.4532   -7.1808 H   0  0  0  0  0  0  0  0  0  0  0  0
    0.4520   -0.0426   -6.5844 N   0  0  0  0  0  0  0  0  0  0  0  0
    0.5742   -0.9848   -6.2179 H   0  0  0  0  0  0  0  0  0  0  0  0
    0.6711    0.1417   -7.5616 H   0  0  0  0  0  0  0  0  0  0  0  0
   -1.1641    2.7666    1.4083 C   0  0  0  0  0  0  0  0  0  0  0  0
   -0.2372    3.5623    1.4647 O   0  0  0  0  0  0  0  0  0  0  0  0
   -2.2492    2.9387    2.2499 N   0  0  0  0  0  0  0  0  0  0  0  0
   -2.9300    2.1866    2.2747 H   0  0  0  0  0  0  0  0  0  0  0  0
   -2.2711    3.9330    3.3187 C   0  0  0  0  0  0  0  0  0  0  0  0
   -2.1385    4.9404    2.9095 H   0  0  0  0  0  0  0  0  0  0  0  0
   -3.2282    3.9016    3.8483 H   0  0  0  0  0  0  0  0  0  0  0  0
   -1.4695    3.7394    4.0397 H   0  0  0  0  0  0  0  0  0  0  0  0
  1  2  1  0  0  0  0
  2  3  1  0  0  0  0
  2  4  1  0  0  0  0
  2  5  1  0  0  0  0
  5  6  2  0  0  0  0
  5  7  1  0  0  0  0
  7  8  1  0  0  0  0
  7  9  1  0  0  0  0
  9 10  1  0  0  0  0
  9 11  1  0  0  0  0
  9 29  1  0  0  0  0
 11 12  1  0  0  0  0
 11 13  1  0  0  0  0
 11 14  1  0  0  0  0
 14 15  1  0  0  0  0
 14 16  1  0  0  0  0
 14 17  1  0  0  0  0
 17 18  1  0  0  0  0
 17 19  1  0  0  0  0
 17 20  1  0  0  0  0
 20 21  1  0  0  0  0
 20 22  2  0  0  0  0
 22 23  1  0  0  0  0
 22 26  1  0  0  0  0
 23 24  1  0  0  0  0
 23 25  1  0  0  0  0
 26 27  1  0  0  0  0
 26 28  1  0  0  0  0
 29 30  2  0  0  0  0
 29 31  1  0  0  0  0
 31 32  1  0  0  0  0
 31 33  1  0  0  0  0
 33 34  1  0  0  0  0
 33 35  1  0  0  0  0
 33 36  1  0  0  0  0
M  CHG  1  20   1
M  END
$$$$

  -OEChem-02172215453D

 36 35  0     1  0  0  0  0  0999 V2000
   -3.8330   -2.0352    1.2553 H   0  0  0  0  0  0  0  0  0  0  0  0
   -3.9128   -1.0366    0.8155 C   0  0  0  0  0  0  0  0  0  0  0  0
   -4.5741   -0.4320    1.4407 H   0  0  0  0  0  0  0  0  0  0  0  0
   -4.3468   -1.1262   -0.1830 H   0  0  0  0  0  0  0  0  0  0  0  0
   -2.5417   -0.3937    0.7308 C   0  0  0  0  0  0  0  0  0  0  0  0
   -1.5507   -1.0282    1.0460 O   0  0  0  0  0  0  0  0  0  0  0  0
   -2.4144    0.9032    0.2705 N   0  0  0  0  0  0  0  0  0  0  0  0
   -3.2785    1.4036    0.0746 H   0  0  0  0  0  0  0  0  0  0  0  0
   -1.1597    1.6846    0.3125 C   0  0  1  0  0  0  0  0  0  0  0  0
   -0.3184    1.0293    0.5638 H   0  0  0  0  0  0  0  0  0  0  0  0
   -0.8850    2.2724   -1.0861 C   0  0  0  0  0  0  0  0  0  0  0  0
   -1.7521    2.8566   -1.4126 H   0  0  0  0  0  0  0  0  0  0  0  0
   -0.0276    2.9530   -1.0362 H   0  0  0  0  0  0  0  0  0  0  0  0
   -0.5687    1.1730   -2.1094 C   0  0  0  0  0  0  0  0  0  0  0  0
    0.3106    0.6084   -1.7796 H   0  0  0  0  0  0  0  0  0  0  0  0
   -1.4103    0.4763   -2.1822 H   0  0  0  0  0  0  0  0  0  0  0  0
   -0.3034    1.8059   -3.4736 C   0  0  0  0  0  0  0  0  0  0  0  0
   -1.1830    2.3846   -3.7765 H   0  0  0  0  0  0  0  0  0  0  0  0
    0.5499    2.4881   -3.3900 H   0  0  0  0  0  0  0  0  0  0  0  0
   -0.0209    0.7579   -4.4713 N   0  3  0  0  0  0  0  0  0  0  0  0
    0.0013   -0.2057   -4.1390 H   0  0  0  0  0  0  0  0  0  0  0  0
    0.1864    1.0041   -5.7329 C   0  0  0  0  0  0  0  0  0  0  0  0
    0.1564    2.2867   -6.2335 N   0  0  0  0  0  0  0  0  0  0  0  0
    0.1349    3.0632   -5.5752 H   0  0  0  0  0  0  0  0  0  0  0  0
    0.4783    2.4617   -7.1830 H   0  0  0  0  0  0  0  0  0  0  0  0
    0.4350   -0.0378   -6.5952 N   0  0  0  0  0  0  0  0  0  0  0  0
    0.5719   -0.9785   -6.2304 H   0  0  0  0  0  0  0  0  0  0  0  0
    0.6686    0.1534   -7.5677 H   0  0  0  0  0  0  0  0  0  0  0  0
   -1.1620    2.7657    1.4207 C   0  0  0  0  0  0  0  0  0  0  0  0
   -0.3881    3.7111    1.3590 O   0  0  0  0  0  0  0  0  0  0  0  0
   -2.1009    2.7343    2.4366 N   0  0  0  0  0  0  0  0  0  0  0  0
   -2.6263    1.8720    2.5430 H   0  0  0  0  0  0  0  0  0  0  0  0
   -2.1175    3.6999    3.5312 C   0  0  0  0  0  0  0  0  0  0  0  0
   -2.2487    4.7165    3.1452 H   0  0  0  0  0  0  0  0  0  0  0  0
   -2.9433    3.4841    4.2161 H   0  0  0  0  0  0  0  0  0  0  0  0
   -1.1796    3.6567    4.0955 H   0  0  0  0  0  0  0  0  0  0  0  0
  1  2  1  0  0  0  0
  2  3  1  0  0  0  0
  2  4  1  0  0  0  0
  2  5  1  0  0  0  0
  5  6  2  0  0  0  0
  5  7  1  0  0  0  0
  7  8  1  0  0  0  0
  7  9  1  0  0  0  0
  9 10  1  0  0  0  0
  9 11  1  0  0  0  0
  9 29  1  0  0  0  0
 11 12  1  0  0  0  0
 11 13  1  0  0  0  0
 11 14  1  0  0  0  0
 14 15  1  0  0  0  0
 14 16  1  0  0  0  0
 14 17  1  0  0  0  0
 17 18  1  0  0  0  0
 17 19  1  0  0  0  0
 17 20  1  0  0  0  0
 20 21  1  0  0  0  0
 20 22  2  0  0  0  0
 22 23  1  0  0  0  0
 22 26  1  0  0  0  0
 23 24  1  0  0  0  0
 23 25  1  0  0  0  0
 26 27  1  0  0  0  0
 26 28  1  0  0  0  0
 29 30  2  0  0  0  0
 29 31  1  0  0  0  0
 31 32  1  0  0  0  0
 31 33  1  0  0  0  0
 33 34  1  0  0  0  0
 33 35  1  0  0  0  0
 33 36  1  0  0  0  0
M  CHG  1  20   1
M  END
$$$$

  -OEChem-02172215453D

 36 35  0     1  0  0  0  0  0999 V2000
   -3.8422   -2.0095    1.2753 H   0  0  0  0  0  0  0  0  0  0  0  0
   -3.9157   -1.0128    0.8304 C   0  0  0  0  0  0  0  0  0  0  0  0
   -4.5707   -0.3993    1.4538 H   0  0  0  0  0  0  0  0  0  0  0  0
   -4.3532   -1.1043   -0.1663 H   0  0  0  0  0  0  0  0  0  0  0  0
   -2.5399   -0.3808    0.7387 C   0  0  0  0  0  0  0  0  0  0  0  0
   -1.5535   -1.0150    1.0693 O   0  0  0  0  0  0  0  0  0  0  0  0
   -2.4032    0.9142    0.2775 N   0  0  0  0  0  0  0  0  0  0  0  0
   -3.2651    1.4264    0.1030 H   0  0  0  0  0  0  0  0  0  0  0  0
   -1.1433    1.6856    0.3152 C   0  0  1  0  0  0  0  0  0  0  0  0
   -0.3040    1.0274    0.5644 H   0  0  0  0  0  0  0  0  0  0  0  0
   -0.8681    2.2708   -1.0844 C   0  0  0  0  0  0  0  0  0  0  0  0
   -1.7308    2.8629   -1.4078 H   0  0  0  0  0  0  0  0  0  0  0  0
   -0.0042    2.9431   -1.0363 H   0  0  0  0  0  0  0  0  0  0  0  0
   -0.5636    1.1696   -2.1084 C   0  0  0  0  0  0  0  0  0  0  0  0
    0.3122    0.5976   -1.7818 H   0  0  0  0  0  0  0  0  0  0  0  0
   -1.4122    0.4811   -2.1789 H   0  0  0  0  0  0  0  0  0  0  0  0
   -0.2986    1.8032   -3.4717 C   0  0  0  0  0  0  0  0  0  0  0  0
   -1.1754    2.3892   -3.7692 H   0  0  0  0  0  0  0  0  0  0  0  0
    0.5600    2.4792   -3.3897 H   0  0  0  0  0  0  0  0  0  0  0  0
   -0.0264    0.7569   -4.4738 N   0  3  0  0  0  0  0  0  0  0  0  0
   -0.0068   -0.2075   -4.1443 H   0  0  0  0  0  0  0  0  0  0  0  0
    0.1780    1.0053   -5.7356 C   0  0  0  0  0  0  0  0  0  0  0  0
    0.1543    2.2893   -6.2332 N   0  0  0  0  0  0  0  0  0  0  0  0
    0.1252    3.0665   -5.5759 H   0  0  0  0  0  0  0  0  0  0  0  0
    0.4617    2.4662   -7.1873 H   0  0  0  0  0  0  0  0  0  0  0  0
    0.4179   -0.0369   -6.6000 N   0  0  0  0  0  0  0  0  0  0  0  0
    0.5732   -0.9735   -6.2319 H   0  0  0  0  0  0  0  0  0  0  0  0
    0.6659    0.1579   -7.5682 H   0  0  0  0  0  0  0  0  0  0  0  0
   -1.1547    2.7605    1.4290 C   0  0  0  0  0  0  0  0  0  0  0  0
   -0.5892    3.8334    1.2678 O   0  0  0  0  0  0  0  0  0  0  0  0
   -1.8834    2.5531    2.5864 N   0  0  0  0  0  0  0  0  0  0  0  0
   -2.2252    1.6094    2.7462 H   0  0  0  0  0  0  0  0  0  0  0  0
   -1.8951    3.4981    3.6985 C   0  0  0  0  0  0  0  0  0  0  0  0
   -2.2837    4.4691    3.3730 H   0  0  0  0  0  0  0  0  0  0  0  0
   -2.5326    3.1259    4.5065 H   0  0  0  0  0  0  0  0  0  0  0  0
   -0.8829    3.6395    4.0927 H   0  0  0  0  0  0  0  0  0  0  0  0
  1  2  1  0  0  0  0
  2  3  1  0  0  0  0
  2  4  1  0  0  0  0
  2  5  1  0  0  0  0
  5  6  2  0  0  0  0
  5  7  1  0  0  0  0
  7  8  1  0  0  0  0
  7  9  1  0  0  0  0
  9 10  1  0  0  0  0
  9 11  1  0  0  0  0
  9 29  1  0  0  0  0
 11 12  1  0  0  0  0
 11 13  1  0  0  0  0
 11 14  1  0  0  0  0
 14 15  1  0  0  0  0
 14 16  1  0  0  0  0
 14 17  1  0  0  0  0
 17 18  1  0  0  0  0
 17 19  1  0  0  0  0
 17 20  1  0  0  0  0
 20 21  1  0  0  0  0
 20 22  2  0  0  0  0
 22 23  1  0  0  0  0
 22 26  1  0  0  0  0
 23 24  1  0  0  0  0
 23 25  1  0  0  0  0
 26 27  1  0  0  0  0
 26 28  1  0  0  0  0
 29 30  2  0  0  0  0
 29 31  1  0  0  0  0
 31 32  1  0  0  0  0
 31 33  1  0  0  0  0
 33 34  1  0  0  0  0
 33 35  1  0  0  0  0
 33 36  1  0  0  0  0
M  CHG  1  20   1
M  END
$$$$

  -OEChem-02172215453D

 36 35  0     1  0  0  0  0  0999 V2000
   -3.8776   -1.9638    1.2977 H   0  0  0  0  0  0  0  0  0  0  0  0
   -3.9356   -0.9667    0.8516 C   0  0  0  0  0  0  0  0  0  0  0  0
   -4.5689   -0.3378    1.4823 H   0  0  0  0  0  0  0  0  0  0  0  0
   -4.3881   -1.0505   -0.1392 H   0  0  0  0  0  0  0  0  0  0  0  0
   -2.5487   -0.3636    0.7408 C   0  0  0  0  0  0  0  0  0  0  0  0
   -1.5716   -1.0136    1.0698 O   0  0  0  0  0  0  0  0  0  0  0  0
   -2.3910    0.9284    0.2784 N   0  0  0  0  0  0  0  0  0  0  0  0
   -3.2449    1.4611    0.1269 H   0  0  0  0  0  0  0  0  0  0  0  0
   -1.1178    1.6752    0.3174 C   0  0  1  0  0  0  0  0  0  0  0  0
   -0.2883    1.0050    0.5676 H   0  0  0  0  0  0  0  0  0  0  0  0
   -0.8271    2.2644   -1.0776 C   0  0  0  0  0  0  0  0  0  0  0  0
   -1.6768    2.8758   -1.4002 H   0  0  0  0  0  0  0  0  0  0  0  0
    0.0492    2.9200   -1.0178 H   0  0  0  0  0  0  0  0  0  0  0  0
   -0.5417    1.1655   -2.1096 C   0  0  0  0  0  0  0  0  0  0  0  0
    0.3212    0.5728   -1.7862 H   0  0  0  0  0  0  0  0  0  0  0  0
   -1.4037    0.4945   -2.1873 H   0  0  0  0  0  0  0  0  0  0  0  0
   -0.2603    1.8042   -3.4673 C   0  0  0  0  0  0  0  0  0  0  0  0
   -1.1241    2.4104   -3.7616 H   0  0  0  0  0  0  0  0  0  0  0  0
    0.6118    2.4621   -3.3794 H   0  0  0  0  0  0  0  0  0  0  0  0
   -0.0072    0.7577   -4.4742 N   0  3  0  0  0  0  0  0  0  0  0  0
   -0.0033   -0.2082   -4.1483 H   0  0  0  0  0  0  0  0  0  0  0  0
    0.2063    1.0078   -5.7340 C   0  0  0  0  0  0  0  0  0  0  0  0
    0.2117    2.2931   -6.2276 N   0  0  0  0  0  0  0  0  0  0  0  0
   -0.0939    3.0461   -5.6143 H   0  0  0  0  0  0  0  0  0  0  0  0
    0.1565    2.4365   -7.2340 H   0  0  0  0  0  0  0  0  0  0  0  0
    0.4397   -0.0318   -6.6027 N   0  0  0  0  0  0  0  0  0  0  0  0
    0.6208   -0.9577   -6.2196 H   0  0  0  0  0  0  0  0  0  0  0  0
    0.8139    0.1830   -7.5253 H   0  0  0  0  0  0  0  0  0  0  0  0
   -1.1324    2.7427    1.4365 C   0  0  0  0  0  0  0  0  0  0  0  0
   -0.7976    3.8979    1.2109 O   0  0  0  0  0  0  0  0  0  0  0  0
   -1.6095    2.4101    2.6912 N   0  0  0  0  0  0  0  0  0  0  0  0
   -1.7785    1.4233    2.8720 H   0  0  0  0  0  0  0  0  0  0  0  0
   -1.6232    3.3419    3.8142 C   0  0  0  0  0  0  0  0  0  0  0  0
   -2.2418    4.2151    3.5812 H   0  0  0  0  0  0  0  0  0  0  0  0
   -2.0344    2.8573    4.7052 H   0  0  0  0  0  0  0  0  0  0  0  0
   -0.6075    3.6818    4.0431 H   0  0  0  0  0  0  0  0  0  0  0  0
  1  2  1  0  0  0  0
  2  3  1  0  0  0  0
  2  4  1  0  0  0  0
  2  5  1  0  0  0  0
  5  6  2  0  0  0  0
  5  7  1  0  0  0  0
  7  8  1  0  0  0  0
  7  9  1  0  0  0  0
  9 10  1  0  0  0  0
  9 11  1  0  0  0  0
  9 29  1  0  0  0  0
 11 12  1  0  0  0  0
 11 13  1  0  0  0  0
 11 14  1  0  0  0  0
 14 15  1  0  0  0  0
 14 16  1  0  0  0  0
 14 17  1  0  0  0  0
 17 18  1  0  0  0  0
 17 19  1  0  0  0  0
 17 20  1  0  0  0  0
 20 21  1  0  0  0  0
 20 22  2  0  0  0  0
 22 23  1  0  0  0  0
 22 26  1  0  0  0  0
 23 24  1  0  0  0  0
 23 25  1  0  0  0  0
 26 27  1  0  0  0  0
 26 28  1  0  0  0  0
 29 30  2  0  0  0  0
 29 31  1  0  0  0  0
 31 32  1  0  0  0  0
 31 33  1  0  0  0  0
 33 34  1  0  0  0  0
 33 35  1  0  0  0  0
 33 36  1  0  0  0  0
M  CHG  1  20   1
M  END
$$$$

  -OEChem-02172215453D

 36 35  0     1  0  0  0  0  0999 V2000
   -3.8768   -1.9394    1.3271 H   0  0  0  0  0  0  0  0  0  0  0  0
   -3.9244   -0.9482    0.8670 C   0  0  0  0  0  0  0  0  0  0  0  0
   -4.5580   -0.3063    1.4841 H   0  0  0  0  0  0  0  0  0  0  0  0
   -4.3700   -1.0420   -0.1260 H   0  0  0  0  0  0  0  0  0  0  0  0
   -2.5324   -0.3560    0.7582 C   0  0  0  0  0  0  0  0  0  0  0  0
   -1.5601   -1.0106    1.0943 O   0  0  0  0  0  0  0  0  0  0  0  0
   -2.3640    0.9309    0.2866 N   0  0  0  0  0  0  0  0  0  0  0  0
   -3.2129    1.4730    0.1401 H   0  0  0  0  0  0  0  0  0  0  0  0
   -1.0849    1.6642    0.3239 C   0  0  1  0  0  0  0  0  0  0  0  0
   -0.2571    0.9908    0.5712 H   0  0  0  0  0  0  0  0  0  0  0  0
   -0.7978    2.2560   -1.0693 C   0  0  0  0  0  0  0  0  0  0  0  0
   -1.6456    2.8741   -1.3849 H   0  0  0  0  0  0  0  0  0  0  0  0
    0.0820    2.9066   -1.0081 H   0  0  0  0  0  0  0  0  0  0  0  0
   -0.5286    1.1603   -2.1083 C   0  0  0  0  0  0  0  0  0  0  0  0
    0.3319    0.5595   -1.7931 H   0  0  0  0  0  0  0  0  0  0  0  0
   -1.3967    0.4970   -2.1834 H   0  0  0  0  0  0  0  0  0  0  0  0
   -0.2505    1.8026   -3.4650 C   0  0  0  0  0  0  0  0  0  0  0  0
   -1.1117    2.4166   -3.7508 H   0  0  0  0  0  0  0  0  0  0  0  0
    0.6275    2.4530   -3.3806 H   0  0  0  0  0  0  0  0  0  0  0  0
   -0.0131    0.7579   -4.4776 N   0  3  0  0  0  0  0  0  0  0  0  0
   -0.0164   -0.2092   -4.1554 H   0  0  0  0  0  0  0  0  0  0  0  0
    0.1939    1.0114   -5.7376 C   0  0  0  0  0  0  0  0  0  0  0  0
    0.2069    2.2985   -6.2254 N   0  0  0  0  0  0  0  0  0  0  0  0
   -0.0999    3.0482   -5.6084 H   0  0  0  0  0  0  0  0  0  0  0  0
    0.1433    2.4453   -7.2308 H   0  0  0  0  0  0  0  0  0  0  0  0
    0.4108   -0.0259   -6.6129 N   0  0  0  0  0  0  0  0  0  0  0  0
    0.5830   -0.9560   -6.2360 H   0  0  0  0  0  0  0  0  0  0  0  0
    0.7807    0.1891   -7.5372 H   0  0  0  0  0  0  0  0  0  0  0  0
   -1.1061    2.7333    1.4383 C   0  0  0  0  0  0  0  0  0  0  0  0
   -1.0219    3.9252    1.1731 O   0  0  0  0  0  0  0  0  0  0  0  0
   -1.2956    2.3382    2.7492 N   0  0  0  0  0  0  0  0  0  0  0  0
   -1.3211    1.3377    2.9356 H   0  0  0  0  0  0  0  0  0  0  0  0
   -1.3307    3.2683    3.8727 C   0  0  0  0  0  0  0  0  0  0  0  0
   -2.1602    3.9744    3.7607 H   0  0  0  0  0  0  0  0  0  0  0  0
   -1.4663    2.7234    4.8121 H   0  0  0  0  0  0  0  0  0  0  0  0
   -0.3943    3.8331    3.9334 H   0  0  0  0  0  0  0  0  0  0  0  0
  1  2  1  0  0  0  0
  2  3  1  0  0  0  0
  2  4  1  0  0  0  0
  2  5  1  0  0  0  0
  5  6  2  0  0  0  0
  5  7  1  0  0  0  0
  7  8  1  0  0  0  0
  7  9  1  0  0  0  0
  9 10  1  0  0  0  0
  9 11  1  0  0  0  0
  9 29  1  0  0  0  0
 11 12  1  0  0  0  0
 11 13  1  0  0  0  0
 11 14  1  0  0  0  0
 14 15  1  0  0  0  0
 14 16  1  0  0  0  0
 14 17  1  0  0  0  0
 17 18  1  0  0  0  0
 17 19  1  0  0  0  0
 17 20  1  0  0  0  0
 20 21  1  0  0  0  0
 20 22  2  0  0  0  0
 22 23  1  0  0  0  0
 22 26  1  0  0  0  0
 23 24  1  0  0  0  0
 23 25  1  0  0  0  0
 26 27  1  0  0  0  0
 26 28  1  0  0  0  0
 29 30  2  0  0  0  0
 29 31  1  0  0  0  0
 31 32  1  0  0  0  0
 31 33  1  0  0  0  0
 33 34  1  0  0  0  0
 33 35  1  0  0  0  0
 33 36  1  0  0  0  0
M  CHG  1  20   1
M  END
$$$$

  -OEChem-02172215453D

 36 35  0     1  0  0  0  0  0999 V2000
   -3.8667   -1.9269    1.3510 H   0  0  0  0  0  0  0  0  0  0  0  0
   -3.9126   -0.9376    0.8864 C   0  0  0  0  0  0  0  0  0  0  0  0
   -4.5383   -0.2896    1.5051 H   0  0  0  0  0  0  0  0  0  0  0  0
   -4.3660   -1.0338   -0.1029 H   0  0  0  0  0  0  0  0  0  0  0  0
   -2.5183   -0.3535    0.7648 C   0  0  0  0  0  0  0  0  0  0  0  0
   -1.5458   -1.0158    1.0867 O   0  0  0  0  0  0  0  0  0  0  0  0
   -2.3458    0.9306    0.2871 N   0  0  0  0  0  0  0  0  0  0  0  0
   -3.1917    1.4821    0.1580 H   0  0  0  0  0  0  0  0  0  0  0  0
   -1.0629    1.6546    0.3252 C   0  0  1  0  0  0  0  0  0  0  0  0
   -0.2363    0.9784    0.5687 H   0  0  0  0  0  0  0  0  0  0  0  0
   -0.7780    2.2508   -1.0658 C   0  0  0  0  0  0  0  0  0  0  0  0
   -1.6249    2.8725   -1.3772 H   0  0  0  0  0  0  0  0  0  0  0  0
    0.1035    2.8987   -1.0027 H   0  0  0  0  0  0  0  0  0  0  0  0
   -0.5198    1.1571   -2.1100 C   0  0  0  0  0  0  0  0  0  0  0  0
    0.3379    0.5497   -1.8004 H   0  0  0  0  0  0  0  0  0  0  0  0
   -1.3921    0.4993   -2.1839 H   0  0  0  0  0  0  0  0  0  0  0  0
   -0.2434    1.8019   -3.4657 C   0  0  0  0  0  0  0  0  0  0  0  0
   -1.1020    2.4223   -3.7457 H   0  0  0  0  0  0  0  0  0  0  0  0
    0.6390    2.4469   -3.3828 H   0  0  0  0  0  0  0  0  0  0  0  0
   -0.0169    0.7590   -4.4828 N   0  3  0  0  0  0  0  0  0  0  0  0
   -0.0298   -0.2093   -4.1647 H   0  0  0  0  0  0  0  0  0  0  0  0
    0.1866    1.0148   -5.7430 C   0  0  0  0  0  0  0  0  0  0  0  0
    0.2059    2.3032   -6.2273 N   0  0  0  0  0  0  0  0  0  0  0  0
   -0.0968    3.0523   -5.6078 H   0  0  0  0  0  0  0  0  0  0  0  0
    0.1383    2.4523   -7.2321 H   0  0  0  0  0  0  0  0  0  0  0  0
    0.3915   -0.0222   -6.6217 N   0  0  0  0  0  0  0  0  0  0  0  0
    0.5595   -0.9543   -6.2477 H   0  0  0  0  0  0  0  0  0  0  0  0
    0.7576    0.1922   -7.5477 H   0  0  0  0  0  0  0  0  0  0  0  0
   -1.0852    2.7256    1.4357 C   0  0  0  0  0  0  0  0  0  0  0  0
   -1.2485    3.9079    1.1641 O   0  0  0  0  0  0  0  0  0  0  0  0
   -0.9695    2.3346    2.7562 N   0  0  0  0  0  0  0  0  0  0  0  0
   -0.8705    1.3388    2.9437 H   0  0  0  0  0  0  0  0  0  0  0  0
   -1.0125    3.2658    3.8784 C   0  0  0  0  0  0  0  0  0  0  0  0
   -1.9805    3.7766    3.9166 H   0  0  0  0  0  0  0  0  0  0  0  0
   -0.8672    2.7301    4.8216 H   0  0  0  0  0  0  0  0  0  0  0  0
   -0.2219    4.0178    3.7844 H   0  0  0  0  0  0  0  0  0  0  0  0
  1  2  1  0  0  0  0
  2  3  1  0  0  0  0
  2  4  1  0  0  0  0
  2  5  1  0  0  0  0
  5  6  2  0  0  0  0
  5  7  1  0  0  0  0
  7  8  1  0  0  0  0
  7  9  1  0  0  0  0
  9 10  1  0  0  0  0
  9 11  1  0  0  0  0
  9 29  1  0  0  0  0
 11 12  1  0  0  0  0
 11 13  1  0  0  0  0
 11 14  1  0  0  0  0
 14 15  1  0  0  0  0
 14 16  1  0  0  0  0
 14 17  1  0  0  0  0
 17 18  1  0  0  0  0
 17 19  1  0  0  0  0
 17 20  1  0  0  0  0
 20 21  1  0  0  0  0
 20 22  2  0  0  0  0
 22 23  1  0  0  0  0
 22 26  1  0  0  0  0
 23 24  1  0  0  0  0
 23 25  1  0  0  0  0
 26 27  1  0  0  0  0
 26 28  1  0  0  0  0
 29 30  2  0  0  0  0
 29 31  1  0  0  0  0
 31 32  1  0  0  0  0
 31 33  1  0  0  0  0
 33 34  1  0  0  0  0
 33 35  1  0  0  0  0
 33 36  1  0  0  0  0
M  CHG  1  20   1
M  END
$$$$

  -OEChem-02172215453D

 36 35  0     1  0  0  0  0  0999 V2000
   -3.8528   -1.9204    1.3861 H   0  0  0  0  0  0  0  0  0  0  0  0
   -3.9053   -0.9230    0.9399 C   0  0  0  0  0  0  0  0  0  0  0  0
   -4.4873   -0.2746    1.5995 H   0  0  0  0  0  0  0  0  0  0  0  0
   -4.4101   -0.9954   -0.0263 H   0  0  0  0  0  0  0  0  0  0  0  0
   -2.5091   -0.3593    0.7569 C   0  0  0  0  0  0  0  0  0  0  0  0
   -1.5328   -1.0417    1.0225 O   0  0  0  0  0  0  0  0  0  0  0  0
   -2.3387    0.9242    0.2759 N   0  0  0  0  0  0  0  0  0  0  0  0
   -3.1823    1.4901    0.2020 H   0  0  0  0  0  0  0  0  0  0  0  0
   -1.0531    1.6421    0.3154 C   0  0  1  0  0  0  0  0  0  0  0  0
   -0.2287    0.9620    0.5548 H   0  0  0  0  0  0  0  0  0  0  0  0
   -0.7656    2.2480   -1.0704 C   0  0  0  0  0  0  0  0  0  0  0  0
   -1.6105    2.8742   -1.3787 H   0  0  0  0  0  0  0  0  0  0  0  0
    0.1177    2.8931   -1.0019 H   0  0  0  0  0  0  0  0  0  0  0  0
   -0.5137    1.1589   -2.1210 C   0  0  0  0  0  0  0  0  0  0  0  0
    0.3392    0.5432   -1.8146 H   0  0  0  0  0  0  0  0  0  0  0  0
   -1.3914    0.5082   -2.1985 H   0  0  0  0  0  0  0  0  0  0  0  0
   -0.2334    1.8069   -3.4742 C   0  0  0  0  0  0  0  0  0  0  0  0
   -1.0879    2.4331   -3.7528 H   0  0  0  0  0  0  0  0  0  0  0  0
    0.6530    2.4458   -3.3903 H   0  0  0  0  0  0  0  0  0  0  0  0
   -0.0138    0.7640   -4.4925 N   0  3  0  0  0  0  0  0  0  0  0  0
   -0.0377   -0.2046   -4.1760 H   0  0  0  0  0  0  0  0  0  0  0  0
    0.1913    1.0193   -5.7523 C   0  0  0  0  0  0  0  0  0  0  0  0
    0.2191    2.3079   -6.2353 N   0  0  0  0  0  0  0  0  0  0  0  0
   -0.0770    3.0580   -5.6138 H   0  0  0  0  0  0  0  0  0  0  0  0
    0.1458    2.4581   -7.2395 H   0  0  0  0  0  0  0  0  0  0  0  0
    0.3869   -0.0188   -6.6318 N   0  0  0  0  0  0  0  0  0  0  0  0
    0.5483   -0.9525   -6.2591 H   0  0  0  0  0  0  0  0  0  0  0  0
    0.7485    0.1927   -7.5601 H   0  0  0  0  0  0  0  0  0  0  0  0
   -1.0742    2.7136    1.4242 C   0  0  0  0  0  0  0  0  0  0  0  0
   -1.4933    3.8387    1.1863 O   0  0  0  0  0  0  0  0  0  0  0  0
   -0.6598    2.3898    2.7023 N   0  0  0  0  0  0  0  0  0  0  0  0
   -0.3948    1.4231    2.8800 H   0  0  0  0  0  0  0  0  0  0  0  0
   -0.7071    3.3245    3.8218 C   0  0  0  0  0  0  0  0  0  0  0  0
   -1.7391    3.6310    4.0233 H   0  0  0  0  0  0  0  0  0  0  0  0
   -0.3032    2.8557    4.7246 H   0  0  0  0  0  0  0  0  0  0  0  0
   -0.1115    4.2171    3.6024 H   0  0  0  0  0  0  0  0  0  0  0  0
  1  2  1  0  0  0  0
  2  3  1  0  0  0  0
  2  4  1  0  0  0  0
  2  5  1  0  0  0  0
  5  6  2  0  0  0  0
  5  7  1  0  0  0  0
  7  8  1  0  0  0  0
  7  9  1  0  0  0  0
  9 10  1  0  0  0  0
  9 11  1  0  0  0  0
  9 29  1  0  0  0  0
 11 12  1  0  0  0  0
 11 13  1  0  0  0  0
 11 14  1  0  0  0  0
 14 15  1  0  0  0  0
 14 16  1  0  0  0  0
 14 17  1  0  0  0  0
 17 18  1  0  0  0  0
 17 19  1  0  0  0  0
 17 20  1  0  0  0  0
 20 21  1  0  0  0  0
 20 22  2  0  0  0  0
 22 23  1  0  0  0  0
 22 26  1  0  0  0  0
 23 24  1  0  0  0  0
 23 25  1  0  0  0  0
 26 27  1  0  0  0  0
 26 28  1  0  0  0  0
 29 30  2  0  0  0  0
 29 31  1  0  0  0  0
 31 32  1  0  0  0  0
 31 33  1  0  0  0  0
 33 34  1  0  0  0  0
 33 35  1  0  0  0  0
 33 36  1  0  0  0  0
M  CHG  1  20   1
M  END
$$$$

  -OEChem-02172215453D

 36 35  0     1  0  0  0  0  0999 V2000
   -3.8419   -1.9018    1.4341 H   0  0  0  0  0  0  0  0  0  0  0  0
   -3.8972   -0.9047    0.9876 C   0  0  0  0  0  0  0  0  0  0  0  0
   -4.4414   -0.2461    1.6692 H   0  0  0  0  0  0  0  0  0  0  0  0
   -4.4420   -0.9711    0.0430 H   0  0  0  0  0  0  0  0  0  0  0  0
   -2.5015   -0.3633    0.7459 C   0  0  0  0  0  0  0  0  0  0  0  0
   -1.5265   -1.0672    0.9554 O   0  0  0  0  0  0  0  0  0  0  0  0
   -2.3309    0.9187    0.2613 N   0  0  0  0  0  0  0  0  0  0  0  0
   -3.1686    1.4986    0.2403 H   0  0  0  0  0  0  0  0  0  0  0  0
   -1.0428    1.6304    0.3046 C   0  0  1  0  0  0  0  0  0  0  0  0
   -0.2221    0.9455    0.5427 H   0  0  0  0  0  0  0  0  0  0  0  0
   -0.7537    2.2457   -1.0754 C   0  0  0  0  0  0  0  0  0  0  0  0
   -1.5967    2.8766   -1.3787 H   0  0  0  0  0  0  0  0  0  0  0  0
    0.1314    2.8871   -1.0030 H   0  0  0  0  0  0  0  0  0  0  0  0
   -0.5080    1.1606   -2.1316 C   0  0  0  0  0  0  0  0  0  0  0  0
    0.3417    0.5393   -1.8278 H   0  0  0  0  0  0  0  0  0  0  0  0
   -1.3887    0.5141   -2.2103 H   0  0  0  0  0  0  0  0  0  0  0  0
   -0.2249    1.8102   -3.4834 C   0  0  0  0  0  0  0  0  0  0  0  0
   -1.0766    2.4415   -3.7602 H   0  0  0  0  0  0  0  0  0  0  0  0
    0.6654    2.4438   -3.3995 H   0  0  0  0  0  0  0  0  0  0  0  0
   -0.0123    0.7669   -4.5032 N   0  3  0  0  0  0  0  0  0  0  0  0
   -0.0433   -0.2022   -4.1879 H   0  0  0  0  0  0  0  0  0  0  0  0
    0.1936    1.0220   -5.7631 C   0  0  0  0  0  0  0  0  0  0  0  0
    0.2294    2.3106   -6.2460 N   0  0  0  0  0  0  0  0  0  0  0  0
   -0.0633    3.0621   -5.6245 H   0  0  0  0  0  0  0  0  0  0  0  0
    0.1526    2.4602   -7.2500 H   0  0  0  0  0  0  0  0  0  0  0  0
    0.3813   -0.0162   -6.6440 N   0  0  0  0  0  0  0  0  0  0  0  0
    0.5361   -0.9516   -6.2726 H   0  0  0  0  0  0  0  0  0  0  0  0
    0.7448    0.1943   -7.5717 H   0  0  0  0  0  0  0  0  0  0  0  0
   -1.0657    2.7030    1.4107 C   0  0  0  0  0  0  0  0  0  0  0  0
   -1.7198    3.7245    1.2468 O   0  0  0  0  0  0  0  0  0  0  0  0
   -0.3869    2.5013    2.5977 N   0  0  0  0  0  0  0  0  0  0  0  0
    0.0554    1.5961    2.7397 H   0  0  0  0  0  0  0  0  0  0  0  0
   -0.4341    3.4412    3.7129 C   0  0  0  0  0  0  0  0  0  0  0  0
   -1.4589    3.5452    4.0849 H   0  0  0  0  0  0  0  0  0  0  0  0
    0.1977    3.0880    4.5338 H   0  0  0  0  0  0  0  0  0  0  0  0
   -0.0721    4.4266    3.4004 H   0  0  0  0  0  0  0  0  0  0  0  0
  1  2  1  0  0  0  0
  2  3  1  0  0  0  0
  2  4  1  0  0  0  0
  2  5  1  0  0  0  0
  5  6  2  0  0  0  0
  5  7  1  0  0  0  0
  7  8  1  0  0  0  0
  7  9  1  0  0  0  0
  9 10  1  0  0  0  0
  9 11  1  0  0  0  0
  9 29  1  0  0  0  0
 11 12  1  0  0  0  0
 11 13  1  0  0  0  0
 11 14  1  0  0  0  0
 14 15  1  0  0  0  0
 14 16  1  0  0  0  0
 14 17  1  0  0  0  0
 17 18  1  0  0  0  0
 17 19  1  0  0  0  0
 17 20  1  0  0  0  0
 20 21  1  0  0  0  0
 20 22  2  0  0  0  0
 22 23  1  0  0  0  0
 22 26  1  0  0  0  0
 23 24  1  0  0  0  0
 23 25  1  0  0  0  0
 26 27  1  0  0  0  0
 26 28  1  0  0  0  0
 29 30  2  0  0  0  0
 29 31  1  0  0  0  0
 31 32  1  0  0  0  0
 31 33  1  0  0  0  0
 33 34  1  0  0  0  0
 33 35  1  0  0  0  0
 33 36  1  0  0  0  0
M  CHG  1  20   1
M  END
$$$$

  -OEChem-02172215453D

 36 35  0     1  0  0  0  0  0999 V2000
   -3.8303   -1.8860    1.4709 H   0  0  0  0  0  0  0  0  0  0  0  0
   -3.8880   -0.8873    1.0285 C   0  0  0  0  0  0  0  0  0  0  0  0
   -4.3929   -0.2215    1.7328 H   0  0  0  0  0  0  0  0  0  0  0  0
   -4.4723   -0.9426    0.1071 H   0  0  0  0  0  0  0  0  0  0  0  0
   -2.4950   -0.3670    0.7310 C   0  0  0  0  0  0  0  0  0  0  0  0
   -1.5232   -1.0887    0.8904 O   0  0  0  0  0  0  0  0  0  0  0  0
   -2.3254    0.9135    0.2425 N   0  0  0  0  0  0  0  0  0  0  0  0
   -3.1563    1.5037    0.2703 H   0  0  0  0  0  0  0  0  0  0  0  0
   -1.0360    1.6221    0.2924 C   0  0  1  0  0  0  0  0  0  0  0  0
   -0.2180    0.9354    0.5338 H   0  0  0  0  0  0  0  0  0  0  0  0
   -0.7462    2.2453   -1.0824 C   0  0  0  0  0  0  0  0  0  0  0  0
   -1.5882    2.8800   -1.3813 H   0  0  0  0  0  0  0  0  0  0  0  0
    0.1409    2.8837   -1.0073 H   0  0  0  0  0  0  0  0  0  0  0  0
   -0.5038    1.1631   -2.1430 C   0  0  0  0  0  0  0  0  0  0  0  0
    0.3433    0.5369   -1.8418 H   0  0  0  0  0  0  0  0  0  0  0  0
   -1.3868    0.5201   -2.2240 H   0  0  0  0  0  0  0  0  0  0  0  0
   -0.2190    1.8139   -3.4936 C   0  0  0  0  0  0  0  0  0  0  0  0
   -1.0682    2.4489   -3.7696 H   0  0  0  0  0  0  0  0  0  0  0  0
    0.6742    2.4430   -3.4084 H   0  0  0  0  0  0  0  0  0  0  0  0
   -0.0106    0.7698   -4.5132 N   0  3  0  0  0  0  0  0  0  0  0  0
   -0.0479   -0.1990   -4.1976 H   0  0  0  0  0  0  0  0  0  0  0  0
    0.1959    1.0224   -5.7734 C   0  0  0  0  0  0  0  0  0  0  0  0
    0.2364    2.3101   -6.2576 N   0  0  0  0  0  0  0  0  0  0  0  0
   -0.0506    3.0633   -5.6358 H   0  0  0  0  0  0  0  0  0  0  0  0
    0.1598    2.4598   -7.2617 H   0  0  0  0  0  0  0  0  0  0  0  0
    0.3781   -0.0184   -6.6526 N   0  0  0  0  0  0  0  0  0  0  0  0
    0.5268   -0.9540   -6.2792 H   0  0  0  0  0  0  0  0  0  0  0  0
    0.7439    0.1883   -7.5803 H   0  0  0  0  0  0  0  0  0  0  0  0
   -1.0656    2.6973    1.3957 C   0  0  0  0  0  0  0  0  0  0  0  0
   -1.9091    3.5831    1.3399 O   0  0  0  0  0  0  0  0  0  0  0  0
   -0.1710    2.6597    2.4490 N   0  0  0  0  0  0  0  0  0  0  0  0
    0.4375    1.8481    2.5218 H   0  0  0  0  0  0  0  0  0  0  0  0
   -0.2085    3.6069    3.5588 C   0  0  0  0  0  0  0  0  0  0  0  0
   -1.1579    3.5291    4.0993 H   0  0  0  0  0  0  0  0  0  0  0  0
    0.6062    3.4011    4.2602 H   0  0  0  0  0  0  0  0  0  0  0  0
   -0.0956    4.6331    3.1928 H   0  0  0  0  0  0  0  0  0  0  0  0
  1  2  1  0  0  0  0
  2  3  1  0  0  0  0
  2  4  1  0  0  0  0
  2  5  1  0  0  0  0
  5  6  2  0  0  0  0
  5  7  1  0  0  0  0
  7  8  1  0  0  0  0
  7  9  1  0  0  0  0
  9 10  1  0  0  0  0
  9 11  1  0  0  0  0
  9 29  1  0  0  0  0
 11 12  1  0  0  0  0
 11 13  1  0  0  0  0
 11 14  1  0  0  0  0
 14 15  1  0  0  0  0
 14 16  1  0  0  0  0
 14 17  1  0  0  0  0
 17 18  1  0  0  0  0
 17 19  1  0  0  0  0
 17 20  1  0  0  0  0
 20 21  1  0  0  0  0
 20 22  2  0  0  0  0
 22 23  1  0  0  0  0
 22 26  1  0  0  0  0
 23 24  1  0  0  0  0
 23 25  1  0  0  0  0
 26 27  1  0  0  0  0
 26 28  1  0  0  0  0
 29 30  2  0  0  0  0
 29 31  1  0  0  0  0
 31 32  1  0  0  0  0
 31 33  1  0  0  0  0
 33 34  1  0  0  0  0
 33 35  1  0  0  0  0
 33 36  1  0  0  0  0
M  CHG  1  20   1
M  END
$$$$

  -OEChem-02172215453D

 36 35  0     1  0  0  0  0  0999 V2000
   -3.8148   -1.8731    1.5026 H   0  0  0  0  0  0  0  0  0  0  0  0
   -3.8801   -0.8768    1.0556 C   0  0  0  0  0  0  0  0  0  0  0  0
   -4.3572   -0.2025    1.7712 H   0  0  0  0  0  0  0  0  0  0  0  0
   -4.4937   -0.9332    0.1537 H   0  0  0  0  0  0  0  0  0  0  0  0
   -2.4941   -0.3679    0.7099 C   0  0  0  0  0  0  0  0  0  0  0  0
   -1.5248   -1.1022    0.8206 O   0  0  0  0  0  0  0  0  0  0  0  0
   -2.3300    0.9135    0.2232 N   0  0  0  0  0  0  0  0  0  0  0  0
   -3.1554    1.5078    0.2994 H   0  0  0  0  0  0  0  0  0  0  0  0
   -1.0410    1.6227    0.2814 C   0  0  1  0  0  0  0  0  0  0  0  0
   -0.2246    0.9349    0.5260 H   0  0  0  0  0  0  0  0  0  0  0  0
   -0.7499    2.2510   -1.0898 C   0  0  0  0  0  0  0  0  0  0  0  0
   -1.5924    2.8857   -1.3871 H   0  0  0  0  0  0  0  0  0  0  0  0
    0.1367    2.8900   -1.0124 H   0  0  0  0  0  0  0  0  0  0  0  0
   -0.5048    1.1698   -2.1514 C   0  0  0  0  0  0  0  0  0  0  0  0
    0.3419    0.5440   -1.8483 H   0  0  0  0  0  0  0  0  0  0  0  0
   -1.3872    0.5261   -2.2337 H   0  0  0  0  0  0  0  0  0  0  0  0
   -0.2179    1.8182   -3.5026 C   0  0  0  0  0  0  0  0  0  0  0  0
   -1.0666    2.4524   -3.7819 H   0  0  0  0  0  0  0  0  0  0  0  0
    0.6748    2.4480   -3.4180 H   0  0  0  0  0  0  0  0  0  0  0  0
   -0.0080    0.7706   -4.5185 N   0  3  0  0  0  0  0  0  0  0  0  0
   -0.0475   -0.1971   -4.1997 H   0  0  0  0  0  0  0  0  0  0  0  0
    0.2006    1.0185   -5.7792 C   0  0  0  0  0  0  0  0  0  0  0  0
    0.2419    2.3048   -6.2675 N   0  0  0  0  0  0  0  0  0  0  0  0
   -0.0487    3.0593   -5.6489 H   0  0  0  0  0  0  0  0  0  0  0  0
    0.1664    2.4510   -7.2722 H   0  0  0  0  0  0  0  0  0  0  0  0
    0.3852   -0.0254   -6.6544 N   0  0  0  0  0  0  0  0  0  0  0  0
    0.5330   -0.9601   -6.2779 H   0  0  0  0  0  0  0  0  0  0  0  0
    0.7522    0.1780   -7.5824 H   0  0  0  0  0  0  0  0  0  0  0  0
   -1.0744    2.6972    1.3860 C   0  0  0  0  0  0  0  0  0  0  0  0
   -2.0522    3.4296    1.4716 O   0  0  0  0  0  0  0  0  0  0  0  0
   -0.0184    2.8493    2.2654 N   0  0  0  0  0  0  0  0  0  0  0  0
    0.7262    2.1582    2.2333 H   0  0  0  0  0  0  0  0  0  0  0  0
   -0.0333    3.8080    3.3656 C   0  0  0  0  0  0  0  0  0  0  0  0
   -0.8498    3.5832    4.0603 H   0  0  0  0  0  0  0  0  0  0  0  0
    0.9109    3.7671    3.9176 H   0  0  0  0  0  0  0  0  0  0  0  0
   -0.1654    4.8268    2.9856 H   0  0  0  0  0  0  0  0  0  0  0  0
  1  2  1  0  0  0  0
  2  3  1  0  0  0  0
  2  4  1  0  0  0  0
  2  5  1  0  0  0  0
  5  6  2  0  0  0  0
  5  7  1  0  0  0  0
  7  8  1  0  0  0  0
  7  9  1  0  0  0  0
  9 10  1  0  0  0  0
  9 11  1  0  0  0  0
  9 29  1  0  0  0  0
 11 12  1  0  0  0  0
 11 13  1  0  0  0  0
 11 14  1  0  0  0  0
 14 15  1  0  0  0  0
 14 16  1  0  0  0  0
 14 17  1  0  0  0  0
 17 18  1  0  0  0  0
 17 19  1  0  0  0  0
 17 20  1  0  0  0  0
 20 21  1  0  0  0  0
 20 22  2  0  0  0  0
 22 23  1  0  0  0  0
 22 26  1  0  0  0  0
 23 24  1  0  0  0  0
 23 25  1  0  0  0  0
 26 27  1  0  0  0  0
 26 28  1  0  0  0  0
 29 30  2  0  0  0  0
 29 31  1  0  0  0  0
 31 32  1  0  0  0  0
 31 33  1  0  0  0  0
 33 34  1  0  0  0  0
 33 35  1  0  0  0  0
 33 36  1  0  0  0  0
M  CHG  1  20   1
M  END
$$$$

  -OEChem-02172215453D

 36 35  0     1  0  0  0  0  0999 V2000
   -3.7964   -1.8795    1.4917 H   0  0  0  0  0  0  0  0  0  0  0  0
   -3.8685   -0.8684    1.0808 C   0  0  0  0  0  0  0  0  0  0  0  0
   -4.2981   -0.2115    1.8414 H   0  0  0  0  0  0  0  0  0  0  0  0
   -4.5284   -0.8865    0.2104 H   0  0  0  0  0  0  0  0  0  0  0  0
   -2.4941   -0.3671    0.6812 C   0  0  0  0  0  0  0  0  0  0  0  0
   -1.5278   -1.1119    0.7374 O   0  0  0  0  0  0  0  0  0  0  0  0
   -2.3391    0.9177    0.2004 N   0  0  0  0  0  0  0  0  0  0  0  0
   -3.1578    1.5126    0.3303 H   0  0  0  0  0  0  0  0  0  0  0  0
   -1.0502    1.6279    0.2700 C   0  0  1  0  0  0  0  0  0  0  0  0
   -0.2352    0.9397    0.5182 H   0  0  0  0  0  0  0  0  0  0  0  0
   -0.7563    2.2615   -1.0988 C   0  0  0  0  0  0  0  0  0  0  0  0
   -1.5987    2.8956   -1.3971 H   0  0  0  0  0  0  0  0  0  0  0  0
    0.1299    2.9005   -1.0188 H   0  0  0  0  0  0  0  0  0  0  0  0
   -0.5071    1.1814   -2.1610 C   0  0  0  0  0  0  0  0  0  0  0  0
    0.3383    0.5552   -1.8548 H   0  0  0  0  0  0  0  0  0  0  0  0
   -1.3894    0.5376   -2.2458 H   0  0  0  0  0  0  0  0  0  0  0  0
   -0.2169    1.8266   -3.5133 C   0  0  0  0  0  0  0  0  0  0  0  0
   -1.0653    2.4592   -3.7969 H   0  0  0  0  0  0  0  0  0  0  0  0
    0.6759    2.4563   -3.4293 H   0  0  0  0  0  0  0  0  0  0  0  0
   -0.0046    0.7734   -4.5229 N   0  3  0  0  0  0  0  0  0  0  0  0
   -0.0434   -0.1922   -4.1975 H   0  0  0  0  0  0  0  0  0  0  0  0
    0.2072    1.0116   -5.7848 C   0  0  0  0  0  0  0  0  0  0  0  0
    0.2505    2.2936   -6.2839 N   0  0  0  0  0  0  0  0  0  0  0  0
   -0.0515    3.0516   -5.6753 H   0  0  0  0  0  0  0  0  0  0  0  0
    0.1772    2.4289   -7.2903 H   0  0  0  0  0  0  0  0  0  0  0  0
    0.3936   -0.0394   -6.6506 N   0  0  0  0  0  0  0  0  0  0  0  0
    0.5383   -0.9712   -6.2661 H   0  0  0  0  0  0  0  0  0  0  0  0
    0.7626    0.1558   -7.5795 H   0  0  0  0  0  0  0  0  0  0  0  0
   -1.0883    2.6971    1.3811 C   0  0  0  0  0  0  0  0  0  0  0  0
   -2.1451    3.2677    1.6235 O   0  0  0  0  0  0  0  0  0  0  0  0
    0.0590    3.0568    2.0640 N   0  0  0  0  0  0  0  0  0  0  0  0
    0.8958    2.5015    1.9082 H   0  0  0  0  0  0  0  0  0  0  0  0
    0.0611    4.0321    3.1500 C   0  0  0  0  0  0  0  0  0  0  0  0
   -0.5711    3.6886    3.9758 H   0  0  0  0  0  0  0  0  0  0  0  0
    1.0776    4.1760    3.5295 H   0  0  0  0  0  0  0  0  0  0  0  0
   -0.3152    4.9992    2.7992 H   0  0  0  0  0  0  0  0  0  0  0  0
  1  2  1  0  0  0  0
  2  3  1  0  0  0  0
  2  4  1  0  0  0  0
  2  5  1  0  0  0  0
  5  6  2  0  0  0  0
  5  7  1  0  0  0  0
  7  8  1  0  0  0  0
  7  9  1  0  0  0  0
  9 10  1  0  0  0  0
  9 11  1  0  0  0  0
  9 29  1  0  0  0  0
 11 12  1  0  0  0  0
 11 13  1  0  0  0  0
 11 14  1  0  0  0  0
 14 15  1  0  0  0  0
 14 16  1  0  0  0  0
 14 17  1  0  0  0  0
 17 18  1  0  0  0  0
 17 19  1  0  0  0  0
 17 20  1  0  0  0  0
 20 21  1  0  0  0  0
 20 22  2  0  0  0  0
 22 23  1  0  0  0  0
 22 26  1  0  0  0  0
 23 24  1  0  0  0  0
 23 25  1  0  0  0  0
 26 27  1  0  0  0  0
 26 28  1  0  0  0  0
 29 30  2  0  0  0  0
 29 31  1  0  0  0  0
 31 32  1  0  0  0  0
 31 33  1  0  0  0  0
 33 34  1  0  0  0  0
 33 35  1  0  0  0  0
 33 36  1  0  0  0  0
M  CHG  1  20   1
M  END
$$$$

  -OEChem-02172215453D

 36 35  0     1  0  0  0  0  0999 V2000
   -3.7682   -1.8792    1.4823 H   0  0  0  0  0  0  0  0  0  0  0  0
   -3.8503   -0.8578    1.1007 C   0  0  0  0  0  0  0  0  0  0  0  0
   -4.2299   -0.2152    1.8993 H   0  0  0  0  0  0  0  0  0  0  0  0
   -4.5567   -0.8473    0.2675 H   0  0  0  0  0  0  0  0  0  0  0  0
   -2.4937   -0.3615    0.6400 C   0  0  0  0  0  0  0  0  0  0  0  0
   -1.5311   -1.1134    0.6352 O   0  0  0  0  0  0  0  0  0  0  0  0
   -2.3534    0.9293    0.1715 N   0  0  0  0  0  0  0  0  0  0  0  0
   -3.1680    1.5173    0.3505 H   0  0  0  0  0  0  0  0  0  0  0  0
   -1.0671    1.6432    0.2552 C   0  0  1  0  0  0  0  0  0  0  0  0
   -0.2513    0.9560    0.5044 H   0  0  0  0  0  0  0  0  0  0  0  0
   -0.7717    2.2781   -1.1128 C   0  0  0  0  0  0  0  0  0  0  0  0
   -1.6171    2.9064   -1.4149 H   0  0  0  0  0  0  0  0  0  0  0  0
    0.1105    2.9224   -1.0339 H   0  0  0  0  0  0  0  0  0  0  0  0
   -0.5139    1.1945   -2.1700 C   0  0  0  0  0  0  0  0  0  0  0  0
    0.3333    0.5737   -1.8579 H   0  0  0  0  0  0  0  0  0  0  0  0
   -1.3920    0.5449   -2.2549 H   0  0  0  0  0  0  0  0  0  0  0  0
   -0.2215    1.8322   -3.5246 C   0  0  0  0  0  0  0  0  0  0  0  0
   -1.0718    2.4584   -3.8163 H   0  0  0  0  0  0  0  0  0  0  0  0
    0.6681    2.4666   -3.4418 H   0  0  0  0  0  0  0  0  0  0  0  0
   -0.0019    0.7710   -4.5240 N   0  3  0  0  0  0  0  0  0  0  0  0
   -0.0394   -0.1919   -4.1901 H   0  0  0  0  0  0  0  0  0  0  0  0
    0.2140    0.9985   -5.7871 C   0  0  0  0  0  0  0  0  0  0  0  0
    0.2550    2.2761   -6.2976 N   0  0  0  0  0  0  0  0  0  0  0  0
   -0.0550    3.0381   -5.6981 H   0  0  0  0  0  0  0  0  0  0  0  0
    0.1891    2.4022   -7.3056 H   0  0  0  0  0  0  0  0  0  0  0  0
    0.4085   -0.0600   -6.6420 N   0  0  0  0  0  0  0  0  0  0  0  0
    0.5514   -0.9882   -6.2481 H   0  0  0  0  0  0  0  0  0  0  0  0
    0.7810    0.1264   -7.5714 H   0  0  0  0  0  0  0  0  0  0  0  0
   -1.1059    2.7030    1.3777 C   0  0  0  0  0  0  0  0  0  0  0  0
   -2.1879    3.0933    1.8002 O   0  0  0  0  0  0  0  0  0  0  0  0
    0.0593    3.2782    1.8518 N   0  0  0  0  0  0  0  0  0  0  0  0
    0.9419    2.8779    1.5470 H   0  0  0  0  0  0  0  0  0  0  0  0
    0.0746    4.2580    2.9339 C   0  0  0  0  0  0  0  0  0  0  0  0
   -0.3429    3.8251    3.8496 H   0  0  0  0  0  0  0  0  0  0  0  0
    1.0999    4.5801    3.1403 H   0  0  0  0  0  0  0  0  0  0  0  0
   -0.5147    5.1405    2.6625 H   0  0  0  0  0  0  0  0  0  0  0  0
  1  2  1  0  0  0  0
  2  3  1  0  0  0  0
  2  4  1  0  0  0  0
  2  5  1  0  0  0  0
  5  6  2  0  0  0  0
  5  7  1  0  0  0  0
  7  8  1  0  0  0  0
  7  9  1  0  0  0  0
  9 10  1  0  0  0  0
  9 11  1  0  0  0  0
  9 29  1  0  0  0  0
 11 12  1  0  0  0  0
 11 13  1  0  0  0  0
 11 14  1  0  0  0  0
 14 15  1  0  0  0  0
 14 16  1  0  0  0  0
 14 17  1  0  0  0  0
 17 18  1  0  0  0  0
 17 19  1  0  0  0  0
 17 20  1  0  0  0  0
 20 21  1  0  0  0  0
 20 22  2  0  0  0  0
 22 23  1  0  0  0  0
 22 26  1  0  0  0  0
 23 24  1  0  0  0  0
 23 25  1  0  0  0  0
 26 27  1  0  0  0  0
 26 28  1  0  0  0  0
 29 30  2  0  0  0  0
 29 31  1  0  0  0  0
 31 32  1  0  0  0  0
 31 33  1  0  0  0  0
 33 34  1  0  0  0  0
 33 35  1  0  0  0  0
 33 36  1  0  0  0  0
M  CHG  1  20   1
M  END
$$$$

  -OEChem-02172215453D

 36 35  0     1  0  0  0  0  0999 V2000
   -3.7058   -1.9150    1.4800 H   0  0  0  0  0  0  0  0  0  0  0  0
   -3.8093   -0.8793    1.1447 C   0  0  0  0  0  0  0  0  0  0  0  0
   -4.1475   -0.2704    1.9871 H   0  0  0  0  0  0  0  0  0  0  0  0
   -4.5569   -0.8385    0.3495 H   0  0  0  0  0  0  0  0  0  0  0  0
   -2.4785   -0.3598    0.6368 C   0  0  0  0  0  0  0  0  0  0  0  0
   -1.5046   -1.0960    0.6037 O   0  0  0  0  0  0  0  0  0  0  0  0
   -2.3757    0.9361    0.1682 N   0  0  0  0  0  0  0  0  0  0  0  0
   -3.1919    1.5000    0.4002 H   0  0  0  0  0  0  0  0  0  0  0  0
   -1.0927    1.6582    0.2550 C   0  0  1  0  0  0  0  0  0  0  0  0
   -0.2494    0.9594    0.2289 H   0  0  0  0  0  0  0  0  0  0  0  0
   -0.9834    2.5902   -0.9656 C   0  0  0  0  0  0  0  0  0  0  0  0
   -1.8661    3.2378   -1.0110 H   0  0  0  0  0  0  0  0  0  0  0  0
   -0.1038    3.2337   -0.8596 H   0  0  0  0  0  0  0  0  0  0  0  0
   -0.8559    1.7797   -2.2644 C   0  0  0  0  0  0  0  0  0  0  0  0
    0.0314    1.1392   -2.2085 H   0  0  0  0  0  0  0  0  0  0  0  0
   -1.7318    1.1323   -2.3822 H   0  0  0  0  0  0  0  0  0  0  0  0
   -0.7477    2.7119   -3.4686 C   0  0  0  0  0  0  0  0  0  0  0  0
   -1.6338    3.3551   -3.5037 H   0  0  0  0  0  0  0  0  0  0  0  0
    0.1398    3.3450   -3.3574 H   0  0  0  0  0  0  0  0  0  0  0  0
   -0.6505    1.9100   -4.7024 N   0  3  0  0  0  0  0  0  0  0  0  0
   -0.6352    0.8960   -4.5945 H   0  0  0  0  0  0  0  0  0  0  0  0
   -0.6029    2.4227   -5.8980 C   0  0  0  0  0  0  0  0  0  0  0  0
   -0.6398    3.7827   -6.1072 N   0  0  0  0  0  0  0  0  0  0  0  0
   -0.8687    4.3818   -5.3167 H   0  0  0  0  0  0  0  0  0  0  0  0
   -0.8342    4.1290   -7.0446 H   0  0  0  0  0  0  0  0  0  0  0  0
   -0.5124    1.5916   -6.9891 N   0  0  0  0  0  0  0  0  0  0  0  0
   -0.3106    0.6046   -6.8394 H   0  0  0  0  0  0  0  0  0  0  0  0
   -0.2673    1.9974   -7.8904 H   0  0  0  0  0  0  0  0  0  0  0  0
   -0.9794    2.4352    1.5889 C   0  0  0  0  0  0  0  0  0  0  0  0
   -1.9479    2.5045    2.3363 O   0  0  0  0  0  0  0  0  0  0  0  0
    0.1484    3.1823    1.8810 N   0  0  0  0  0  0  0  0  0  0  0  0
    0.9663    3.0476    1.2943 H   0  0  0  0  0  0  0  0  0  0  0  0
    0.3007    3.9321    3.1245 C   0  0  0  0  0  0  0  0  0  0  0  0
    0.2527    3.2589    3.9874 H   0  0  0  0  0  0  0  0  0  0  0  0
    1.2662    4.4469    3.1418 H   0  0  0  0  0  0  0  0  0  0  0  0
   -0.4907    4.6832    3.2206 H   0  0  0  0  0  0  0  0  0  0  0  0
  1  2  1  0  0  0  0
  2  3  1  0  0  0  0
  2  4  1  0  0  0  0
  2  5  1  0  0  0  0
  5  6  2  0  0  0  0
  5  7  1  0  0  0  0
  7  8  1  0  0  0  0
  7  9  1  0  0  0  0
  9 10  1  0  0  0  0
  9 11  1  0  0  0  0
  9 29  1  0  0  0  0
 11 12  1  0  0  0  0
 11 13  1  0  0  0  0
 11 14  1  0  0  0  0
 14 15  1  0  0  0  0
 14 16  1  0  0  0  0
 14 17  1  0  0  0  0
 17 18  1  0  0  0  0
 17 19  1  0  0  0  0
 17 20  1  0  0  0  0
 20 21  1  0  0  0  0
 20 22  2  0  0  0  0
 22 23  1  0  0  0  0
 22 26  1  0  0  0  0
 23 24  1  0  0  0  0
 23 25  1  0  0  0  0
 26 27  1  0  0  0  0
 26 28  1  0  0  0  0
 29 30  2  0  0  0  0
 29 31  1  0  0  0  0
 31 32  1  0  0  0  0
 31 33  1  0  0  0  0
 33 34  1  0  0  0  0
 33 35  1  0  0  0  0
 33 36  1  0  0  0  0
M  CHG  1  20   1
M  END
$$$$

  -OEChem-02172215453D

 36 35  0     1  0  0  0  0  0999 V2000
   -3.6597   -1.8882    1.5032 H   0  0  0  0  0  0  0  0  0  0  0  0
   -3.7862   -0.8609    1.1501 C   0  0  0  0  0  0  0  0  0  0  0  0
   -4.1034   -0.2395    1.9918 H   0  0  0  0  0  0  0  0  0  0  0  0
   -4.5599   -0.8440    0.3793 H   0  0  0  0  0  0  0  0  0  0  0  0
   -2.4784   -0.3381    0.5886 C   0  0  0  0  0  0  0  0  0  0  0  0
   -1.5170   -1.0828    0.4739 O   0  0  0  0  0  0  0  0  0  0  0  0
   -2.3865    0.9678    0.1460 N   0  0  0  0  0  0  0  0  0  0  0  0
   -3.1977    1.5219    0.4143 H   0  0  0  0  0  0  0  0  0  0  0  0
   -1.1017    1.6867    0.2433 C   0  0  1  0  0  0  0  0  0  0  0  0
   -0.2588    0.9875    0.2118 H   0  0  0  0  0  0  0  0  0  0  0  0
   -0.9917    2.6188   -0.9786 C   0  0  0  0  0  0  0  0  0  0  0  0
   -1.8737    3.2670   -1.0267 H   0  0  0  0  0  0  0  0  0  0  0  0
   -0.1111    3.2612   -0.8786 H   0  0  0  0  0  0  0  0  0  0  0  0
   -0.8621    1.7996   -2.2728 C   0  0  0  0  0  0  0  0  0  0  0  0
    0.0246    1.1585   -2.2110 H   0  0  0  0  0  0  0  0  0  0  0  0
   -1.7373    1.1505   -2.3885 H   0  0  0  0  0  0  0  0  0  0  0  0
   -0.7527    2.7211   -3.4849 C   0  0  0  0  0  0  0  0  0  0  0  0
   -1.6390    3.3637   -3.5278 H   0  0  0  0  0  0  0  0  0  0  0  0
    0.1343    3.3557   -3.3796 H   0  0  0  0  0  0  0  0  0  0  0  0
   -0.6541    1.9039   -4.7085 N   0  3  0  0  0  0  0  0  0  0  0  0
   -0.6395    0.8916   -4.5869 H   0  0  0  0  0  0  0  0  0  0  0  0
   -0.6049    2.3986   -5.9115 C   0  0  0  0  0  0  0  0  0  0  0  0
   -0.6414    3.7551   -6.1408 N   0  0  0  0  0  0  0  0  0  0  0  0
   -0.8776    4.3645   -5.3607 H   0  0  0  0  0  0  0  0  0  0  0  0
   -0.8297    4.0873   -7.0846 H   0  0  0  0  0  0  0  0  0  0  0  0
   -0.5115    1.5503   -6.9890 N   0  0  0  0  0  0  0  0  0  0  0  0
   -0.3082    0.5664   -6.8221 H   0  0  0  0  0  0  0  0  0  0  0  0
   -0.2619    1.9416   -7.8955 H   0  0  0  0  0  0  0  0  0  0  0  0
   -0.9825    2.4351    1.5958 C   0  0  0  0  0  0  0  0  0  0  0  0
   -1.8405    2.2765    2.4558 O   0  0  0  0  0  0  0  0  0  0  0  0
   -0.0212    3.4113    1.7942 N   0  0  0  0  0  0  0  0  0  0  0  0
    0.7234    3.4851    1.1083 H   0  0  0  0  0  0  0  0  0  0  0  0
    0.1081    4.1544    3.0447 C   0  0  0  0  0  0  0  0  0  0  0  0
    0.2999    3.4709    3.8792 H   0  0  0  0  0  0  0  0  0  0  0  0
    0.9387    4.8641    2.9815 H   0  0  0  0  0  0  0  0  0  0  0  0
   -0.8087    4.7156    3.2553 H   0  0  0  0  0  0  0  0  0  0  0  0
  1  2  1  0  0  0  0
  2  3  1  0  0  0  0
  2  4  1  0  0  0  0
  2  5  1  0  0  0  0
  5  6  2  0  0  0  0
  5  7  1  0  0  0  0
  7  8  1  0  0  0  0
  7  9  1  0  0  0  0
  9 10  1  0  0  0  0
  9 11  1  0  0  0  0
  9 29  1  0  0  0  0
 11 12  1  0  0  0  0
 11 13  1  0  0  0  0
 11 14  1  0  0  0  0
 14 15  1  0  0  0  0
 14 16  1  0  0  0  0
 14 17  1  0  0  0  0
 17 18  1  0  0  0  0
 17 19  1  0  0  0  0
 17 20  1  0  0  0  0
 20 21  1  0  0  0  0
 20 22  2  0  0  0  0
 22 23  1  0  0  0  0
 22 26  1  0  0  0  0
 23 24  1  0  0  0  0
 23 25  1  0  0  0  0
 26 27  1  0  0  0  0
 26 28  1  0  0  0  0
 29 30  2  0  0  0  0
 29 31  1  0  0  0  0
 31 32  1  0  0  0  0
 31 33  1  0  0  0  0
 33 34  1  0  0  0  0
 33 35  1  0  0  0  0
 33 36  1  0  0  0  0
M  CHG  1  20   1
M  END
$$$$

  -OEChem-02172215453D

 36 35  0     1  0  0  0  0  0999 V2000
   -3.6661   -1.9118    1.3704 H   0  0  0  0  0  0  0  0  0  0  0  0
   -3.7659   -0.8454    1.1497 C   0  0  0  0  0  0  0  0  0  0  0  0
   -3.9867   -0.3148    2.0797 H   0  0  0  0  0  0  0  0  0  0  0  0
   -4.5933   -0.7057    0.4507 H   0  0  0  0  0  0  0  0  0  0  0  0
   -2.4777   -0.3147    0.5514 C   0  0  0  0  0  0  0  0  0  0  0  0
   -1.5288   -1.0625    0.3701 O   0  0  0  0  0  0  0  0  0  0  0  0
   -2.3968    1.0006    0.1336 N   0  0  0  0  0  0  0  0  0  0  0  0
   -3.2059    1.5444    0.4258 H   0  0  0  0  0  0  0  0  0  0  0  0
   -1.1119    1.7201    0.2308 C   0  0  1  0  0  0  0  0  0  0  0  0
   -0.2700    1.0199    0.1920 H   0  0  0  0  0  0  0  0  0  0  0  0
   -0.9985    2.6515   -0.9921 C   0  0  0  0  0  0  0  0  0  0  0  0
   -1.8779    3.3029   -1.0440 H   0  0  0  0  0  0  0  0  0  0  0  0
   -0.1134    3.2879   -0.8951 H   0  0  0  0  0  0  0  0  0  0  0  0
   -0.8674    1.8237   -2.2810 C   0  0  0  0  0  0  0  0  0  0  0  0
    0.0171    1.1804   -2.2115 H   0  0  0  0  0  0  0  0  0  0  0  0
   -1.7434    1.1752   -2.3928 H   0  0  0  0  0  0  0  0  0  0  0  0
   -0.7537    2.7298   -3.5044 C   0  0  0  0  0  0  0  0  0  0  0  0
   -1.6390    3.3731   -3.5589 H   0  0  0  0  0  0  0  0  0  0  0  0
    0.1346    3.3639   -3.4063 H   0  0  0  0  0  0  0  0  0  0  0  0
   -0.6543    1.8921   -4.7140 N   0  3  0  0  0  0  0  0  0  0  0  0
   -0.6417    0.8819   -4.5744 H   0  0  0  0  0  0  0  0  0  0  0  0
   -0.6014    2.3652   -5.9255 C   0  0  0  0  0  0  0  0  0  0  0  0
   -0.6344    3.7173   -6.1804 N   0  0  0  0  0  0  0  0  0  0  0  0
   -0.8717    4.3421   -5.4130 H   0  0  0  0  0  0  0  0  0  0  0  0
   -0.8209    4.0315   -7.1307 H   0  0  0  0  0  0  0  0  0  0  0  0
   -0.5067    1.4971   -6.9871 N   0  0  0  0  0  0  0  0  0  0  0  0
   -0.2999    0.5171   -6.8021 H   0  0  0  0  0  0  0  0  0  0  0  0
   -0.2614    1.8715   -7.9019 H   0  0  0  0  0  0  0  0  0  0  0  0
   -0.9843    2.4401    1.5996 C   0  0  0  0  0  0  0  0  0  0  0  0
   -1.6647    2.0631    2.5452 O   0  0  0  0  0  0  0  0  0  0  0  0
   -0.2556    3.6088    1.7441 N   0  0  0  0  0  0  0  0  0  0  0  0
    0.3370    3.8973    0.9726 H   0  0  0  0  0  0  0  0  0  0  0  0
   -0.1601    4.3351    3.0077 C   0  0  0  0  0  0  0  0  0  0  0  0
    0.2909    3.7030    3.7804 H   0  0  0  0  0  0  0  0  0  0  0  0
    0.4594    5.2291    2.8876 H   0  0  0  0  0  0  0  0  0  0  0  0
   -1.1533    4.6490    3.3469 H   0  0  0  0  0  0  0  0  0  0  0  0
  1  2  1  0  0  0  0
  2  3  1  0  0  0  0
  2  4  1  0  0  0  0
  2  5  1  0  0  0  0
  5  6  2  0  0  0  0
  5  7  1  0  0  0  0
  7  8  1  0  0  0  0
  7  9  1  0  0  0  0
  9 10  1  0  0  0  0
  9 11  1  0  0  0  0
  9 29  1  0  0  0  0
 11 12  1  0  0  0  0
 11 13  1  0  0  0  0
 11 14  1  0  0  0  0
 14 15  1  0  0  0  0
 14 16  1  0  0  0  0
 14 17  1  0  0  0  0
 17 18  1  0  0  0  0
 17 19  1  0  0  0  0
 17 20  1  0  0  0  0
 20 21  1  0  0  0  0
 20 22  2  0  0  0  0
 22 23  1  0  0  0  0
 22 26  1  0  0  0  0
 23 24  1  0  0  0  0
 23 25  1  0  0  0  0
 26 27  1  0  0  0  0
 26 28  1  0  0  0  0
 29 30  2  0  0  0  0
 29 31  1  0  0  0  0
 31 32  1  0  0  0  0
 31 33  1  0  0  0  0
 33 34  1  0  0  0  0
 33 35  1  0  0  0  0
 33 36  1  0  0  0  0
M  CHG  1  20   1
M  END
$$$$

  -OEChem-02172215453D

 36 35  0     1  0  0  0  0  0999 V2000
   -3.5848   -1.9318    1.3994 H   0  0  0  0  0  0  0  0  0  0  0  0
   -3.7251   -0.8788    1.1398 C   0  0  0  0  0  0  0  0  0  0  0  0
   -3.9845   -0.3273    2.0472 H   0  0  0  0  0  0  0  0  0  0  0  0
   -4.5443   -0.7981    0.4221 H   0  0  0  0  0  0  0  0  0  0  0  0
   -2.4499   -0.3153    0.5440 C   0  0  0  0  0  0  0  0  0  0  0  0
   -1.4935   -1.0461    0.3360 O   0  0  0  0  0  0  0  0  0  0  0  0
   -2.3980    1.0044    0.1345 N   0  0  0  0  0  0  0  0  0  0  0  0
   -3.2222    1.5300    0.4163 H   0  0  0  0  0  0  0  0  0  0  0  0
   -1.1263    1.7476    0.2264 C   0  0  1  0  0  0  0  0  0  0  0  0
   -0.2739    1.0601    0.1883 H   0  0  0  0  0  0  0  0  0  0  0  0
   -1.0200    2.6740   -1.0004 C   0  0  0  0  0  0  0  0  0  0  0  0
   -1.9081    3.3126   -1.0623 H   0  0  0  0  0  0  0  0  0  0  0  0
   -0.1422    3.3207   -0.9008 H   0  0  0  0  0  0  0  0  0  0  0  0
   -0.8702    1.8384   -2.2824 C   0  0  0  0  0  0  0  0  0  0  0  0
    0.0228    1.2085   -2.2031 H   0  0  0  0  0  0  0  0  0  0  0  0
   -1.7360    1.1761   -2.3937 H   0  0  0  0  0  0  0  0  0  0  0  0
   -0.7624    2.7347   -3.5132 C   0  0  0  0  0  0  0  0  0  0  0  0
   -1.6558    3.3658   -3.5806 H   0  0  0  0  0  0  0  0  0  0  0  0
    0.1170    3.3809   -3.4154 H   0  0  0  0  0  0  0  0  0  0  0  0
   -0.6449    1.8868   -4.7140 N   0  3  0  0  0  0  0  0  0  0  0  0
   -0.5903    0.8795   -4.5629 H   0  0  0  0  0  0  0  0  0  0  0  0
   -0.5923    2.3492   -5.9296 C   0  0  0  0  0  0  0  0  0  0  0  0
   -0.6426    3.6984   -6.1964 N   0  0  0  0  0  0  0  0  0  0  0  0
   -0.5448    4.3429   -5.4149 H   0  0  0  0  0  0  0  0  0  0  0  0
   -0.3743    4.0235   -7.1230 H   0  0  0  0  0  0  0  0  0  0  0  0
   -0.4845    1.4729   -6.9829 N   0  0  0  0  0  0  0  0  0  0  0  0
   -0.6200    0.4782   -6.8109 H   0  0  0  0  0  0  0  0  0  0  0  0
   -0.6478    1.8211   -7.9259 H   0  0  0  0  0  0  0  0  0  0  0  0
   -1.0021    2.4601    1.5984 C   0  0  0  0  0  0  0  0  0  0  0  0
   -1.4436    1.9144    2.6003 O   0  0  0  0  0  0  0  0  0  0  0  0
   -0.5707    3.7718    1.7063 N   0  0  0  0  0  0  0  0  0  0  0  0
   -0.1989    4.2200    0.8757 H   0  0  0  0  0  0  0  0  0  0  0  0
   -0.5011    4.4866    2.9780 C   0  0  0  0  0  0  0  0  0  0  0  0
    0.1671    3.9676    3.6737 H   0  0  0  0  0  0  0  0  0  0  0  0
   -0.1191    5.5005    2.8244 H   0  0  0  0  0  0  0  0  0  0  0  0
   -1.4946    4.5584    3.4336 H   0  0  0  0  0  0  0  0  0  0  0  0
  1  2  1  0  0  0  0
  2  3  1  0  0  0  0
  2  4  1  0  0  0  0
  2  5  1  0  0  0  0
  5  6  2  0  0  0  0
  5  7  1  0  0  0  0
  7  8  1  0  0  0  0
  7  9  1  0  0  0  0
  9 10  1  0  0  0  0
  9 11  1  0  0  0  0
  9 29  1  0  0  0  0
 11 12  1  0  0  0  0
 11 13  1  0  0  0  0
 11 14  1  0  0  0  0
 14 15  1  0  0  0  0
 14 16  1  0  0  0  0
 14 17  1  0  0  0  0
 17 18  1  0  0  0  0
 17 19  1  0  0  0  0
 17 20  1  0  0  0  0
 20 21  1  0  0  0  0
 20 22  2  0  0  0  0
 22 23  1  0  0  0  0
 22 26  1  0  0  0  0
 23 24  1  0  0  0  0
 23 25  1  0  0  0  0
 26 27  1  0  0  0  0
 26 28  1  0  0  0  0
 29 30  2  0  0  0  0
 29 31  1  0  0  0  0
 31 32  1  0  0  0  0
 31 33  1  0  0  0  0
 33 34  1  0  0  0  0
 33 35  1  0  0  0  0
 33 36  1  0  0  0  0
M  CHG  1  20   1
M  END
$$$$

  -OEChem-02172215453D

 36 35  0     1  0  0  0  0  0999 V2000
   -3.5666   -1.9180    1.4239 H   0  0  0  0  0  0  0  0  0  0  0  0
   -3.7202   -0.8714    1.1462 C   0  0  0  0  0  0  0  0  0  0  0  0
   -3.9833   -0.3077    2.0448 H   0  0  0  0  0  0  0  0  0  0  0  0
   -4.5431   -0.8131    0.4303 H   0  0  0  0  0  0  0  0  0  0  0  0
   -2.4533   -0.3043    0.5356 C   0  0  0  0  0  0  0  0  0  0  0  0
   -1.5061   -1.0367    0.2953 O   0  0  0  0  0  0  0  0  0  0  0  0
   -2.4059    1.0187    0.1355 N   0  0  0  0  0  0  0  0  0  0  0  0
   -3.2312    1.5409    0.4191 H   0  0  0  0  0  0  0  0  0  0  0  0
   -1.1349    1.7639    0.2187 C   0  0  1  0  0  0  0  0  0  0  0  0
   -0.2837    1.0746    0.1759 H   0  0  0  0  0  0  0  0  0  0  0  0
   -1.0225    2.6906   -1.0069 C   0  0  0  0  0  0  0  0  0  0  0  0
   -1.9089    3.3305   -1.0741 H   0  0  0  0  0  0  0  0  0  0  0  0
   -0.1435    3.3352   -0.9015 H   0  0  0  0  0  0  0  0  0  0  0  0
   -0.8722    1.8518   -2.2866 C   0  0  0  0  0  0  0  0  0  0  0  0
    0.0195    1.2198   -2.2029 H   0  0  0  0  0  0  0  0  0  0  0  0
   -1.7397    1.1919   -2.3975 H   0  0  0  0  0  0  0  0  0  0  0  0
   -0.7579    2.7426   -3.5206 C   0  0  0  0  0  0  0  0  0  0  0  0
   -1.6487    3.3763   -3.5931 H   0  0  0  0  0  0  0  0  0  0  0  0
    0.1232    3.3863   -3.4234 H   0  0  0  0  0  0  0  0  0  0  0  0
   -0.6405    1.8864   -4.7156 N   0  3  0  0  0  0  0  0  0  0  0  0
   -0.5869    0.8803   -4.5565 H   0  0  0  0  0  0  0  0  0  0  0  0
   -0.5827    2.3384   -5.9350 C   0  0  0  0  0  0  0  0  0  0  0  0
   -0.6269    3.6856   -6.2141 N   0  0  0  0  0  0  0  0  0  0  0  0
   -0.5322    4.3365   -5.4375 H   0  0  0  0  0  0  0  0  0  0  0  0
   -0.3461    4.0009   -7.1406 H   0  0  0  0  0  0  0  0  0  0  0  0
   -0.4757    1.4512   -6.9797 N   0  0  0  0  0  0  0  0  0  0  0  0
   -0.6120    0.4585   -6.7968 H   0  0  0  0  0  0  0  0  0  0  0  0
   -0.6418    1.7894   -7.9260 H   0  0  0  0  0  0  0  0  0  0  0  0
   -1.0006    2.4648    1.5930 C   0  0  0  0  0  0  0  0  0  0  0  0
   -1.1770    1.8162    2.6136 O   0  0  0  0  0  0  0  0  0  0  0  0
   -0.8733    3.8395    1.7028 N   0  0  0  0  0  0  0  0  0  0  0  0
   -0.7703    4.3793    0.8501 H   0  0  0  0  0  0  0  0  0  0  0  0
   -0.8504    4.5387    2.9848 C   0  0  0  0  0  0  0  0  0  0  0  0
   -0.0099    4.1925    3.5961 H   0  0  0  0  0  0  0  0  0  0  0  0
   -0.7431    5.6168    2.8297 H   0  0  0  0  0  0  0  0  0  0  0  0
   -1.7803    4.3612    3.5359 H   0  0  0  0  0  0  0  0  0  0  0  0
  1  2  1  0  0  0  0
  2  3  1  0  0  0  0
  2  4  1  0  0  0  0
  2  5  1  0  0  0  0
  5  6  2  0  0  0  0
  5  7  1  0  0  0  0
  7  8  1  0  0  0  0
  7  9  1  0  0  0  0
  9 10  1  0  0  0  0
  9 11  1  0  0  0  0
  9 29  1  0  0  0  0
 11 12  1  0  0  0  0
 11 13  1  0  0  0  0
 11 14  1  0  0  0  0
 14 15  1  0  0  0  0
 14 16  1  0  0  0  0
 14 17  1  0  0  0  0
 17 18  1  0  0  0  0
 17 19  1  0  0  0  0
 17 20  1  0  0  0  0
 20 21  1  0  0  0  0
 20 22  2  0  0  0  0
 22 23  1  0  0  0  0
 22 26  1  0  0  0  0
 23 24  1  0  0  0  0
 23 25  1  0  0  0  0
 26 27  1  0  0  0  0
 26 28  1  0  0  0  0
 29 30  2  0  0  0  0
 29 31  1  0  0  0  0
 31 32  1  0  0  0  0
 31 33  1  0  0  0  0
 33 34  1  0  0  0  0
 33 35  1  0  0  0  0
 33 36  1  0  0  0  0
M  CHG  1  20   1
M  END
$$$$

  -OEChem-02172215453D

 36 35  0     1  0  0  0  0  0999 V2000
   -3.5641   -1.9090    1.4753 H   0  0  0  0  0  0  0  0  0  0  0  0
   -3.7386   -0.8858    1.1302 C   0  0  0  0  0  0  0  0  0  0  0  0
   -4.0669   -0.2831    1.9807 H   0  0  0  0  0  0  0  0  0  0  0  0
   -4.5242   -0.8972    0.3711 H   0  0  0  0  0  0  0  0  0  0  0  0
   -2.4613   -0.3090    0.5516 C   0  0  0  0  0  0  0  0  0  0  0  0
   -1.5045   -1.0357    0.3366 O   0  0  0  0  0  0  0  0  0  0  0  0
   -2.4169    1.0131    0.1472 N   0  0  0  0  0  0  0  0  0  0  0  0
   -3.2528    1.5332    0.4005 H   0  0  0  0  0  0  0  0  0  0  0  0
   -1.1521    1.7682    0.2232 C   0  0  1  0  0  0  0  0  0  0  0  0
   -0.2988    1.0810    0.1816 H   0  0  0  0  0  0  0  0  0  0  0  0
   -1.0375    2.6928   -1.0024 C   0  0  0  0  0  0  0  0  0  0  0  0
   -1.9270    3.3276   -1.0767 H   0  0  0  0  0  0  0  0  0  0  0  0
   -0.1633    3.3431   -0.8885 H   0  0  0  0  0  0  0  0  0  0  0  0
   -0.8782    1.8520   -2.2798 C   0  0  0  0  0  0  0  0  0  0  0  0
    0.0160    1.2240   -2.1902 H   0  0  0  0  0  0  0  0  0  0  0  0
   -1.7424    1.1879   -2.3930 H   0  0  0  0  0  0  0  0  0  0  0  0
   -0.7609    2.7418   -3.5148 C   0  0  0  0  0  0  0  0  0  0  0  0
   -1.6534    3.3725   -3.5930 H   0  0  0  0  0  0  0  0  0  0  0  0
    0.1181    3.3879   -3.4134 H   0  0  0  0  0  0  0  0  0  0  0  0
   -0.6344    1.8874   -4.7102 N   0  3  0  0  0  0  0  0  0  0  0  0
   -0.5769    0.8814   -4.5526 H   0  0  0  0  0  0  0  0  0  0  0  0
   -0.5721    2.3423   -5.9283 C   0  0  0  0  0  0  0  0  0  0  0  0
   -0.6198    3.6898   -6.2047 N   0  0  0  0  0  0  0  0  0  0  0  0
   -0.5314    4.3383   -5.4254 H   0  0  0  0  0  0  0  0  0  0  0  0
   -0.3302    4.0082   -7.1274 H   0  0  0  0  0  0  0  0  0  0  0  0
   -0.4531    1.4592   -6.9748 N   0  0  0  0  0  0  0  0  0  0  0  0
   -0.5821    0.4648   -6.7958 H   0  0  0  0  0  0  0  0  0  0  0  0
   -0.6151    1.7992   -7.9211 H   0  0  0  0  0  0  0  0  0  0  0  0
   -1.0121    2.4782    1.5894 C   0  0  0  0  0  0  0  0  0  0  0  0
   -0.8880    1.8085    2.6027 O   0  0  0  0  0  0  0  0  0  0  0  0
   -1.1991    3.8444    1.7165 N   0  0  0  0  0  0  0  0  0  0  0  0
   -1.3431    4.3873    0.8716 H   0  0  0  0  0  0  0  0  0  0  0  0
   -1.1720    4.5367    3.0019 C   0  0  0  0  0  0  0  0  0  0  0  0
   -0.1934    4.4206    3.4802 H   0  0  0  0  0  0  0  0  0  0  0  0
   -1.3637    5.6051    2.8629 H   0  0  0  0  0  0  0  0  0  0  0  0
   -1.9392    4.1337    3.6722 H   0  0  0  0  0  0  0  0  0  0  0  0
  1  2  1  0  0  0  0
  2  3  1  0  0  0  0
  2  4  1  0  0  0  0
  2  5  1  0  0  0  0
  5  6  2  0  0  0  0
  5  7  1  0  0  0  0
  7  8  1  0  0  0  0
  7  9  1  0  0  0  0
  9 10  1  0  0  0  0
  9 11  1  0  0  0  0
  9 29  1  0  0  0  0
 11 12  1  0  0  0  0
 11 13  1  0  0  0  0
 11 14  1  0  0  0  0
 14 15  1  0  0  0  0
 14 16  1  0  0  0  0
 14 17  1  0  0  0  0
 17 18  1  0  0  0  0
 17 19  1  0  0  0  0
 17 20  1  0  0  0  0
 20 21  1  0  0  0  0
 20 22  2  0  0  0  0
 22 23  1  0  0  0  0
 22 26  1  0  0  0  0
 23 24  1  0  0  0  0
 23 25  1  0  0  0  0
 26 27  1  0  0  0  0
 26 28  1  0  0  0  0
 29 30  2  0  0  0  0
 29 31  1  0  0  0  0
 31 32  1  0  0  0  0
 31 33  1  0  0  0  0
 33 34  1  0  0  0  0
 33 35  1  0  0  0  0
 33 36  1  0  0  0  0
M  CHG  1  20   1
M  END
$$$$

  -OEChem-02172215453D

 36 35  0     1  0  0  0  0  0999 V2000
   -3.6152   -1.9546    1.3930 H   0  0  0  0  0  0  0  0  0  0  0  0
   -3.7662   -0.9121    1.0979 C   0  0  0  0  0  0  0  0  0  0  0  0
   -4.1104   -0.3498    1.9695 H   0  0  0  0  0  0  0  0  0  0  0  0
   -4.5311   -0.8733    0.3190 H   0  0  0  0  0  0  0  0  0  0  0  0
   -2.4665   -0.3244    0.5832 C   0  0  0  0  0  0  0  0  0  0  0  0
   -1.4909   -1.0407    0.4321 O   0  0  0  0  0  0  0  0  0  0  0  0
   -2.4201    0.9940    0.1672 N   0  0  0  0  0  0  0  0  0  0  0  0
   -3.2717    1.5111    0.3687 H   0  0  0  0  0  0  0  0  0  0  0  0
   -1.1627    1.7629    0.2356 C   0  0  1  0  0  0  0  0  0  0  0  0
   -0.3043    1.0814    0.1971 H   0  0  0  0  0  0  0  0  0  0  0  0
   -1.0488    2.6853   -0.9909 C   0  0  0  0  0  0  0  0  0  0  0  0
   -1.9413    3.3148   -1.0709 H   0  0  0  0  0  0  0  0  0  0  0  0
   -0.1801    3.3421   -0.8714 H   0  0  0  0  0  0  0  0  0  0  0  0
   -0.8791    1.8464   -2.2673 C   0  0  0  0  0  0  0  0  0  0  0  0
    0.0191    1.2249   -2.1750 H   0  0  0  0  0  0  0  0  0  0  0  0
   -1.7385    1.1766   -2.3844 H   0  0  0  0  0  0  0  0  0  0  0  0
   -0.7628    2.7405   -3.4988 C   0  0  0  0  0  0  0  0  0  0  0  0
   -1.6582    3.3671   -3.5775 H   0  0  0  0  0  0  0  0  0  0  0  0
    0.1120    3.3914   -3.3911 H   0  0  0  0  0  0  0  0  0  0  0  0
   -0.6259    1.8919   -4.6972 N   0  3  0  0  0  0  0  0  0  0  0  0
   -0.5559    0.8861   -4.5434 H   0  0  0  0  0  0  0  0  0  0  0  0
   -0.5620    2.3527   -5.9131 C   0  0  0  0  0  0  0  0  0  0  0  0
   -0.6178    3.7011   -6.1836 N   0  0  0  0  0  0  0  0  0  0  0  0
   -0.5305    4.3460   -5.4012 H   0  0  0  0  0  0  0  0  0  0  0  0
   -0.3289    4.0251   -7.1046 H   0  0  0  0  0  0  0  0  0  0  0  0
   -0.4380    1.4746   -6.9636 N   0  0  0  0  0  0  0  0  0  0  0  0
   -0.5715    0.4798   -6.7902 H   0  0  0  0  0  0  0  0  0  0  0  0
   -0.5987    1.8194   -7.9084 H   0  0  0  0  0  0  0  0  0  0  0  0
   -1.0237    2.4916    1.5895 C   0  0  0  0  0  0  0  0  0  0  0  0
   -0.5668    1.8998    2.5538 O   0  0  0  0  0  0  0  0  0  0  0  0
   -1.5139    3.7749    1.7613 N   0  0  0  0  0  0  0  0  0  0  0  0
   -1.9181    4.2432    0.9571 H   0  0  0  0  0  0  0  0  0  0  0  0
   -1.4755    4.4776    3.0405 C   0  0  0  0  0  0  0  0  0  0  0  0
   -0.4411    4.6062    3.3770 H   0  0  0  0  0  0  0  0  0  0  0  0
   -1.9331    5.4671    2.9455 H   0  0  0  0  0  0  0  0  0  0  0  0
   -2.0246    3.9159    3.8039 H   0  0  0  0  0  0  0  0  0  0  0  0
  1  2  1  0  0  0  0
  2  3  1  0  0  0  0
  2  4  1  0  0  0  0
  2  5  1  0  0  0  0
  5  6  2  0  0  0  0
  5  7  1  0  0  0  0
  7  8  1  0  0  0  0
  7  9  1  0  0  0  0
  9 10  1  0  0  0  0
  9 11  1  0  0  0  0
  9 29  1  0  0  0  0
 11 12  1  0  0  0  0
 11 13  1  0  0  0  0
 11 14  1  0  0  0  0
 14 15  1  0  0  0  0
 14 16  1  0  0  0  0
 14 17  1  0  0  0  0
 17 18  1  0  0  0  0
 17 19  1  0  0  0  0
 17 20  1  0  0  0  0
 20 21  1  0  0  0  0
 20 22  2  0  0  0  0
 22 23  1  0  0  0  0
 22 26  1  0  0  0  0
 23 24  1  0  0  0  0
 23 25  1  0  0  0  0
 26 27  1  0  0  0  0
 26 28  1  0  0  0  0
 29 30  2  0  0  0  0
 29 31  1  0  0  0  0
 31 32  1  0  0  0  0
 31 33  1  0  0  0  0
 33 34  1  0  0  0  0
 33 35  1  0  0  0  0
 33 36  1  0  0  0  0
M  CHG  1  20   1
M  END
$$$$

  -OEChem-02172215453D

 36 35  0     1  0  0  0  0  0999 V2000
   -3.6632   -1.9840    1.3998 H   0  0  0  0  0  0  0  0  0  0  0  0
   -3.8134   -0.9608    1.0433 C   0  0  0  0  0  0  0  0  0  0  0  0
   -4.2520   -0.3715    1.8521 H   0  0  0  0  0  0  0  0  0  0  0  0
   -4.5031   -0.9797    0.1963 H   0  0  0  0  0  0  0  0  0  0  0  0
   -2.4875   -0.3573    0.6222 C   0  0  0  0  0  0  0  0  0  0  0  0
   -1.4898   -1.0558    0.5745 O   0  0  0  0  0  0  0  0  0  0  0  0
   -2.4332    0.9567    0.1931 N   0  0  0  0  0  0  0  0  0  0  0  0
   -3.3004    1.4692    0.3260 H   0  0  0  0  0  0  0  0  0  0  0  0
   -1.1833    1.7396    0.2567 C   0  0  1  0  0  0  0  0  0  0  0  0
   -0.3218    1.0615    0.2206 H   0  0  0  0  0  0  0  0  0  0  0  0
   -1.0706    2.6597   -0.9700 C   0  0  0  0  0  0  0  0  0  0  0  0
   -1.9667    3.2832   -1.0524 H   0  0  0  0  0  0  0  0  0  0  0  0
   -0.2079    3.3238   -0.8446 H   0  0  0  0  0  0  0  0  0  0  0  0
   -0.8885    1.8264   -2.2481 C   0  0  0  0  0  0  0  0  0  0  0  0
    0.0150    1.2127   -2.1552 H   0  0  0  0  0  0  0  0  0  0  0  0
   -1.7414    1.1502   -2.3723 H   0  0  0  0  0  0  0  0  0  0  0  0
   -0.7743    2.7310   -3.4727 C   0  0  0  0  0  0  0  0  0  0  0  0
   -1.6749    3.3500   -3.5498 H   0  0  0  0  0  0  0  0  0  0  0  0
    0.0935    3.3896   -3.3545 H   0  0  0  0  0  0  0  0  0  0  0  0
   -0.6242    1.8981   -4.6806 N   0  3  0  0  0  0  0  0  0  0  0  0
   -0.5409    0.8915   -4.5396 H   0  0  0  0  0  0  0  0  0  0  0  0
   -0.5592    2.3767   -5.8894 C   0  0  0  0  0  0  0  0  0  0  0  0
   -0.6268    3.7285   -6.1391 N   0  0  0  0  0  0  0  0  0  0  0  0
   -0.5499    4.3613   -5.3455 H   0  0  0  0  0  0  0  0  0  0  0  0
   -0.3322    4.0696   -7.0521 H   0  0  0  0  0  0  0  0  0  0  0  0
   -0.4141    1.5165   -6.9518 N   0  0  0  0  0  0  0  0  0  0  0  0
   -0.5253    0.5162   -6.7955 H   0  0  0  0  0  0  0  0  0  0  0  0
   -0.5628    1.8735   -7.8939 H   0  0  0  0  0  0  0  0  0  0  0  0
   -1.0404    2.4945    1.5951 C   0  0  0  0  0  0  0  0  0  0  0  0
   -0.2557    2.0984    2.4414 O   0  0  0  0  0  0  0  0  0  0  0  0
   -1.7902    3.6305    1.8492 N   0  0  0  0  0  0  0  0  0  0  0  0
   -2.4232    3.9569    1.1268 H   0  0  0  0  0  0  0  0  0  0  0  0
   -1.6964    4.3819    3.0975 C   0  0  0  0  0  0  0  0  0  0  0  0
   -0.6882    4.7907    3.2251 H   0  0  0  0  0  0  0  0  0  0  0  0
   -2.4086    5.2126    3.0969 H   0  0  0  0  0  0  0  0  0  0  0  0
   -1.9221    3.7353    3.9525 H   0  0  0  0  0  0  0  0  0  0  0  0
  1  2  1  0  0  0  0
  2  3  1  0  0  0  0
  2  4  1  0  0  0  0
  2  5  1  0  0  0  0
  5  6  2  0  0  0  0
  5  7  1  0  0  0  0
  7  8  1  0  0  0  0
  7  9  1  0  0  0  0
  9 10  1  0  0  0  0
  9 11  1  0  0  0  0
  9 29  1  0  0  0  0
 11 12  1  0  0  0  0
 11 13  1  0  0  0  0
 11 14  1  0  0  0  0
 14 15  1  0  0  0  0
 14 16  1  0  0  0  0
 14 17  1  0  0  0  0
 17 18  1  0  0  0  0
 17 19  1  0  0  0  0
 17 20  1  0  0  0  0
 20 21  1  0  0  0  0
 20 22  2  0  0  0  0
 22 23  1  0  0  0  0
 22 26  1  0  0  0  0
 23 24  1  0  0  0  0
 23 25  1  0  0  0  0
 26 27  1  0  0  0  0
 26 28  1  0  0  0  0
 29 30  2  0  0  0  0
 29 31  1  0  0  0  0
 31 32  1  0  0  0  0
 31 33  1  0  0  0  0
 33 34  1  0  0  0  0
 33 35  1  0  0  0  0
 33 36  1  0  0  0  0
M  CHG  1  20   1
M  END
$$$$

  -OEChem-02172215453D

 36 35  0     1  0  0  0  0  0999 V2000
   -3.7302   -2.0301    1.3632 H   0  0  0  0  0  0  0  0  0  0  0  0
   -3.8668   -1.0183    0.9706 C   0  0  0  0  0  0  0  0  0  0  0  0
   -4.3997   -0.4245    1.7172 H   0  0  0  0  0  0  0  0  0  0  0  0
   -4.4666   -1.0724    0.0593 H   0  0  0  0  0  0  0  0  0  0  0  0
   -2.5181   -0.3916    0.6724 C   0  0  0  0  0  0  0  0  0  0  0  0
   -1.5056   -1.0626    0.7634 O   0  0  0  0  0  0  0  0  0  0  0  0
   -2.4474    0.9178    0.2309 N   0  0  0  0  0  0  0  0  0  0  0  0
   -3.3282    1.4228    0.2451 H   0  0  0  0  0  0  0  0  0  0  0  0
   -1.2000    1.7079    0.2817 C   0  0  1  0  0  0  0  0  0  0  0  0
   -0.3402    1.0276    0.2438 H   0  0  0  0  0  0  0  0  0  0  0  0
   -1.0922    2.6260   -0.9460 C   0  0  0  0  0  0  0  0  0  0  0  0
   -1.9872    3.2522   -1.0223 H   0  0  0  0  0  0  0  0  0  0  0  0
   -0.2288    3.2898   -0.8219 H   0  0  0  0  0  0  0  0  0  0  0  0
   -0.9118    1.7996   -2.2276 C   0  0  0  0  0  0  0  0  0  0  0  0
   -0.0059    1.1882   -2.1419 H   0  0  0  0  0  0  0  0  0  0  0  0
   -1.7636    1.1226   -2.3542 H   0  0  0  0  0  0  0  0  0  0  0  0
   -0.8042    2.7179   -3.4421 C   0  0  0  0  0  0  0  0  0  0  0  0
   -1.7064    3.3359   -3.5084 H   0  0  0  0  0  0  0  0  0  0  0  0
    0.0623    3.3769   -3.3173 H   0  0  0  0  0  0  0  0  0  0  0  0
   -0.6550    1.9027   -4.6618 N   0  3  0  0  0  0  0  0  0  0  0  0
   -0.6001    0.8921   -4.5384 H   0  0  0  0  0  0  0  0  0  0  0  0
   -0.5957    2.3999   -5.8634 C   0  0  0  0  0  0  0  0  0  0  0  0
   -0.6692    3.7559   -6.0901 N   0  0  0  0  0  0  0  0  0  0  0  0
   -0.6075    4.3848   -5.2922 H   0  0  0  0  0  0  0  0  0  0  0  0
   -0.4542    4.1205   -7.0159 H   0  0  0  0  0  0  0  0  0  0  0  0
   -0.4618    1.5542   -6.9394 N   0  0  0  0  0  0  0  0  0  0  0  0
   -0.2959    0.5606   -6.7892 H   0  0  0  0  0  0  0  0  0  0  0  0
   -0.3503    1.9374   -7.8762 H   0  0  0  0  0  0  0  0  0  0  0  0
   -1.0351    2.4900    1.6016 C   0  0  0  0  0  0  0  0  0  0  0  0
   -0.0040    2.3811    2.2460 O   0  0  0  0  0  0  0  0  0  0  0  0
   -1.9721    3.4340    1.9868 N   0  0  0  0  0  0  0  0  0  0  0  0
   -2.8065    3.5382    1.4203 H   0  0  0  0  0  0  0  0  0  0  0  0
   -1.8304    4.2481    3.1904 C   0  0  0  0  0  0  0  0  0  0  0  0
   -0.9304    4.8692    3.1303 H   0  0  0  0  0  0  0  0  0  0  0  0
   -2.6965    4.9063    3.3095 H   0  0  0  0  0  0  0  0  0  0  0  0
   -1.7568    3.6105    4.0783 H   0  0  0  0  0  0  0  0  0  0  0  0
  1  2  1  0  0  0  0
  2  3  1  0  0  0  0
  2  4  1  0  0  0  0
  2  5  1  0  0  0  0
  5  6  2  0  0  0  0
  5  7  1  0  0  0  0
  7  8  1  0  0  0  0
  7  9  1  0  0  0  0
  9 10  1  0  0  0  0
  9 11  1  0  0  0  0
  9 29  1  0  0  0  0
 11 12  1  0  0  0  0
 11 13  1  0  0  0  0
 11 14  1  0  0  0  0
 14 15  1  0  0  0  0
 14 16  1  0  0  0  0
 14 17  1  0  0  0  0
 17 18  1  0  0  0  0
 17 19  1  0  0  0  0
 17 20  1  0  0  0  0
 20 21  1  0  0  0  0
 20 22  2  0  0  0  0
 22 23  1  0  0  0  0
 22 26  1  0  0  0  0
 23 24  1  0  0  0  0
 23 25  1  0  0  0  0
 26 27  1  0  0  0  0
 26 28  1  0  0  0  0
 29 30  2  0  0  0  0
 29 31  1  0  0  0  0
 31 32  1  0  0  0  0
 31 33  1  0  0  0  0
 33 34  1  0  0  0  0
 33 35  1  0  0  0  0
 33 36  1  0  0  0  0
M  CHG  1  20   1
M  END
$$$$

  -OEChem-02172215453D

 36 35  0     1  0  0  0  0  0999 V2000
   -3.7740   -2.0695    1.3054 H   0  0  0  0  0  0  0  0  0  0  0  0
   -3.8921   -1.0691    0.8783 C   0  0  0  0  0  0  0  0  0  0  0  0
   -4.5248   -0.4787    1.5453 H   0  0  0  0  0  0  0  0  0  0  0  0
   -4.3801   -1.1581   -0.0949 H   0  0  0  0  0  0  0  0  0  0  0  0
   -2.5363   -0.4069    0.7233 C   0  0  0  0  0  0  0  0  0  0  0  0
   -1.5232   -1.0383    0.9638 O   0  0  0  0  0  0  0  0  0  0  0  0
   -2.4510    0.8964    0.2669 N   0  0  0  0  0  0  0  0  0  0  0  0
   -3.3323    1.3822    0.1312 H   0  0  0  0  0  0  0  0  0  0  0  0
   -1.2056    1.6905    0.3069 C   0  0  1  0  0  0  0  0  0  0  0  0
   -0.3473    1.0087    0.2736 H   0  0  0  0  0  0  0  0  0  0  0  0
   -1.0997    2.6006   -0.9270 C   0  0  0  0  0  0  0  0  0  0  0  0
   -1.9963    3.2250   -1.0020 H   0  0  0  0  0  0  0  0  0  0  0  0
   -0.2378    3.2673   -0.8071 H   0  0  0  0  0  0  0  0  0  0  0  0
   -0.9190    1.7768   -2.2093 C   0  0  0  0  0  0  0  0  0  0  0  0
   -0.0105    1.1691   -2.1269 H   0  0  0  0  0  0  0  0  0  0  0  0
   -1.7688    1.0981   -2.3375 H   0  0  0  0  0  0  0  0  0  0  0  0
   -0.8149    2.7044   -3.4175 C   0  0  0  0  0  0  0  0  0  0  0  0
   -1.7190    3.3205   -3.4766 H   0  0  0  0  0  0  0  0  0  0  0  0
    0.0495    3.3654   -3.2876 H   0  0  0  0  0  0  0  0  0  0  0  0
   -0.6647    1.9030   -4.6464 N   0  3  0  0  0  0  0  0  0  0  0  0
   -0.6061    0.8912   -4.5352 H   0  0  0  0  0  0  0  0  0  0  0  0
   -0.6079    2.4150   -5.8420 C   0  0  0  0  0  0  0  0  0  0  0  0
   -0.6851    3.7734   -6.0513 N   0  0  0  0  0  0  0  0  0  0  0  0
   -0.6093    4.3910   -5.2456 H   0  0  0  0  0  0  0  0  0  0  0  0
   -0.4709    4.1487   -6.9728 H   0  0  0  0  0  0  0  0  0  0  0  0
   -0.4746    1.5832   -6.9288 N   0  0  0  0  0  0  0  0  0  0  0  0
   -0.2982    0.5898   -6.7903 H   0  0  0  0  0  0  0  0  0  0  0  0
   -0.3552    1.9797   -7.8591 H   0  0  0  0  0  0  0  0  0  0  0  0
   -1.0245    2.4990    1.6080 C   0  0  0  0  0  0  0  0  0  0  0  0
    0.1031    2.6821    2.0410 O   0  0  0  0  0  0  0  0  0  0  0  0
   -2.0751    3.2199    2.1497 N   0  0  0  0  0  0  0  0  0  0  0  0
   -3.0068    3.0298    1.7988 H   0  0  0  0  0  0  0  0  0  0  0  0
   -1.9298    4.0615    3.3338 C   0  0  0  0  0  0  0  0  0  0  0  0
   -1.1817    4.8424    3.1605 H   0  0  0  0  0  0  0  0  0  0  0  0
   -2.8810    4.5453    3.5763 H   0  0  0  0  0  0  0  0  0  0  0  0
   -1.6166    3.4614    4.1949 H   0  0  0  0  0  0  0  0  0  0  0  0
  1  2  1  0  0  0  0
  2  3  1  0  0  0  0
  2  4  1  0  0  0  0
  2  5  1  0  0  0  0
  5  6  2  0  0  0  0
  5  7  1  0  0  0  0
  7  8  1  0  0  0  0
  7  9  1  0  0  0  0
  9 10  1  0  0  0  0
  9 11  1  0  0  0  0
  9 29  1  0  0  0  0
 11 12  1  0  0  0  0
 11 13  1  0  0  0  0
 11 14  1  0  0  0  0
 14 15  1  0  0  0  0
 14 16  1  0  0  0  0
 14 17  1  0  0  0  0
 17 18  1  0  0  0  0
 17 19  1  0  0  0  0
 17 20  1  0  0  0  0
 20 21  1  0  0  0  0
 20 22  2  0  0  0  0
 22 23  1  0  0  0  0
 22 26  1  0  0  0  0
 23 24  1  0  0  0  0
 23 25  1  0  0  0  0
 26 27  1  0  0  0  0
 26 28  1  0  0  0  0
 29 30  2  0  0  0  0
 29 31  1  0  0  0  0
 31 32  1  0  0  0  0
 31 33  1  0  0  0  0
 33 34  1  0  0  0  0
 33 35  1  0  0  0  0
 33 36  1  0  0  0  0
M  CHG  1  20   1
M  END
$$$$

  -OEChem-02172215453D

 36 35  0     1  0  0  0  0  0999 V2000
   -3.8091   -2.0754    1.2759 H   0  0  0  0  0  0  0  0  0  0  0  0
   -3.9039   -1.0883    0.8136 C   0  0  0  0  0  0  0  0  0  0  0  0
   -4.5997   -0.4909    1.4072 H   0  0  0  0  0  0  0  0  0  0  0  0
   -4.3044   -1.2100   -0.1952 H   0  0  0  0  0  0  0  0  0  0  0  0
   -2.5488   -0.4090    0.7565 C   0  0  0  0  0  0  0  0  0  0  0  0
   -1.5506   -1.0161    1.0993 O   0  0  0  0  0  0  0  0  0  0  0  0
   -2.4435    0.8872    0.2858 N   0  0  0  0  0  0  0  0  0  0  0  0
   -3.3101    1.3590    0.0443 H   0  0  0  0  0  0  0  0  0  0  0  0
   -1.1943    1.6752    0.3258 C   0  0  1  0  0  0  0  0  0  0  0  0
   -0.3381    0.9905    0.3016 H   0  0  0  0  0  0  0  0  0  0  0  0
   -1.0928    2.5770   -0.9155 C   0  0  0  0  0  0  0  0  0  0  0  0
   -1.9883    3.2031   -0.9875 H   0  0  0  0  0  0  0  0  0  0  0  0
   -0.2304    3.2448   -0.8050 H   0  0  0  0  0  0  0  0  0  0  0  0
   -0.9183    1.7516   -2.1970 C   0  0  0  0  0  0  0  0  0  0  0  0
   -0.0089    1.1448   -2.1191 H   0  0  0  0  0  0  0  0  0  0  0  0
   -1.7686    1.0732   -2.3223 H   0  0  0  0  0  0  0  0  0  0  0  0
   -0.8205    2.6857   -3.4005 C   0  0  0  0  0  0  0  0  0  0  0  0
   -1.7257    3.3012   -3.4502 H   0  0  0  0  0  0  0  0  0  0  0  0
    0.0436    3.3468   -3.2693 H   0  0  0  0  0  0  0  0  0  0  0  0
   -0.6756    1.8979   -4.6382 N   0  3  0  0  0  0  0  0  0  0  0  0
   -0.6172    0.8851   -4.5388 H   0  0  0  0  0  0  0  0  0  0  0  0
   -0.6256    2.4256   -5.8274 C   0  0  0  0  0  0  0  0  0  0  0  0
   -0.7057    3.7869   -6.0184 N   0  0  0  0  0  0  0  0  0  0  0  0
   -0.6347    4.3946   -5.2047 H   0  0  0  0  0  0  0  0  0  0  0  0
   -0.4966    4.1764   -6.9353 H   0  0  0  0  0  0  0  0  0  0  0  0
   -0.4946    1.6083   -6.9255 N   0  0  0  0  0  0  0  0  0  0  0  0
   -0.3028    0.6162   -6.7985 H   0  0  0  0  0  0  0  0  0  0  0  0
   -0.3670    2.0191   -7.8485 H   0  0  0  0  0  0  0  0  0  0  0  0
   -1.0134    2.5025    1.6160 C   0  0  0  0  0  0  0  0  0  0  0  0
    0.1005    2.9205    1.8967 O   0  0  0  0  0  0  0  0  0  0  0  0
   -2.1076    2.9851    2.3126 N   0  0  0  0  0  0  0  0  0  0  0  0
   -3.0049    2.5555    2.1160 H   0  0  0  0  0  0  0  0  0  0  0  0
   -1.9792    3.8204    3.5030 C   0  0  0  0  0  0  0  0  0  0  0  0
   -1.4176    4.7325    3.2739 H   0  0  0  0  0  0  0  0  0  0  0  0
   -2.9673    4.1110    3.8731 H   0  0  0  0  0  0  0  0  0  0  0  0
   -1.4559    3.2779    4.2977 H   0  0  0  0  0  0  0  0  0  0  0  0
  1  2  1  0  0  0  0
  2  3  1  0  0  0  0
  2  4  1  0  0  0  0
  2  5  1  0  0  0  0
  5  6  2  0  0  0  0
  5  7  1  0  0  0  0
  7  8  1  0  0  0  0
  7  9  1  0  0  0  0
  9 10  1  0  0  0  0
  9 11  1  0  0  0  0
  9 29  1  0  0  0  0
 11 12  1  0  0  0  0
 11 13  1  0  0  0  0
 11 14  1  0  0  0  0
 14 15  1  0  0  0  0
 14 16  1  0  0  0  0
 14 17  1  0  0  0  0
 17 18  1  0  0  0  0
 17 19  1  0  0  0  0
 17 20  1  0  0  0  0
 20 21  1  0  0  0  0
 20 22  2  0  0  0  0
 22 23  1  0  0  0  0
 22 26  1  0  0  0  0
 23 24  1  0  0  0  0
 23 25  1  0  0  0  0
 26 27  1  0  0  0  0
 26 28  1  0  0  0  0
 29 30  2  0  0  0  0
 29 31  1  0  0  0  0
 31 32  1  0  0  0  0
 31 33  1  0  0  0  0
 33 34  1  0  0  0  0
 33 35  1  0  0  0  0
 33 36  1  0  0  0  0
M  CHG  1  20   1
M  END
$$$$

  -OEChem-02172215453D

 36 35  0     1  0  0  0  0  0999 V2000
   -3.7873   -2.0867    1.2222 H   0  0  0  0  0  0  0  0  0  0  0  0
   -3.8939   -1.0816    0.8029 C   0  0  0  0  0  0  0  0  0  0  0  0
   -4.5770   -0.5104    1.4362 H   0  0  0  0  0  0  0  0  0  0  0  0
   -4.3179   -1.1633   -0.2006 H   0  0  0  0  0  0  0  0  0  0  0  0
   -2.5409   -0.3984    0.7436 C   0  0  0  0  0  0  0  0  0  0  0  0
   -1.5421   -0.9951    1.1022 O   0  0  0  0  0  0  0  0  0  0  0  0
   -2.4390    0.8985    0.2749 N   0  0  0  0  0  0  0  0  0  0  0  0
   -3.3075    1.3727    0.0434 H   0  0  0  0  0  0  0  0  0  0  0  0
   -1.1944    1.6939    0.3269 C   0  0  1  0  0  0  0  0  0  0  0  0
   -0.3330    1.0161    0.3128 H   0  0  0  0  0  0  0  0  0  0  0  0
   -1.0916    2.5884   -0.9217 C   0  0  0  0  0  0  0  0  0  0  0  0
   -1.9924    3.2062   -1.0034 H   0  0  0  0  0  0  0  0  0  0  0  0
   -0.2355    3.2643   -0.8132 H   0  0  0  0  0  0  0  0  0  0  0  0
   -0.9000    1.7569   -2.1972 C   0  0  0  0  0  0  0  0  0  0  0  0
    0.0145    1.1596   -2.1089 H   0  0  0  0  0  0  0  0  0  0  0  0
   -1.7434    1.0700   -2.3248 H   0  0  0  0  0  0  0  0  0  0  0  0
   -0.8018    2.6852   -3.4052 C   0  0  0  0  0  0  0  0  0  0  0  0
   -1.7115    3.2931   -3.4637 H   0  0  0  0  0  0  0  0  0  0  0  0
    0.0553    3.3547   -3.2709 H   0  0  0  0  0  0  0  0  0  0  0  0
   -0.6402    1.8942   -4.6392 N   0  3  0  0  0  0  0  0  0  0  0  0
   -0.5290    0.8863   -4.5337 H   0  0  0  0  0  0  0  0  0  0  0  0
   -0.5866    2.4201   -5.8290 C   0  0  0  0  0  0  0  0  0  0  0  0
   -0.6783    3.7795   -6.0241 N   0  0  0  0  0  0  0  0  0  0  0  0
   -0.6132    4.3806   -5.2050 H   0  0  0  0  0  0  0  0  0  0  0  0
   -0.3867    4.1628   -6.9210 H   0  0  0  0  0  0  0  0  0  0  0  0
   -0.4243    1.6067   -6.9253 N   0  0  0  0  0  0  0  0  0  0  0  0
   -0.5234    0.5998   -6.8101 H   0  0  0  0  0  0  0  0  0  0  0  0
   -0.5792    1.9998   -7.8521 H   0  0  0  0  0  0  0  0  0  0  0  0
   -1.0323    2.5213    1.6218 C   0  0  0  0  0  0  0  0  0  0  0  0
    0.0094    3.1337    1.8092 O   0  0  0  0  0  0  0  0  0  0  0  0
   -2.1021    2.7368    2.4728 N   0  0  0  0  0  0  0  0  0  0  0  0
   -2.9026    2.1240    2.3600 H   0  0  0  0  0  0  0  0  0  0  0  0
   -1.9816    3.5016    3.7104 C   0  0  0  0  0  0  0  0  0  0  0  0
   -1.6461    4.5231    3.5009 H   0  0  0  0  0  0  0  0  0  0  0  0
   -2.9489    3.5563    4.2194 H   0  0  0  0  0  0  0  0  0  0  0  0
   -1.2603    3.0278    4.3850 H   0  0  0  0  0  0  0  0  0  0  0  0
  1  2  1  0  0  0  0
  2  3  1  0  0  0  0
  2  4  1  0  0  0  0
  2  5  1  0  0  0  0
  5  6  2  0  0  0  0
  5  7  1  0  0  0  0
  7  8  1  0  0  0  0
  7  9  1  0  0  0  0
  9 10  1  0  0  0  0
  9 11  1  0  0  0  0
  9 29  1  0  0  0  0
 11 12  1  0  0  0  0
 11 13  1  0  0  0  0
 11 14  1  0  0  0  0
 14 15  1  0  0  0  0
 14 16  1  0  0  0  0
 14 17  1  0  0  0  0
 17 18  1  0  0  0  0
 17 19  1  0  0  0  0
 17 20  1  0  0  0  0
 20 21  1  0  0  0  0
 20 22  2  0  0  0  0
 22 23  1  0  0  0  0
 22 26  1  0  0  0  0
 23 24  1  0  0  0  0
 23 25  1  0  0  0  0
 26 27  1  0  0  0  0
 26 28  1  0  0  0  0
 29 30  2  0  0  0  0
 29 31  1  0  0  0  0
 31 32  1  0  0  0  0
 31 33  1  0  0  0  0
 33 34  1  0  0  0  0
 33 35  1  0  0  0  0
 33 36  1  0  0  0  0
M  CHG  1  20   1
M  END
$$$$

  -OEChem-02172215453D

 36 35  0     1  0  0  0  0  0999 V2000
   -3.8035   -2.0732    1.2253 H   0  0  0  0  0  0  0  0  0  0  0  0
   -3.8983   -1.0756    0.7860 C   0  0  0  0  0  0  0  0  0  0  0  0
   -4.5958   -0.4922    1.3917 H   0  0  0  0  0  0  0  0  0  0  0  0
   -4.2983   -1.1748   -0.2258 H   0  0  0  0  0  0  0  0  0  0  0  0
   -2.5435   -0.3946    0.7467 C   0  0  0  0  0  0  0  0  0  0  0  0
   -1.5533   -0.9857    1.1366 O   0  0  0  0  0  0  0  0  0  0  0  0
   -2.4309    0.9010    0.2781 N   0  0  0  0  0  0  0  0  0  0  0  0
   -3.2968    1.3838    0.0529 H   0  0  0  0  0  0  0  0  0  0  0  0
   -1.1831    1.6917    0.3354 C   0  0  1  0  0  0  0  0  0  0  0  0
   -0.3216    1.0142    0.3250 H   0  0  0  0  0  0  0  0  0  0  0  0
   -1.0836    2.5807   -0.9196 C   0  0  0  0  0  0  0  0  0  0  0  0
   -1.9845    3.1980   -1.0008 H   0  0  0  0  0  0  0  0  0  0  0  0
   -0.2276    3.2577   -0.8211 H   0  0  0  0  0  0  0  0  0  0  0  0
   -0.8952    1.7467   -2.1940 C   0  0  0  0  0  0  0  0  0  0  0  0
    0.0192    1.1489   -2.1085 H   0  0  0  0  0  0  0  0  0  0  0  0
   -1.7391    1.0603   -2.3198 H   0  0  0  0  0  0  0  0  0  0  0  0
   -0.8012    2.6767   -3.4016 C   0  0  0  0  0  0  0  0  0  0  0  0
   -1.7113    3.2845   -3.4563 H   0  0  0  0  0  0  0  0  0  0  0  0
    0.0561    3.3462   -3.2683 H   0  0  0  0  0  0  0  0  0  0  0  0
   -0.6428    1.8910   -4.6393 N   0  3  0  0  0  0  0  0  0  0  0  0
   -0.5357    0.8823   -4.5392 H   0  0  0  0  0  0  0  0  0  0  0  0
   -0.5936    2.4233   -5.8265 C   0  0  0  0  0  0  0  0  0  0  0  0
   -0.6872    3.7838   -6.0142 N   0  0  0  0  0  0  0  0  0  0  0  0
   -0.6132    4.3810   -5.1929 H   0  0  0  0  0  0  0  0  0  0  0  0
   -0.4062    4.1720   -6.9123 H   0  0  0  0  0  0  0  0  0  0  0  0
   -0.4370    1.6165   -6.9285 N   0  0  0  0  0  0  0  0  0  0  0  0
   -0.5364    0.6089   -6.8206 H   0  0  0  0  0  0  0  0  0  0  0  0
   -0.5896    2.0167   -7.8524 H   0  0  0  0  0  0  0  0  0  0  0  0
   -1.0307    2.5186    1.6348 C   0  0  0  0  0  0  0  0  0  0  0  0
   -0.1044    3.3108    1.7395 O   0  0  0  0  0  0  0  0  0  0  0  0
   -1.9999    2.4848    2.6217 N   0  0  0  0  0  0  0  0  0  0  0  0
   -2.6644    1.7192    2.5744 H   0  0  0  0  0  0  0  0  0  0  0  0
   -1.8739    3.2183    3.8774 C   0  0  0  0  0  0  0  0  0  0  0  0
   -1.7842    4.2934    3.6878 H   0  0  0  0  0  0  0  0  0  0  0  0
   -2.7557    3.0536    4.5042 H   0  0  0  0  0  0  0  0  0  0  0  0
   -0.9887    2.8844    4.4293 H   0  0  0  0  0  0  0  0  0  0  0  0
  1  2  1  0  0  0  0
  2  3  1  0  0  0  0
  2  4  1  0  0  0  0
  2  5  1  0  0  0  0
  5  6  2  0  0  0  0
  5  7  1  0  0  0  0
  7  8  1  0  0  0  0
  7  9  1  0  0  0  0
  9 10  1  0  0  0  0
  9 11  1  0  0  0  0
  9 29  1  0  0  0  0
 11 12  1  0  0  0  0
 11 13  1  0  0  0  0
 11 14  1  0  0  0  0
 14 15  1  0  0  0  0
 14 16  1  0  0  0  0
 14 17  1  0  0  0  0
 17 18  1  0  0  0  0
 17 19  1  0  0  0  0
 17 20  1  0  0  0  0
 20 21  1  0  0  0  0
 20 22  2  0  0  0  0
 22 23  1  0  0  0  0
 22 26  1  0  0  0  0
 23 24  1  0  0  0  0
 23 25  1  0  0  0  0
 26 27  1  0  0  0  0
 26 28  1  0  0  0  0
 29 30  2  0  0  0  0
 29 31  1  0  0  0  0
 31 32  1  0  0  0  0
 31 33  1  0  0  0  0
 33 34  1  0  0  0  0
 33 35  1  0  0  0  0
 33 36  1  0  0  0  0
M  CHG  1  20   1
M  END
$$$$

  -OEChem-02172215453D

 36 35  0     1  0  0  0  0  0999 V2000
   -3.8113   -2.0604    1.2167 H   0  0  0  0  0  0  0  0  0  0  0  0
   -3.9010   -1.0613    0.7803 C   0  0  0  0  0  0  0  0  0  0  0  0
   -4.5971   -0.4765    1.3864 H   0  0  0  0  0  0  0  0  0  0  0  0
   -4.2988   -1.1554   -0.2329 H   0  0  0  0  0  0  0  0  0  0  0  0
   -2.5438   -0.3854    0.7460 C   0  0  0  0  0  0  0  0  0  0  0  0
   -1.5594   -0.9706    1.1594 O   0  0  0  0  0  0  0  0  0  0  0  0
   -2.4242    0.9102    0.2813 N   0  0  0  0  0  0  0  0  0  0  0  0
   -3.2894    1.4019    0.0716 H   0  0  0  0  0  0  0  0  0  0  0  0
   -1.1737    1.6959    0.3394 C   0  0  1  0  0  0  0  0  0  0  0  0
   -0.3141    1.0161    0.3294 H   0  0  0  0  0  0  0  0  0  0  0  0
   -1.0759    2.5812   -0.9197 C   0  0  0  0  0  0  0  0  0  0  0  0
   -1.9753    3.2014   -0.9991 H   0  0  0  0  0  0  0  0  0  0  0  0
   -0.2175    3.2560   -0.8278 H   0  0  0  0  0  0  0  0  0  0  0  0
   -0.8922    1.7444   -2.1927 C   0  0  0  0  0  0  0  0  0  0  0  0
    0.0221    1.1462   -2.1089 H   0  0  0  0  0  0  0  0  0  0  0  0
   -1.7374    1.0589   -2.3155 H   0  0  0  0  0  0  0  0  0  0  0  0
   -0.8004    2.6743   -3.4003 C   0  0  0  0  0  0  0  0  0  0  0  0
   -1.7104    3.2826   -3.4527 H   0  0  0  0  0  0  0  0  0  0  0  0
    0.0570    3.3440   -3.2693 H   0  0  0  0  0  0  0  0  0  0  0  0
   -0.6464    1.8884   -4.6384 N   0  3  0  0  0  0  0  0  0  0  0  0
   -0.5417    0.8793   -4.5390 H   0  0  0  0  0  0  0  0  0  0  0  0
   -0.5998    2.4221   -5.8251 C   0  0  0  0  0  0  0  0  0  0  0  0
   -0.6920    3.7829   -6.0107 N   0  0  0  0  0  0  0  0  0  0  0  0
   -0.6190    4.3783   -5.1878 H   0  0  0  0  0  0  0  0  0  0  0  0
   -0.4065    4.1722   -6.9071 H   0  0  0  0  0  0  0  0  0  0  0  0
   -0.4477    1.6163   -6.9283 N   0  0  0  0  0  0  0  0  0  0  0  0
   -0.5464    0.6086   -6.8206 H   0  0  0  0  0  0  0  0  0  0  0  0
   -0.6052    2.0176   -7.8511 H   0  0  0  0  0  0  0  0  0  0  0  0
   -1.0286    2.5148    1.6468 C   0  0  0  0  0  0  0  0  0  0  0  0
   -0.2729    3.4764    1.6878 O   0  0  0  0  0  0  0  0  0  0  0  0
   -1.8283    2.2457    2.7432 N   0  0  0  0  0  0  0  0  0  0  0  0
   -2.3027    1.3474    2.7392 H   0  0  0  0  0  0  0  0  0  0  0  0
   -1.6895    2.9489    4.0148 C   0  0  0  0  0  0  0  0  0  0  0  0
   -1.8446    4.0247    3.8786 H   0  0  0  0  0  0  0  0  0  0  0  0
   -2.4304    2.5844    4.7331 H   0  0  0  0  0  0  0  0  0  0  0  0
   -0.6908    2.7887    4.4351 H   0  0  0  0  0  0  0  0  0  0  0  0
  1  2  1  0  0  0  0
  2  3  1  0  0  0  0
  2  4  1  0  0  0  0
  2  5  1  0  0  0  0
  5  6  2  0  0  0  0
  5  7  1  0  0  0  0
  7  8  1  0  0  0  0
  7  9  1  0  0  0  0
  9 10  1  0  0  0  0
  9 11  1  0  0  0  0
  9 29  1  0  0  0  0
 11 12  1  0  0  0  0
 11 13  1  0  0  0  0
 11 14  1  0  0  0  0
 14 15  1  0  0  0  0
 14 16  1  0  0  0  0
 14 17  1  0  0  0  0
 17 18  1  0  0  0  0
 17 19  1  0  0  0  0
 17 20  1  0  0  0  0
 20 21  1  0  0  0  0
 20 22  2  0  0  0  0
 22 23  1  0  0  0  0
 22 26  1  0  0  0  0
 23 24  1  0  0  0  0
 23 25  1  0  0  0  0
 26 27  1  0  0  0  0
 26 28  1  0  0  0  0
 29 30  2  0  0  0  0
 29 31  1  0  0  0  0
 31 32  1  0  0  0  0
 31 33  1  0  0  0  0
 33 34  1  0  0  0  0
 33 35  1  0  0  0  0
 33 36  1  0  0  0  0
M  CHG  1  20   1
M  END
$$$$

  -OEChem-02172215453D

 36 35  0     1  0  0  0  0  0999 V2000
   -3.8428   -2.0300    1.2430 H   0  0  0  0  0  0  0  0  0  0  0  0
   -3.9164   -1.0348    0.7947 C   0  0  0  0  0  0  0  0  0  0  0  0
   -4.6159   -0.4362    1.3834 H   0  0  0  0  0  0  0  0  0  0  0  0
   -4.2999   -1.1362   -0.2232 H   0  0  0  0  0  0  0  0  0  0  0  0
   -2.5529   -0.3712    0.7741 C   0  0  0  0  0  0  0  0  0  0  0  0
   -1.5825   -0.9508    1.2282 O   0  0  0  0  0  0  0  0  0  0  0  0
   -2.4139    0.9191    0.3020 N   0  0  0  0  0  0  0  0  0  0  0  0
   -3.2723    1.4236    0.0946 H   0  0  0  0  0  0  0  0  0  0  0  0
   -1.1504    1.6834    0.3436 C   0  0  1  0  0  0  0  0  0  0  0  0
   -0.3001    0.9926    0.3281 H   0  0  0  0  0  0  0  0  0  0  0  0
   -1.0538    2.5659   -0.9179 C   0  0  0  0  0  0  0  0  0  0  0  0
   -1.9423    3.2028   -0.9849 H   0  0  0  0  0  0  0  0  0  0  0  0
   -0.1815    3.2240   -0.8354 H   0  0  0  0  0  0  0  0  0  0  0  0
   -0.9005    1.7307   -2.1954 C   0  0  0  0  0  0  0  0  0  0  0  0
    0.0039    1.1160   -2.1271 H   0  0  0  0  0  0  0  0  0  0  0  0
   -1.7598    1.0614   -2.3097 H   0  0  0  0  0  0  0  0  0  0  0  0
   -0.8101    2.6667   -3.3986 C   0  0  0  0  0  0  0  0  0  0  0  0
   -1.7103    3.2904   -3.4343 H   0  0  0  0  0  0  0  0  0  0  0  0
    0.0601    3.3211   -3.2748 H   0  0  0  0  0  0  0  0  0  0  0  0
   -0.6853    1.8870   -4.6435 N   0  3  0  0  0  0  0  0  0  0  0  0
   -0.6357    0.8729   -4.5545 H   0  0  0  0  0  0  0  0  0  0  0  0
   -0.6464    2.4266   -5.8278 C   0  0  0  0  0  0  0  0  0  0  0  0
   -0.7202    3.7902   -6.0044 N   0  0  0  0  0  0  0  0  0  0  0  0
   -0.6515    4.3930   -5.1866 H   0  0  0  0  0  0  0  0  0  0  0  0
   -0.5386    4.1891   -6.9230 H   0  0  0  0  0  0  0  0  0  0  0  0
   -0.5350    1.6203   -6.9359 N   0  0  0  0  0  0  0  0  0  0  0  0
   -0.3435    0.6266   -6.8225 H   0  0  0  0  0  0  0  0  0  0  0  0
   -0.4211    2.0409   -7.8562 H   0  0  0  0  0  0  0  0  0  0  0  0
   -1.0000    2.4973    1.6535 C   0  0  0  0  0  0  0  0  0  0  0  0
   -0.4599    3.5958    1.6484 O   0  0  0  0  0  0  0  0  0  0  0  0
   -1.5742    2.0368    2.8242 N   0  0  0  0  0  0  0  0  0  0  0  0
   -1.8481    1.0564    2.8301 H   0  0  0  0  0  0  0  0  0  0  0  0
   -1.4349    2.7272    4.1020 C   0  0  0  0  0  0  0  0  0  0  0  0
   -1.8572    3.7359    4.0409 H   0  0  0  0  0  0  0  0  0  0  0  0
   -1.9645    2.1802    4.8882 H   0  0  0  0  0  0  0  0  0  0  0  0
   -0.3794    2.8044    4.3844 H   0  0  0  0  0  0  0  0  0  0  0  0
  1  2  1  0  0  0  0
  2  3  1  0  0  0  0
  2  4  1  0  0  0  0
  2  5  1  0  0  0  0
  5  6  2  0  0  0  0
  5  7  1  0  0  0  0
  7  8  1  0  0  0  0
  7  9  1  0  0  0  0
  9 10  1  0  0  0  0
  9 11  1  0  0  0  0
  9 29  1  0  0  0  0
 11 12  1  0  0  0  0
 11 13  1  0  0  0  0
 11 14  1  0  0  0  0
 14 15  1  0  0  0  0
 14 16  1  0  0  0  0
 14 17  1  0  0  0  0
 17 18  1  0  0  0  0
 17 19  1  0  0  0  0
 17 20  1  0  0  0  0
 20 21  1  0  0  0  0
 20 22  2  0  0  0  0
 22 23  1  0  0  0  0
 22 26  1  0  0  0  0
 23 24  1  0  0  0  0
 23 25  1  0  0  0  0
 26 27  1  0  0  0  0
 26 28  1  0  0  0  0
 29 30  2  0  0  0  0
 29 31  1  0  0  0  0
 31 32  1  0  0  0  0
 31 33  1  0  0  0  0
 33 34  1  0  0  0  0
 33 35  1  0  0  0  0
 33 36  1  0  0  0  0
M  CHG  1  20   1
M  END
$$$$

  -OEChem-02172215453D

 36 35  0     1  0  0  0  0  0999 V2000
   -3.8607   -1.9897    1.2860 H   0  0  0  0  0  0  0  0  0  0  0  0
   -3.9299   -0.9927    0.8409 C   0  0  0  0  0  0  0  0  0  0  0  0
   -4.6026   -0.3839    1.4501 H   0  0  0  0  0  0  0  0  0  0  0  0
   -4.3429   -1.0861   -0.1661 H   0  0  0  0  0  0  0  0  0  0  0  0
   -2.5570   -0.3512    0.7842 C   0  0  0  0  0  0  0  0  0  0  0  0
   -1.5864   -0.9405    1.2284 O   0  0  0  0  0  0  0  0  0  0  0  0
   -2.4077    0.9351    0.3038 N   0  0  0  0  0  0  0  0  0  0  0  0
   -3.2627    1.4580    0.1308 H   0  0  0  0  0  0  0  0  0  0  0  0
   -1.1329    1.6786    0.3381 C   0  0  1  0  0  0  0  0  0  0  0  0
   -0.2907    0.9781    0.3228 H   0  0  0  0  0  0  0  0  0  0  0  0
   -1.0190    2.5618   -0.9210 C   0  0  0  0  0  0  0  0  0  0  0  0
   -1.8958    3.2152   -0.9871 H   0  0  0  0  0  0  0  0  0  0  0  0
   -0.1348    3.2033   -0.8319 H   0  0  0  0  0  0  0  0  0  0  0  0
   -0.8817    1.7280   -2.2013 C   0  0  0  0  0  0  0  0  0  0  0  0
    0.0109    1.0961   -2.1344 H   0  0  0  0  0  0  0  0  0  0  0  0
   -1.7530    1.0752   -2.3170 H   0  0  0  0  0  0  0  0  0  0  0  0
   -0.7728    2.6649   -3.4027 C   0  0  0  0  0  0  0  0  0  0  0  0
   -1.6611    3.3051   -3.4360 H   0  0  0  0  0  0  0  0  0  0  0  0
    0.1096    3.3030   -3.2787 H   0  0  0  0  0  0  0  0  0  0  0  0
   -0.6630    1.8866   -4.6503 N   0  3  0  0  0  0  0  0  0  0  0  0
   -0.6274    0.8717   -4.5641 H   0  0  0  0  0  0  0  0  0  0  0  0
   -0.6131    2.4287   -5.8332 C   0  0  0  0  0  0  0  0  0  0  0  0
   -0.6596    3.7934   -6.0084 N   0  0  0  0  0  0  0  0  0  0  0  0
   -0.8771    4.3754   -5.2019 H   0  0  0  0  0  0  0  0  0  0  0  0
   -0.8444    4.1669   -6.9372 H   0  0  0  0  0  0  0  0  0  0  0  0
   -0.5066    1.6261   -6.9441 N   0  0  0  0  0  0  0  0  0  0  0  0
   -0.2819    0.6413   -6.8158 H   0  0  0  0  0  0  0  0  0  0  0  0
   -0.2541    2.0592   -7.8307 H   0  0  0  0  0  0  0  0  0  0  0  0
   -0.9877    2.4852    1.6510 C   0  0  0  0  0  0  0  0  0  0  0  0
   -0.6712    3.6677    1.6360 O   0  0  0  0  0  0  0  0  0  0  0  0
   -1.3012    1.8816    2.8544 N   0  0  0  0  0  0  0  0  0  0  0  0
   -1.4324    0.8706    2.8324 H   0  0  0  0  0  0  0  0  0  0  0  0
   -1.1432    2.5412    4.1458 C   0  0  0  0  0  0  0  0  0  0  0  0
   -1.7640    3.4422    4.1951 H   0  0  0  0  0  0  0  0  0  0  0  0
   -1.4475    1.8692    4.9543 H   0  0  0  0  0  0  0  0  0  0  0  0
   -0.0977    2.8254    4.3066 H   0  0  0  0  0  0  0  0  0  0  0  0
  1  2  1  0  0  0  0
  2  3  1  0  0  0  0
  2  4  1  0  0  0  0
  2  5  1  0  0  0  0
  5  6  2  0  0  0  0
  5  7  1  0  0  0  0
  7  8  1  0  0  0  0
  7  9  1  0  0  0  0
  9 10  1  0  0  0  0
  9 11  1  0  0  0  0
  9 29  1  0  0  0  0
 11 12  1  0  0  0  0
 11 13  1  0  0  0  0
 11 14  1  0  0  0  0
 14 15  1  0  0  0  0
 14 16  1  0  0  0  0
 14 17  1  0  0  0  0
 17 18  1  0  0  0  0
 17 19  1  0  0  0  0
 17 20  1  0  0  0  0
 20 21  1  0  0  0  0
 20 22  2  0  0  0  0
 22 23  1  0  0  0  0
 22 26  1  0  0  0  0
 23 24  1  0  0  0  0
 23 25  1  0  0  0  0
 26 27  1  0  0  0  0
 26 28  1  0  0  0  0
 29 30  2  0  0  0  0
 29 31  1  0  0  0  0
 31 32  1  0  0  0  0
 31 33  1  0  0  0  0
 33 34  1  0  0  0  0
 33 35  1  0  0  0  0
 33 36  1  0  0  0  0
M  CHG  1  20   1
M  END
$$$$

  -OEChem-02172215453D

 36 35  0     1  0  0  0  0  0999 V2000
   -3.8446   -1.9603    1.3370 H   0  0  0  0  0  0  0  0  0  0  0  0
   -3.9077   -0.9708    0.8748 C   0  0  0  0  0  0  0  0  0  0  0  0
   -4.5717   -0.3452    1.4763 H   0  0  0  0  0  0  0  0  0  0  0  0
   -4.3276   -1.0779   -0.1279 H   0  0  0  0  0  0  0  0  0  0  0  0
   -2.5295   -0.3427    0.7980 C   0  0  0  0  0  0  0  0  0  0  0  0
   -1.5562   -0.9427    1.2238 O   0  0  0  0  0  0  0  0  0  0  0  0
   -2.3753    0.9390    0.3065 N   0  0  0  0  0  0  0  0  0  0  0  0
   -3.2270    1.4743    0.1552 H   0  0  0  0  0  0  0  0  0  0  0  0
   -1.0942    1.6684    0.3344 C   0  0  1  0  0  0  0  0  0  0  0  0
   -0.2538    0.9656    0.3148 H   0  0  0  0  0  0  0  0  0  0  0  0
   -0.9839    2.5562   -0.9206 C   0  0  0  0  0  0  0  0  0  0  0  0
   -1.8568    3.2160   -0.9774 H   0  0  0  0  0  0  0  0  0  0  0  0
   -0.0951    3.1914   -0.8314 H   0  0  0  0  0  0  0  0  0  0  0  0
   -0.8664    1.7268   -2.2054 C   0  0  0  0  0  0  0  0  0  0  0  0
    0.0212    1.0868   -2.1493 H   0  0  0  0  0  0  0  0  0  0  0  0
   -1.7450    1.0822   -2.3148 H   0  0  0  0  0  0  0  0  0  0  0  0
   -0.7604    2.6666   -3.4044 C   0  0  0  0  0  0  0  0  0  0  0  0
   -1.6436    3.3144   -3.4271 H   0  0  0  0  0  0  0  0  0  0  0  0
    0.1289    3.2966   -3.2877 H   0  0  0  0  0  0  0  0  0  0  0  0
   -0.6700    1.8891   -4.6538 N   0  3  0  0  0  0  0  0  0  0  0  0
   -0.6432    0.8739   -4.5682 H   0  0  0  0  0  0  0  0  0  0  0  0
   -0.6265    2.4319   -5.8366 C   0  0  0  0  0  0  0  0  0  0  0  0
   -0.6619    3.7970   -6.0100 N   0  0  0  0  0  0  0  0  0  0  0  0
   -0.8709    4.3793   -5.2013 H   0  0  0  0  0  0  0  0  0  0  0  0
   -0.8499    4.1725   -6.9374 H   0  0  0  0  0  0  0  0  0  0  0  0
   -0.5414    1.6295   -6.9494 N   0  0  0  0  0  0  0  0  0  0  0  0
   -0.3347    0.6403   -6.8256 H   0  0  0  0  0  0  0  0  0  0  0  0
   -0.2983    2.0594   -7.8401 H   0  0  0  0  0  0  0  0  0  0  0  0
   -0.9570    2.4742    1.6457 C   0  0  0  0  0  0  0  0  0  0  0  0
   -0.8815    3.6962    1.6363 O   0  0  0  0  0  0  0  0  0  0  0  0
   -0.9794    1.7971    2.8498 N   0  0  0  0  0  0  0  0  0  0  0  0
   -1.0165    0.7783    2.8063 H   0  0  0  0  0  0  0  0  0  0  0  0
   -0.8621    2.4503    4.1483 C   0  0  0  0  0  0  0  0  0  0  0  0
   -1.6959    3.1426    4.3062 H   0  0  0  0  0  0  0  0  0  0  0  0
   -0.8757    1.7048    4.9495 H   0  0  0  0  0  0  0  0  0  0  0  0
    0.0771    3.0099    4.2130 H   0  0  0  0  0  0  0  0  0  0  0  0
  1  2  1  0  0  0  0
  2  3  1  0  0  0  0
  2  4  1  0  0  0  0
  2  5  1  0  0  0  0
  5  6  2  0  0  0  0
  5  7  1  0  0  0  0
  7  8  1  0  0  0  0
  7  9  1  0  0  0  0
  9 10  1  0  0  0  0
  9 11  1  0  0  0  0
  9 29  1  0  0  0  0
 11 12  1  0  0  0  0
 11 13  1  0  0  0  0
 11 14  1  0  0  0  0
 14 15  1  0  0  0  0
 14 16  1  0  0  0  0
 14 17  1  0  0  0  0
 17 18  1  0  0  0  0
 17 19  1  0  0  0  0
 17 20  1  0  0  0  0
 20 21  1  0  0  0  0
 20 22  2  0  0  0  0
 22 23  1  0  0  0  0
 22 26  1  0  0  0  0
 23 24  1  0  0  0  0
 23 25  1  0  0  0  0
 26 27  1  0  0  0  0
 26 28  1  0  0  0  0
 29 30  2  0  0  0  0
 29 31  1  0  0  0  0
 31 32  1  0  0  0  0
 31 33  1  0  0  0  0
 33 34  1  0  0  0  0
 33 35  1  0  0  0  0
 33 36  1  0  0  0  0
M  CHG  1  20   1
M  END
$$$$

  -OEChem-02172215453D

 36 35  0     1  0  0  0  0  0999 V2000
   -3.8203   -1.9442    1.3783 H   0  0  0  0  0  0  0  0  0  0  0  0
   -3.8860   -0.9582    0.9094 C   0  0  0  0  0  0  0  0  0  0  0  0
   -4.5336   -0.3229    1.5186 H   0  0  0  0  0  0  0  0  0  0  0  0
   -4.3263   -1.0703   -0.0841 H   0  0  0  0  0  0  0  0  0  0  0  0
   -2.5059   -0.3398    0.8003 C   0  0  0  0  0  0  0  0  0  0  0  0
   -1.5250   -0.9527    1.1903 O   0  0  0  0  0  0  0  0  0  0  0  0
   -2.3551    0.9395    0.3011 N   0  0  0  0  0  0  0  0  0  0  0  0
   -3.2059    1.4856    0.1858 H   0  0  0  0  0  0  0  0  0  0  0  0
   -1.0711    1.6603    0.3274 C   0  0  1  0  0  0  0  0  0  0  0  0
   -0.2311    0.9572    0.3033 H   0  0  0  0  0  0  0  0  0  0  0  0
   -0.9633    2.5534   -0.9232 C   0  0  0  0  0  0  0  0  0  0  0  0
   -1.8346    3.2158   -0.9745 H   0  0  0  0  0  0  0  0  0  0  0  0
   -0.0731    3.1862   -0.8322 H   0  0  0  0  0  0  0  0  0  0  0  0
   -0.8573    1.7276   -2.2118 C   0  0  0  0  0  0  0  0  0  0  0  0
    0.0265    1.0815   -2.1630 H   0  0  0  0  0  0  0  0  0  0  0  0
   -1.7407    1.0892   -2.3187 H   0  0  0  0  0  0  0  0  0  0  0  0
   -0.7530    2.6693   -3.4089 C   0  0  0  0  0  0  0  0  0  0  0  0
   -1.6331    3.3217   -3.4256 H   0  0  0  0  0  0  0  0  0  0  0  0
    0.1404    3.2944   -3.2962 H   0  0  0  0  0  0  0  0  0  0  0  0
   -0.6740    1.8924   -4.6594 N   0  3  0  0  0  0  0  0  0  0  0  0
   -0.6586    0.8768   -4.5750 H   0  0  0  0  0  0  0  0  0  0  0  0
   -0.6342    2.4352   -5.8422 C   0  0  0  0  0  0  0  0  0  0  0  0
   -0.6629    3.8007   -6.0148 N   0  0  0  0  0  0  0  0  0  0  0  0
   -0.8644    4.3836   -5.2047 H   0  0  0  0  0  0  0  0  0  0  0  0
   -0.8554    4.1779   -6.9407 H   0  0  0  0  0  0  0  0  0  0  0  0
   -0.5614    1.6321   -6.9555 N   0  0  0  0  0  0  0  0  0  0  0  0
   -0.3552    0.6427   -6.8321 H   0  0  0  0  0  0  0  0  0  0  0  0
   -0.3194    2.0608   -7.8471 H   0  0  0  0  0  0  0  0  0  0  0  0
   -0.9386    2.4665    1.6367 C   0  0  0  0  0  0  0  0  0  0  0  0
   -1.1009    3.6799    1.6510 O   0  0  0  0  0  0  0  0  0  0  0  0
   -0.6574    1.7926    2.8094 N   0  0  0  0  0  0  0  0  0  0  0  0
   -0.6048    0.7750    2.7579 H   0  0  0  0  0  0  0  0  0  0  0  0
   -0.5548    2.4434    4.1105 C   0  0  0  0  0  0  0  0  0  0  0  0
   -1.5101    2.9021    4.3870 H   0  0  0  0  0  0  0  0  0  0  0  0
   -0.2862    1.7122    4.8794 H   0  0  0  0  0  0  0  0  0  0  0  0
    0.2162    3.2211    4.0911 H   0  0  0  0  0  0  0  0  0  0  0  0
  1  2  1  0  0  0  0
  2  3  1  0  0  0  0
  2  4  1  0  0  0  0
  2  5  1  0  0  0  0
  5  6  2  0  0  0  0
  5  7  1  0  0  0  0
  7  8  1  0  0  0  0
  7  9  1  0  0  0  0
  9 10  1  0  0  0  0
  9 11  1  0  0  0  0
  9 29  1  0  0  0  0
 11 12  1  0  0  0  0
 11 13  1  0  0  0  0
 11 14  1  0  0  0  0
 14 15  1  0  0  0  0
 14 16  1  0  0  0  0
 14 17  1  0  0  0  0
 17 18  1  0  0  0  0
 17 19  1  0  0  0  0
 17 20  1  0  0  0  0
 20 21  1  0  0  0  0
 20 22  2  0  0  0  0
 22 23  1  0  0  0  0
 22 26  1  0  0  0  0
 23 24  1  0  0  0  0
 23 25  1  0  0  0  0
 26 27  1  0  0  0  0
 26 28  1  0  0  0  0
 29 30  2  0  0  0  0
 29 31  1  0  0  0  0
 31 32  1  0  0  0  0
 31 33  1  0  0  0  0
 33 34  1  0  0  0  0
 33 35  1  0  0  0  0
 33 36  1  0  0  0  0
M  CHG  1  20   1
M  END
$$$$

  -OEChem-02172215453D

 36 35  0     1  0  0  0  0  0999 V2000
   -3.7971   -1.9346    1.4381 H   0  0  0  0  0  0  0  0  0  0  0  0
   -3.8736   -0.9404    0.9883 C   0  0  0  0  0  0  0  0  0  0  0  0
   -4.4595   -0.2998    1.6521 H   0  0  0  0  0  0  0  0  0  0  0  0
   -4.3879   -1.0275    0.0284 H   0  0  0  0  0  0  0  0  0  0  0  0
   -2.4905   -0.3520    0.7867 C   0  0  0  0  0  0  0  0  0  0  0  0
   -1.4992   -0.9937    1.0962 O   0  0  0  0  0  0  0  0  0  0  0  0
   -2.3467    0.9265    0.2830 N   0  0  0  0  0  0  0  0  0  0  0  0
   -3.1951    1.4874    0.2428 H   0  0  0  0  0  0  0  0  0  0  0  0
   -1.0621    1.6449    0.3103 C   0  0  1  0  0  0  0  0  0  0  0  0
   -0.2217    0.9428    0.2811 H   0  0  0  0  0  0  0  0  0  0  0  0
   -0.9534    2.5456   -0.9340 C   0  0  0  0  0  0  0  0  0  0  0  0
   -1.8254    3.2075   -0.9829 H   0  0  0  0  0  0  0  0  0  0  0  0
   -0.0635    3.1778   -0.8381 H   0  0  0  0  0  0  0  0  0  0  0  0
   -0.8501    1.7271   -2.2269 C   0  0  0  0  0  0  0  0  0  0  0  0
    0.0324    1.0794   -2.1814 H   0  0  0  0  0  0  0  0  0  0  0  0
   -1.7347    1.0904   -2.3353 H   0  0  0  0  0  0  0  0  0  0  0  0
   -0.7447    2.6730   -3.4212 C   0  0  0  0  0  0  0  0  0  0  0  0
   -1.6237    3.3269   -3.4352 H   0  0  0  0  0  0  0  0  0  0  0  0
    0.1493    3.2966   -3.3079 H   0  0  0  0  0  0  0  0  0  0  0  0
   -0.6682    1.8996   -4.6739 N   0  3  0  0  0  0  0  0  0  0  0  0
   -0.6547    0.8837   -4.5925 H   0  0  0  0  0  0  0  0  0  0  0  0
   -0.6283    2.4459   -5.8550 C   0  0  0  0  0  0  0  0  0  0  0  0
   -0.6548    3.8119   -6.0242 N   0  0  0  0  0  0  0  0  0  0  0  0
   -0.8608    4.3907   -5.2124 H   0  0  0  0  0  0  0  0  0  0  0  0
   -0.8583    4.1886   -6.9478 H   0  0  0  0  0  0  0  0  0  0  0  0
   -0.5543    1.6463   -6.9705 N   0  0  0  0  0  0  0  0  0  0  0  0
   -0.3429    0.6576   -6.8498 H   0  0  0  0  0  0  0  0  0  0  0  0
   -0.3143    2.0787   -7.8608 H   0  0  0  0  0  0  0  0  0  0  0  0
   -0.9325    2.4525    1.6175 C   0  0  0  0  0  0  0  0  0  0  0  0
   -1.3457    3.6033    1.6800 O   0  0  0  0  0  0  0  0  0  0  0  0
   -0.3583    1.8610    2.7261 N   0  0  0  0  0  0  0  0  0  0  0  0
   -0.1528    0.8646    2.6638 H   0  0  0  0  0  0  0  0  0  0  0  0
   -0.2667    2.5174    4.0255 C   0  0  0  0  0  0  0  0  0  0  0  0
   -1.2660    2.7343    4.4175 H   0  0  0  0  0  0  0  0  0  0  0  0
    0.2533    1.8718    4.7400 H   0  0  0  0  0  0  0  0  0  0  0  0
    0.2903    3.4568    3.9432 H   0  0  0  0  0  0  0  0  0  0  0  0
  1  2  1  0  0  0  0
  2  3  1  0  0  0  0
  2  4  1  0  0  0  0
  2  5  1  0  0  0  0
  5  6  2  0  0  0  0
  5  7  1  0  0  0  0
  7  8  1  0  0  0  0
  7  9  1  0  0  0  0
  9 10  1  0  0  0  0
  9 11  1  0  0  0  0
  9 29  1  0  0  0  0
 11 12  1  0  0  0  0
 11 13  1  0  0  0  0
 11 14  1  0  0  0  0
 14 15  1  0  0  0  0
 14 16  1  0  0  0  0
 14 17  1  0  0  0  0
 17 18  1  0  0  0  0
 17 19  1  0  0  0  0
 17 20  1  0  0  0  0
 20 21  1  0  0  0  0
 20 22  2  0  0  0  0
 22 23  1  0  0  0  0
 22 26  1  0  0  0  0
 23 24  1  0  0  0  0
 23 25  1  0  0  0  0
 26 27  1  0  0  0  0
 26 28  1  0  0  0  0
 29 30  2  0  0  0  0
 29 31  1  0  0  0  0
 31 32  1  0  0  0  0
 31 33  1  0  0  0  0
 33 34  1  0  0  0  0
 33 35  1  0  0  0  0
 33 36  1  0  0  0  0
M  CHG  1  20   1
M  END
$$$$

  -OEChem-02172215453D

 36 35  0     1  0  0  0  0  0999 V2000
   -3.7822   -1.9266    1.4742 H   0  0  0  0  0  0  0  0  0  0  0  0
   -3.8614   -0.9287    1.0335 C   0  0  0  0  0  0  0  0  0  0  0  0
   -4.4062   -0.2824    1.7261 H   0  0  0  0  0  0  0  0  0  0  0  0
   -4.4192   -1.0011    0.0971 H   0  0  0  0  0  0  0  0  0  0  0  0
   -2.4791   -0.3617    0.7736 C   0  0  0  0  0  0  0  0  0  0  0  0
   -1.4866   -1.0271    1.0237 O   0  0  0  0  0  0  0  0  0  0  0  0
   -2.3377    0.9148    0.2637 N   0  0  0  0  0  0  0  0  0  0  0  0
   -3.1800    1.4871    0.2748 H   0  0  0  0  0  0  0  0  0  0  0  0
   -1.0516    1.6293    0.2955 C   0  0  1  0  0  0  0  0  0  0  0  0
   -0.2123    0.9259    0.2655 H   0  0  0  0  0  0  0  0  0  0  0  0
   -0.9426    2.5391   -0.9405 C   0  0  0  0  0  0  0  0  0  0  0  0
   -1.8132    3.2032   -0.9832 H   0  0  0  0  0  0  0  0  0  0  0  0
   -0.0514    3.1687   -0.8410 H   0  0  0  0  0  0  0  0  0  0  0  0
   -0.8441    1.7269   -2.2380 C   0  0  0  0  0  0  0  0  0  0  0  0
    0.0353    1.0750   -2.1979 H   0  0  0  0  0  0  0  0  0  0  0  0
   -1.7315    1.0942   -2.3482 H   0  0  0  0  0  0  0  0  0  0  0  0
   -0.7377    2.6772   -3.4280 C   0  0  0  0  0  0  0  0  0  0  0  0
   -1.6136    3.3351   -3.4378 H   0  0  0  0  0  0  0  0  0  0  0  0
    0.1595    3.2961   -3.3137 H   0  0  0  0  0  0  0  0  0  0  0  0
   -0.6665    1.9063   -4.6827 N   0  3  0  0  0  0  0  0  0  0  0  0
   -0.6582    0.8902   -4.6030 H   0  0  0  0  0  0  0  0  0  0  0  0
   -0.6267    2.4534   -5.8635 C   0  0  0  0  0  0  0  0  0  0  0  0
   -0.6479    3.8194   -6.0319 N   0  0  0  0  0  0  0  0  0  0  0  0
   -0.8414    4.4001   -5.2184 H   0  0  0  0  0  0  0  0  0  0  0  0
   -0.8533    4.1983   -6.9541 H   0  0  0  0  0  0  0  0  0  0  0  0
   -0.5626    1.6541   -6.9800 N   0  0  0  0  0  0  0  0  0  0  0  0
   -0.3676    0.6618   -6.8617 H   0  0  0  0  0  0  0  0  0  0  0  0
   -0.3226    2.0841   -7.8716 H   0  0  0  0  0  0  0  0  0  0  0  0
   -0.9284    2.4416    1.6001 C   0  0  0  0  0  0  0  0  0  0  0  0
   -1.5684    3.4769    1.7323 O   0  0  0  0  0  0  0  0  0  0  0  0
   -0.1041    2.0013    2.6176 N   0  0  0  0  0  0  0  0  0  0  0  0
    0.2804    1.0629    2.5268 H   0  0  0  0  0  0  0  0  0  0  0  0
   -0.0100    2.6710    3.9102 C   0  0  0  0  0  0  0  0  0  0  0  0
   -0.9776    2.6540    4.4229 H   0  0  0  0  0  0  0  0  0  0  0  0
    0.7271    2.1683    4.5438 H   0  0  0  0  0  0  0  0  0  0  0  0
    0.3019    3.7132    3.7822 H   0  0  0  0  0  0  0  0  0  0  0  0
  1  2  1  0  0  0  0
  2  3  1  0  0  0  0
  2  4  1  0  0  0  0
  2  5  1  0  0  0  0
  5  6  2  0  0  0  0
  5  7  1  0  0  0  0
  7  8  1  0  0  0  0
  7  9  1  0  0  0  0
  9 10  1  0  0  0  0
  9 11  1  0  0  0  0
  9 29  1  0  0  0  0
 11 12  1  0  0  0  0
 11 13  1  0  0  0  0
 11 14  1  0  0  0  0
 14 15  1  0  0  0  0
 14 16  1  0  0  0  0
 14 17  1  0  0  0  0
 17 18  1  0  0  0  0
 17 19  1  0  0  0  0
 17 20  1  0  0  0  0
 20 21  1  0  0  0  0
 20 22  2  0  0  0  0
 22 23  1  0  0  0  0
 22 26  1  0  0  0  0
 23 24  1  0  0  0  0
 23 25  1  0  0  0  0
 26 27  1  0  0  0  0
 26 28  1  0  0  0  0
 29 30  2  0  0  0  0
 29 31  1  0  0  0  0
 31 32  1  0  0  0  0
 31 33  1  0  0  0  0
 33 34  1  0  0  0  0
 33 35  1  0  0  0  0
 33 36  1  0  0  0  0
M  CHG  1  20   1
M  END
$$$$

  -OEChem-02172215453D

 36 35  0     1  0  0  0  0  0999 V2000
   -3.7723   -1.9105    1.5125 H   0  0  0  0  0  0  0  0  0  0  0  0
   -3.8533   -0.9132    1.0708 C   0  0  0  0  0  0  0  0  0  0  0  0
   -4.3587   -0.2551    1.7819 H   0  0  0  0  0  0  0  0  0  0  0  0
   -4.4495   -0.9790    0.1577 H   0  0  0  0  0  0  0  0  0  0  0  0
   -2.4737   -0.3700    0.7535 C   0  0  0  0  0  0  0  0  0  0  0  0
   -1.4835   -1.0565    0.9503 O   0  0  0  0  0  0  0  0  0  0  0  0
   -2.3336    0.9059    0.2427 N   0  0  0  0  0  0  0  0  0  0  0  0
   -3.1688    1.4857    0.3025 H   0  0  0  0  0  0  0  0  0  0  0  0
   -1.0471    1.6196    0.2822 C   0  0  1  0  0  0  0  0  0  0  0  0
   -0.2082    0.9158    0.2529 H   0  0  0  0  0  0  0  0  0  0  0  0
   -0.9385    2.5385   -0.9460 C   0  0  0  0  0  0  0  0  0  0  0  0
   -1.8091    3.2027   -0.9837 H   0  0  0  0  0  0  0  0  0  0  0  0
   -0.0474    3.1673   -0.8436 H   0  0  0  0  0  0  0  0  0  0  0  0
   -0.8401    1.7317   -2.2469 C   0  0  0  0  0  0  0  0  0  0  0  0
    0.0390    1.0789   -2.2085 H   0  0  0  0  0  0  0  0  0  0  0  0
   -1.7277    1.0996   -2.3585 H   0  0  0  0  0  0  0  0  0  0  0  0
   -0.7340    2.6830   -3.4360 C   0  0  0  0  0  0  0  0  0  0  0  0
   -1.6110    3.3398   -3.4458 H   0  0  0  0  0  0  0  0  0  0  0  0
    0.1632    3.3021   -3.3226 H   0  0  0  0  0  0  0  0  0  0  0  0
   -0.6634    1.9109   -4.6897 N   0  3  0  0  0  0  0  0  0  0  0  0
   -0.6595    0.8948   -4.6087 H   0  0  0  0  0  0  0  0  0  0  0  0
   -0.6241    2.4564   -5.8710 C   0  0  0  0  0  0  0  0  0  0  0  0
   -0.6454    3.8223   -6.0411 N   0  0  0  0  0  0  0  0  0  0  0  0
   -0.8495    4.4022   -5.2295 H   0  0  0  0  0  0  0  0  0  0  0  0
   -0.8500    4.1987   -6.9646 H   0  0  0  0  0  0  0  0  0  0  0  0
   -0.5611    1.6552   -6.9859 N   0  0  0  0  0  0  0  0  0  0  0  0
   -0.3658    0.6632   -6.8657 H   0  0  0  0  0  0  0  0  0  0  0  0
   -0.3201    2.0837   -7.8778 H   0  0  0  0  0  0  0  0  0  0  0  0
   -0.9318    2.4328    1.5864 C   0  0  0  0  0  0  0  0  0  0  0  0
   -1.7519    3.3132    1.8144 O   0  0  0  0  0  0  0  0  0  0  0  0
    0.0914    2.1895    2.4829 N   0  0  0  0  0  0  0  0  0  0  0  0
    0.6541    1.3558    2.3307 H   0  0  0  0  0  0  0  0  0  0  0  0
    0.1992    2.8761    3.7658 C   0  0  0  0  0  0  0  0  0  0  0  0
   -0.6703    2.6552    4.3938 H   0  0  0  0  0  0  0  0  0  0  0  0
    1.1007    2.5518    4.2950 H   0  0  0  0  0  0  0  0  0  0  0  0
    0.2590    3.9596    3.6177 H   0  0  0  0  0  0  0  0  0  0  0  0
  1  2  1  0  0  0  0
  2  3  1  0  0  0  0
  2  4  1  0  0  0  0
  2  5  1  0  0  0  0
  5  6  2  0  0  0  0
  5  7  1  0  0  0  0
  7  8  1  0  0  0  0
  7  9  1  0  0  0  0
  9 10  1  0  0  0  0
  9 11  1  0  0  0  0
  9 29  1  0  0  0  0
 11 12  1  0  0  0  0
 11 13  1  0  0  0  0
 11 14  1  0  0  0  0
 14 15  1  0  0  0  0
 14 16  1  0  0  0  0
 14 17  1  0  0  0  0
 17 18  1  0  0  0  0
 17 19  1  0  0  0  0
 17 20  1  0  0  0  0
 20 21  1  0  0  0  0
 20 22  2  0  0  0  0
 22 23  1  0  0  0  0
 22 26  1  0  0  0  0
 23 24  1  0  0  0  0
 23 25  1  0  0  0  0
 26 27  1  0  0  0  0
 26 28  1  0  0  0  0
 29 30  2  0  0  0  0
 29 31  1  0  0  0  0
 31 32  1  0  0  0  0
 31 33  1  0  0  0  0
 33 34  1  0  0  0  0
 33 35  1  0  0  0  0
 33 36  1  0  0  0  0
M  CHG  1  20   1
M  END
$$$$

  -OEChem-02172215453D

 36 35  0     1  0  0  0  0  0999 V2000
   -3.7579   -1.8972    1.5468 H   0  0  0  0  0  0  0  0  0  0  0  0
   -3.8464   -0.9055    1.0938 C   0  0  0  0  0  0  0  0  0  0  0  0
   -4.3313   -0.2363    1.8090 H   0  0  0  0  0  0  0  0  0  0  0  0
   -4.4660   -0.9807    0.1973 H   0  0  0  0  0  0  0  0  0  0  0  0
   -2.4732   -0.3729    0.7338 C   0  0  0  0  0  0  0  0  0  0  0  0
   -1.4853   -1.0754    0.8791 O   0  0  0  0  0  0  0  0  0  0  0  0
   -2.3393    0.9047    0.2257 N   0  0  0  0  0  0  0  0  0  0  0  0
   -3.1687    1.4871    0.3327 H   0  0  0  0  0  0  0  0  0  0  0  0
   -1.0537    1.6205    0.2740 C   0  0  1  0  0  0  0  0  0  0  0  0
   -0.2148    0.9168    0.2481 H   0  0  0  0  0  0  0  0  0  0  0  0
   -0.9450    2.5443   -0.9499 C   0  0  0  0  0  0  0  0  0  0  0  0
   -1.8181    3.2056   -0.9867 H   0  0  0  0  0  0  0  0  0  0  0  0
   -0.0559    3.1756   -0.8451 H   0  0  0  0  0  0  0  0  0  0  0  0
   -0.8418    1.7387   -2.2520 C   0  0  0  0  0  0  0  0  0  0  0  0
    0.0384    1.0876   -2.2120 H   0  0  0  0  0  0  0  0  0  0  0  0
   -1.7276    1.1040   -2.3654 H   0  0  0  0  0  0  0  0  0  0  0  0
   -0.7353    2.6889   -3.4422 C   0  0  0  0  0  0  0  0  0  0  0  0
   -1.6137    3.3439   -3.4555 H   0  0  0  0  0  0  0  0  0  0  0  0
    0.1605    3.3099   -3.3283 H   0  0  0  0  0  0  0  0  0  0  0  0
   -0.6604    1.9131   -4.6939 N   0  3  0  0  0  0  0  0  0  0  0  0
   -0.6577    0.8970   -4.6096 H   0  0  0  0  0  0  0  0  0  0  0  0
   -0.6195    2.4544   -5.8772 C   0  0  0  0  0  0  0  0  0  0  0  0
   -0.6431    3.8197   -6.0511 N   0  0  0  0  0  0  0  0  0  0  0  0
   -0.8491    4.4014   -5.2413 H   0  0  0  0  0  0  0  0  0  0  0  0
   -0.8471    4.1932   -6.9759 H   0  0  0  0  0  0  0  0  0  0  0  0
   -0.5521    1.6496   -6.9894 N   0  0  0  0  0  0  0  0  0  0  0  0
   -0.3566    0.6579   -6.8661 H   0  0  0  0  0  0  0  0  0  0  0  0
   -0.3121    2.0750   -7.8831 H   0  0  0  0  0  0  0  0  0  0  0  0
   -0.9415    2.4327    1.5798 C   0  0  0  0  0  0  0  0  0  0  0  0
   -1.8835    3.1360    1.9238 O   0  0  0  0  0  0  0  0  0  0  0  0
    0.2209    2.4189    2.3280 N   0  0  0  0  0  0  0  0  0  0  0  0
    0.9259    1.7285    2.0828 H   0  0  0  0  0  0  0  0  0  0  0  0
    0.3509    3.1223    3.6002 C   0  0  0  0  0  0  0  0  0  0  0  0
   -0.3680    2.7336    4.3295 H   0  0  0  0  0  0  0  0  0  0  0  0
    1.3595    2.9912    4.0047 H   0  0  0  0  0  0  0  0  0  0  0  0
    0.1709    4.1944    3.4670 H   0  0  0  0  0  0  0  0  0  0  0  0
  1  2  1  0  0  0  0
  2  3  1  0  0  0  0
  2  4  1  0  0  0  0
  2  5  1  0  0  0  0
  5  6  2  0  0  0  0
  5  7  1  0  0  0  0
  7  8  1  0  0  0  0
  7  9  1  0  0  0  0
  9 10  1  0  0  0  0
  9 11  1  0  0  0  0
  9 29  1  0  0  0  0
 11 12  1  0  0  0  0
 11 13  1  0  0  0  0
 11 14  1  0  0  0  0
 14 15  1  0  0  0  0
 14 16  1  0  0  0  0
 14 17  1  0  0  0  0
 17 18  1  0  0  0  0
 17 19  1  0  0  0  0
 17 20  1  0  0  0  0
 20 21  1  0  0  0  0
 20 22  2  0  0  0  0
 22 23  1  0  0  0  0
 22 26  1  0  0  0  0
 23 24  1  0  0  0  0
 23 25  1  0  0  0  0
 26 27  1  0  0  0  0
 26 28  1  0  0  0  0
 29 30  2  0  0  0  0
 29 31  1  0  0  0  0
 31 32  1  0  0  0  0
 31 33  1  0  0  0  0
 33 34  1  0  0  0  0
 33 35  1  0  0  0  0
 33 36  1  0  0  0  0
M  CHG  1  20   1
M  END
$$$$

  -OEChem-02172215453D

 36 35  0     1  0  0  0  0  0999 V2000
   -3.7451   -1.8984    1.5467 H   0  0  0  0  0  0  0  0  0  0  0  0
   -3.8378   -0.8925    1.1267 C   0  0  0  0  0  0  0  0  0  0  0  0
   -4.2690   -0.2351    1.8857 H   0  0  0  0  0  0  0  0  0  0  0  0
   -4.5069   -0.9307    0.2642 H   0  0  0  0  0  0  0  0  0  0  0  0
   -2.4754   -0.3747    0.7075 C   0  0  0  0  0  0  0  0  0  0  0  0
   -1.4923   -1.0931    0.7965 O   0  0  0  0  0  0  0  0  0  0  0  0
   -2.3471    0.9052    0.2037 N   0  0  0  0  0  0  0  0  0  0  0  0
   -3.1695    1.4871    0.3572 H   0  0  0  0  0  0  0  0  0  0  0  0
   -1.0619    1.6226    0.2645 C   0  0  1  0  0  0  0  0  0  0  0  0
   -0.2220    0.9200    0.2427 H   0  0  0  0  0  0  0  0  0  0  0  0
   -0.9532    2.5495   -0.9566 C   0  0  0  0  0  0  0  0  0  0  0  0
   -1.8286    3.2076   -0.9941 H   0  0  0  0  0  0  0  0  0  0  0  0
   -0.0662    3.1835   -0.8490 H   0  0  0  0  0  0  0  0  0  0  0  0
   -0.8428    1.7455   -2.2593 C   0  0  0  0  0  0  0  0  0  0  0  0
    0.0399    1.0982   -2.2164 H   0  0  0  0  0  0  0  0  0  0  0  0
   -1.7248    1.1062   -2.3755 H   0  0  0  0  0  0  0  0  0  0  0  0
   -0.7368    2.6945   -3.4503 C   0  0  0  0  0  0  0  0  0  0  0  0
   -1.6181    3.3453   -3.4673 H   0  0  0  0  0  0  0  0  0  0  0  0
    0.1559    3.3196   -3.3353 H   0  0  0  0  0  0  0  0  0  0  0  0
   -0.6551    1.9154   -4.6991 N   0  3  0  0  0  0  0  0  0  0  0  0
   -0.6436    0.8997   -4.6114 H   0  0  0  0  0  0  0  0  0  0  0  0
   -0.6133    2.4522   -5.8842 C   0  0  0  0  0  0  0  0  0  0  0  0
   -0.6426    3.8166   -6.0642 N   0  0  0  0  0  0  0  0  0  0  0  0
   -0.8626    4.3983   -5.2582 H   0  0  0  0  0  0  0  0  0  0  0  0
   -0.8514    4.1830   -6.9909 H   0  0  0  0  0  0  0  0  0  0  0  0
   -0.5360    1.6424   -6.9921 N   0  0  0  0  0  0  0  0  0  0  0  0
   -0.3361    0.6524   -6.8621 H   0  0  0  0  0  0  0  0  0  0  0  0
   -0.2925    2.0644   -7.8864 H   0  0  0  0  0  0  0  0  0  0  0  0
   -0.9540    2.4326    1.5733 C   0  0  0  0  0  0  0  0  0  0  0  0
   -1.9642    2.9421    2.0433 O   0  0  0  0  0  0  0  0  0  0  0  0
    0.2736    2.6702    2.1640 N   0  0  0  0  0  0  0  0  0  0  0  0
    1.0718    2.1482    1.8131 H   0  0  0  0  0  0  0  0  0  0  0  0
    0.4154    3.3918    3.4250 C   0  0  0  0  0  0  0  0  0  0  0  0
   -0.1085    2.8651    4.2300 H   0  0  0  0  0  0  0  0  0  0  0  0
    1.4720    3.4761    3.6979 H   0  0  0  0  0  0  0  0  0  0  0  0
    0.0014    4.4021    3.3390 H   0  0  0  0  0  0  0  0  0  0  0  0
  1  2  1  0  0  0  0
  2  3  1  0  0  0  0
  2  4  1  0  0  0  0
  2  5  1  0  0  0  0
  5  6  2  0  0  0  0
  5  7  1  0  0  0  0
  7  8  1  0  0  0  0
  7  9  1  0  0  0  0
  9 10  1  0  0  0  0
  9 11  1  0  0  0  0
  9 29  1  0  0  0  0
 11 12  1  0  0  0  0
 11 13  1  0  0  0  0
 11 14  1  0  0  0  0
 14 15  1  0  0  0  0
 14 16  1  0  0  0  0
 14 17  1  0  0  0  0
 17 18  1  0  0  0  0
 17 19  1  0  0  0  0
 17 20  1  0  0  0  0
 20 21  1  0  0  0  0
 20 22  2  0  0  0  0
 22 23  1  0  0  0  0
 22 26  1  0  0  0  0
 23 24  1  0  0  0  0
 23 25  1  0  0  0  0
 26 27  1  0  0  0  0
 26 28  1  0  0  0  0
 29 30  2  0  0  0  0
 29 31  1  0  0  0  0
 31 32  1  0  0  0  0
 31 33  1  0  0  0  0
 33 34  1  0  0  0  0
 33 35  1  0  0  0  0
 33 36  1  0  0  0  0
M  CHG  1  20   1
M  END
$$$$

  -OEChem-02172215453D

 36 35  0     1  0  0  0  0  0999 V2000
   -3.7165   -1.8764    1.5862 H   0  0  0  0  0  0  0  0  0  0  0  0
   -3.8270   -0.8880    1.1313 C   0  0  0  0  0  0  0  0  0  0  0  0
   -4.2561   -0.2089    1.8724 H   0  0  0  0  0  0  0  0  0  0  0  0
   -4.5064   -0.9649    0.2795 H   0  0  0  0  0  0  0  0  0  0  0  0
   -2.4771   -0.3697    0.6754 C   0  0  0  0  0  0  0  0  0  0  0  0
   -1.4973   -1.0976    0.7084 O   0  0  0  0  0  0  0  0  0  0  0  0
   -2.3607    0.9174    0.1874 N   0  0  0  0  0  0  0  0  0  0  0  0
   -3.1790    1.4920    0.3836 H   0  0  0  0  0  0  0  0  0  0  0  0
   -1.0765    1.6368    0.2615 C   0  0  1  0  0  0  0  0  0  0  0  0
   -0.2350    0.9362    0.2389 H   0  0  0  0  0  0  0  0  0  0  0  0
   -0.9678    2.5668   -0.9585 C   0  0  0  0  0  0  0  0  0  0  0  0
   -1.8469    3.2198   -0.9993 H   0  0  0  0  0  0  0  0  0  0  0  0
   -0.0842    3.2049   -0.8507 H   0  0  0  0  0  0  0  0  0  0  0  0
   -0.8493    1.7607   -2.2603 C   0  0  0  0  0  0  0  0  0  0  0  0
    0.0346    1.1151   -2.2122 H   0  0  0  0  0  0  0  0  0  0  0  0
   -1.7292    1.1185   -2.3784 H   0  0  0  0  0  0  0  0  0  0  0  0
   -0.7426    2.7031   -3.4566 C   0  0  0  0  0  0  0  0  0  0  0  0
   -1.6262    3.3504   -3.4819 H   0  0  0  0  0  0  0  0  0  0  0  0
    0.1475    3.3320   -3.3433 H   0  0  0  0  0  0  0  0  0  0  0  0
   -0.6535    1.9149   -4.6994 N   0  3  0  0  0  0  0  0  0  0  0  0
   -0.6389    0.8999   -4.6034 H   0  0  0  0  0  0  0  0  0  0  0  0
   -0.6094    2.4424   -5.8887 C   0  0  0  0  0  0  0  0  0  0  0  0
   -0.6427    3.8051   -6.0809 N   0  0  0  0  0  0  0  0  0  0  0  0
   -0.8704    4.3940   -5.2824 H   0  0  0  0  0  0  0  0  0  0  0  0
   -0.8417    4.1627   -7.0132 H   0  0  0  0  0  0  0  0  0  0  0  0
   -0.5254    1.6238   -6.9896 N   0  0  0  0  0  0  0  0  0  0  0  0
   -0.3227    0.6355   -6.8515 H   0  0  0  0  0  0  0  0  0  0  0  0
   -0.2831    2.0394   -7.8873 H   0  0  0  0  0  0  0  0  0  0  0  0
   -0.9665    2.4325    1.5816 C   0  0  0  0  0  0  0  0  0  0  0  0
   -1.9858    2.7286    2.1939 O   0  0  0  0  0  0  0  0  0  0  0  0
    0.2521    2.9261    2.0118 N   0  0  0  0  0  0  0  0  0  0  0  0
    1.0878    2.5911    1.5412 H   0  0  0  0  0  0  0  0  0  0  0  0
    0.4068    3.6678    3.2597 C   0  0  0  0  0  0  0  0  0  0  0  0
    0.1019    3.0519    4.1127 H   0  0  0  0  0  0  0  0  0  0  0  0
    1.4519    3.9604    3.4012 H   0  0  0  0  0  0  0  0  0  0  0  0
   -0.2052    4.5763    3.2460 H   0  0  0  0  0  0  0  0  0  0  0  0
  1  2  1  0  0  0  0
  2  3  1  0  0  0  0
  2  4  1  0  0  0  0
  2  5  1  0  0  0  0
  5  6  2  0  0  0  0
  5  7  1  0  0  0  0
  7  8  1  0  0  0  0
  7  9  1  0  0  0  0
  9 10  1  0  0  0  0
  9 11  1  0  0  0  0
  9 29  1  0  0  0  0
 11 12  1  0  0  0  0
 11 13  1  0  0  0  0
 11 14  1  0  0  0  0
 14 15  1  0  0  0  0
 14 16  1  0  0  0  0
 14 17  1  0  0  0  0
 17 18  1  0  0  0  0
 17 19  1  0  0  0  0
 17 20  1  0  0  0  0
 20 21  1  0  0  0  0
 20 22  2  0  0  0  0
 22 23  1  0  0  0  0
 22 26  1  0  0  0  0
 23 24  1  0  0  0  0
 23 25  1  0  0  0  0
 26 27  1  0  0  0  0
 26 28  1  0  0  0  0
 29 30  2  0  0  0  0
 29 31  1  0  0  0  0
 31 32  1  0  0  0  0
 31 33  1  0  0  0  0
 33 34  1  0  0  0  0
 33 35  1  0  0  0  0
 33 36  1  0  0  0  0
M  CHG  1  20   1
M  END
$$$$

  -OEChem-02172215453D

 36 35  0     1  0  0  0  0  0999 V2000
   -3.5995   -1.9743    1.5046 H   0  0  0  0  0  0  0  0  0  0  0  0
   -3.7415   -0.9469    1.1572 C   0  0  0  0  0  0  0  0  0  0  0  0
   -4.1008   -0.3418    1.9936 H   0  0  0  0  0  0  0  0  0  0  0  0
   -4.4907   -0.9432    0.3625 H   0  0  0  0  0  0  0  0  0  0  0  0
   -2.4304   -0.3849    0.6430 C   0  0  0  0  0  0  0  0  0  0  0  0
   -1.4278   -1.0820    0.6238 O   0  0  0  0  0  0  0  0  0  0  0  0
   -2.3708    0.9111    0.1641 N   0  0  0  0  0  0  0  0  0  0  0  0
   -3.2031    1.4481    0.3959 H   0  0  0  0  0  0  0  0  0  0  0  0
   -1.1028    1.6575    0.2614 C   0  0  1  0  0  0  0  0  0  0  0  0
   -0.2625    1.0151   -0.0247 H   0  0  0  0  0  0  0  0  0  0  0  0
   -1.1704    2.8388   -0.7238 C   0  0  0  0  0  0  0  0  0  0  0  0
   -2.0644    3.4374   -0.5154 H   0  0  0  0  0  0  0  0  0  0  0  0
   -0.2985    3.4857   -0.5805 H   0  0  0  0  0  0  0  0  0  0  0  0
   -1.1897    2.3482   -2.1794 C   0  0  0  0  0  0  0  0  0  0  0  0
   -0.2876    1.7590   -2.3787 H   0  0  0  0  0  0  0  0  0  0  0  0
   -2.0581    1.6998   -2.3407 H   0  0  0  0  0  0  0  0  0  0  0  0
   -1.2570    3.5373   -3.1351 C   0  0  0  0  0  0  0  0  0  0  0  0
   -2.1557    4.1238   -2.9136 H   0  0  0  0  0  0  0  0  0  0  0  0
   -0.3786    4.1736   -2.9811 H   0  0  0  0  0  0  0  0  0  0  0  0
   -1.2989    3.0533   -4.5273 N   0  3  0  0  0  0  0  0  0  0  0  0
   -1.2131    2.0474   -4.6703 H   0  0  0  0  0  0  0  0  0  0  0  0
   -1.4158    3.8351   -5.5619 C   0  0  0  0  0  0  0  0  0  0  0  0
   -1.5109    5.2023   -5.4315 N   0  0  0  0  0  0  0  0  0  0  0  0
   -1.3321    5.6108   -4.5164 H   0  0  0  0  0  0  0  0  0  0  0  0
   -1.3724    5.7857   -6.2543 H   0  0  0  0  0  0  0  0  0  0  0  0
   -1.4430    3.2903   -6.8237 N   0  0  0  0  0  0  0  0  0  0  0  0
   -1.5474    2.2821   -6.9216 H   0  0  0  0  0  0  0  0  0  0  0  0
   -1.7353    3.8784   -7.6023 H   0  0  0  0  0  0  0  0  0  0  0  0
   -0.8284    2.1374    1.7092 C   0  0  0  0  0  0  0  0  0  0  0  0
   -1.7081    2.0481    2.5576 O   0  0  0  0  0  0  0  0  0  0  0  0
    0.3162    2.8546    2.0112 N   0  0  0  0  0  0  0  0  0  0  0  0
    1.0662    2.8476    1.3269 H   0  0  0  0  0  0  0  0  0  0  0  0
    0.6111    3.3371    3.3571 C   0  0  0  0  0  0  0  0  0  0  0  0
    0.6728    2.4986    4.0595 H   0  0  0  0  0  0  0  0  0  0  0  0
    1.5668    3.8700    3.3697 H   0  0  0  0  0  0  0  0  0  0  0  0
   -0.1702    4.0245    3.6990 H   0  0  0  0  0  0  0  0  0  0  0  0
  1  2  1  0  0  0  0
  2  3  1  0  0  0  0
  2  4  1  0  0  0  0
  2  5  1  0  0  0  0
  5  6  2  0  0  0  0
  5  7  1  0  0  0  0
  7  8  1  0  0  0  0
  7  9  1  0  0  0  0
  9 10  1  0  0  0  0
  9 11  1  0  0  0  0
  9 29  1  0  0  0  0
 11 12  1  0  0  0  0
 11 13  1  0  0  0  0
 11 14  1  0  0  0  0
 14 15  1  0  0  0  0
 14 16  1  0  0  0  0
 14 17  1  0  0  0  0
 17 18  1  0  0  0  0
 17 19  1  0  0  0  0
 17 20  1  0  0  0  0
 20 21  1  0  0  0  0
 20 22  2  0  0  0  0
 22 23  1  0  0  0  0
 22 26  1  0  0  0  0
 23 24  1  0  0  0  0
 23 25  1  0  0  0  0
 26 27  1  0  0  0  0
 26 28  1  0  0  0  0
 29 30  2  0  0  0  0
 29 31  1  0  0  0  0
 31 32  1  0  0  0  0
 31 33  1  0  0  0  0
 33 34  1  0  0  0  0
 33 35  1  0  0  0  0
 33 36  1  0  0  0  0
M  CHG  1  20   1
M  END
$$$$

  -OEChem-02172215453D

 36 35  0     1  0  0  0  0  0999 V2000
   -3.5877   -1.9845    1.4266 H   0  0  0  0  0  0  0  0  0  0  0  0
   -3.7247   -0.9335    1.1574 C   0  0  0  0  0  0  0  0  0  0  0  0
   -4.0169   -0.3786    2.0528 H   0  0  0  0  0  0  0  0  0  0  0  0
   -4.5200   -0.8603    0.4124 H   0  0  0  0  0  0  0  0  0  0  0  0
   -2.4332   -0.3662    0.6022 C   0  0  0  0  0  0  0  0  0  0  0  0
   -1.4427   -1.0736    0.5028 O   0  0  0  0  0  0  0  0  0  0  0  0
   -2.3828    0.9421    0.1551 N   0  0  0  0  0  0  0  0  0  0  0  0
   -3.2126    1.4692    0.4152 H   0  0  0  0  0  0  0  0  0  0  0  0
   -1.1140    1.6879    0.2626 C   0  0  1  0  0  0  0  0  0  0  0  0
   -0.2748    1.0483   -0.0332 H   0  0  0  0  0  0  0  0  0  0  0  0
   -1.1827    2.8716   -0.7230 C   0  0  0  0  0  0  0  0  0  0  0  0
   -2.0787    3.4678   -0.5178 H   0  0  0  0  0  0  0  0  0  0  0  0
   -0.3125    3.5211   -0.5850 H   0  0  0  0  0  0  0  0  0  0  0  0
   -1.1964    2.3740   -2.1770 C   0  0  0  0  0  0  0  0  0  0  0  0
   -0.2939    1.7835   -2.3698 H   0  0  0  0  0  0  0  0  0  0  0  0
   -2.0631    1.7232   -2.3364 H   0  0  0  0  0  0  0  0  0  0  0  0
   -1.2641    3.5527   -3.1454 C   0  0  0  0  0  0  0  0  0  0  0  0
   -2.1642    4.1412   -2.9336 H   0  0  0  0  0  0  0  0  0  0  0  0
   -0.3861    4.1911   -2.9975 H   0  0  0  0  0  0  0  0  0  0  0  0
   -1.2998    3.0477   -4.5306 N   0  3  0  0  0  0  0  0  0  0  0  0
   -1.2129    2.0396   -4.6574 H   0  0  0  0  0  0  0  0  0  0  0  0
   -1.4156    3.8117   -5.5783 C   0  0  0  0  0  0  0  0  0  0  0  0
   -1.5154    5.1805   -5.4722 N   0  0  0  0  0  0  0  0  0  0  0  0
   -1.3353    5.6050   -4.5649 H   0  0  0  0  0  0  0  0  0  0  0  0
   -1.3760    5.7487   -6.3054 H   0  0  0  0  0  0  0  0  0  0  0  0
   -1.4385    3.2455   -6.8306 N   0  0  0  0  0  0  0  0  0  0  0  0
   -1.5382    2.2352   -6.9119 H   0  0  0  0  0  0  0  0  0  0  0  0
   -1.7315    3.8191   -7.6196 H   0  0  0  0  0  0  0  0  0  0  0  0
   -0.8252    2.1352    1.7221 C   0  0  0  0  0  0  0  0  0  0  0  0
   -1.5790    1.7997    2.6276 O   0  0  0  0  0  0  0  0  0  0  0  0
    0.1372    3.0923    1.9971 N   0  0  0  0  0  0  0  0  0  0  0  0
    0.8011    3.3136    1.2619 H   0  0  0  0  0  0  0  0  0  0  0  0
    0.4101    3.5782    3.3471 C   0  0  0  0  0  0  0  0  0  0  0  0
    0.7209    2.7533    3.9972 H   0  0  0  0  0  0  0  0  0  0  0  0
    1.2112    4.3236    3.3277 H   0  0  0  0  0  0  0  0  0  0  0  0
   -0.4829    4.0454    3.7762 H   0  0  0  0  0  0  0  0  0  0  0  0
  1  2  1  0  0  0  0
  2  3  1  0  0  0  0
  2  4  1  0  0  0  0
  2  5  1  0  0  0  0
  5  6  2  0  0  0  0
  5  7  1  0  0  0  0
  7  8  1  0  0  0  0
  7  9  1  0  0  0  0
  9 10  1  0  0  0  0
  9 11  1  0  0  0  0
  9 29  1  0  0  0  0
 11 12  1  0  0  0  0
 11 13  1  0  0  0  0
 11 14  1  0  0  0  0
 14 15  1  0  0  0  0
 14 16  1  0  0  0  0
 14 17  1  0  0  0  0
 17 18  1  0  0  0  0
 17 19  1  0  0  0  0
 17 20  1  0  0  0  0
 20 21  1  0  0  0  0
 20 22  2  0  0  0  0
 22 23  1  0  0  0  0
 22 26  1  0  0  0  0
 23 24  1  0  0  0  0
 23 25  1  0  0  0  0
 26 27  1  0  0  0  0
 26 28  1  0  0  0  0
 29 30  2  0  0  0  0
 29 31  1  0  0  0  0
 31 32  1  0  0  0  0
 31 33  1  0  0  0  0
 33 34  1  0  0  0  0
 33 35  1  0  0  0  0
 33 36  1  0  0  0  0
M  CHG  1  20   1
M  END
$$$$

  -OEChem-02172215453D

 36 35  0     1  0  0  0  0  0999 V2000
   -3.5472   -1.9616    1.4529 H   0  0  0  0  0  0  0  0  0  0  0  0
   -3.7070   -0.9185    1.1651 C   0  0  0  0  0  0  0  0  0  0  0  0
   -3.9865   -0.3499    2.0557 H   0  0  0  0  0  0  0  0  0  0  0  0
   -4.5203   -0.8728    0.4377 H   0  0  0  0  0  0  0  0  0  0  0  0
   -2.4372   -0.3433    0.5686 C   0  0  0  0  0  0  0  0  0  0  0  0
   -1.4624   -1.0568    0.3890 O   0  0  0  0  0  0  0  0  0  0  0  0
   -2.3976    0.9758    0.1517 N   0  0  0  0  0  0  0  0  0  0  0  0
   -3.2269    1.4911    0.4343 H   0  0  0  0  0  0  0  0  0  0  0  0
   -1.1312    1.7265    0.2617 C   0  0  1  0  0  0  0  0  0  0  0  0
   -0.2927    1.0891   -0.0414 H   0  0  0  0  0  0  0  0  0  0  0  0
   -1.1993    2.9084   -0.7278 C   0  0  0  0  0  0  0  0  0  0  0  0
   -2.0966    3.5045   -0.5289 H   0  0  0  0  0  0  0  0  0  0  0  0
   -0.3289    3.5582   -0.5936 H   0  0  0  0  0  0  0  0  0  0  0  0
   -1.2055    2.4007   -2.1790 C   0  0  0  0  0  0  0  0  0  0  0  0
   -0.2991    1.8128   -2.3627 H   0  0  0  0  0  0  0  0  0  0  0  0
   -2.0689    1.7447   -2.3367 H   0  0  0  0  0  0  0  0  0  0  0  0
   -1.2726    3.5682   -3.1611 C   0  0  0  0  0  0  0  0  0  0  0  0
   -2.1762    4.1550   -2.9615 H   0  0  0  0  0  0  0  0  0  0  0  0
   -0.3983    4.2125   -3.0168 H   0  0  0  0  0  0  0  0  0  0  0  0
   -1.3005    3.0427   -4.5391 N   0  3  0  0  0  0  0  0  0  0  0  0
   -1.2104    2.0329   -4.6495 H   0  0  0  0  0  0  0  0  0  0  0  0
   -1.4137    3.7880   -5.6005 C   0  0  0  0  0  0  0  0  0  0  0  0
   -1.5182    5.1581   -5.5196 N   0  0  0  0  0  0  0  0  0  0  0  0
   -1.3375    5.5989   -4.6203 H   0  0  0  0  0  0  0  0  0  0  0  0
   -1.3747    5.7105   -6.3629 H   0  0  0  0  0  0  0  0  0  0  0  0
   -1.4272    3.1993   -6.8427 N   0  0  0  0  0  0  0  0  0  0  0  0
   -1.5196    2.1871   -6.9060 H   0  0  0  0  0  0  0  0  0  0  0  0
   -1.7196    3.7564   -7.6436 H   0  0  0  0  0  0  0  0  0  0  0  0
   -0.8255    2.1445    1.7287 C   0  0  0  0  0  0  0  0  0  0  0  0
   -1.3803    1.5733    2.6585 O   0  0  0  0  0  0  0  0  0  0  0  0
   -0.1071    3.2932    2.0188 N   0  0  0  0  0  0  0  0  0  0  0  0
    0.3829    3.7492    1.2565 H   0  0  0  0  0  0  0  0  0  0  0  0
    0.1547    3.7448    3.3830 C   0  0  0  0  0  0  0  0  0  0  0  0
    0.6959    2.9758    3.9448 H   0  0  0  0  0  0  0  0  0  0  0  0
    0.7610    4.6556    3.3733 H   0  0  0  0  0  0  0  0  0  0  0  0
   -0.7845    3.9624    3.9026 H   0  0  0  0  0  0  0  0  0  0  0  0
  1  2  1  0  0  0  0
  2  3  1  0  0  0  0
  2  4  1  0  0  0  0
  2  5  1  0  0  0  0
  5  6  2  0  0  0  0
  5  7  1  0  0  0  0
  7  8  1  0  0  0  0
  7  9  1  0  0  0  0
  9 10  1  0  0  0  0
  9 11  1  0  0  0  0
  9 29  1  0  0  0  0
 11 12  1  0  0  0  0
 11 13  1  0  0  0  0
 11 14  1  0  0  0  0
 14 15  1  0  0  0  0
 14 16  1  0  0  0  0
 14 17  1  0  0  0  0
 17 18  1  0  0  0  0
 17 19  1  0  0  0  0
 17 20  1  0  0  0  0
 20 21  1  0  0  0  0
 20 22  2  0  0  0  0
 22 23  1  0  0  0  0
 22 26  1  0  0  0  0
 23 24  1  0  0  0  0
 23 25  1  0  0  0  0
 26 27  1  0  0  0  0
 26 28  1  0  0  0  0
 29 30  2  0  0  0  0
 29 31  1  0  0  0  0
 31 32  1  0  0  0  0
 31 33  1  0  0  0  0
 33 34  1  0  0  0  0
 33 35  1  0  0  0  0
 33 36  1  0  0  0  0
M  CHG  1  20   1
M  END
$$$$

  -OEChem-02172215453D

 36 35  0     1  0  0  0  0  0999 V2000
   -3.5496   -1.9784    1.3663 H   0  0  0  0  0  0  0  0  0  0  0  0
   -3.6946   -0.9128    1.1675 C   0  0  0  0  0  0  0  0  0  0  0  0
   -3.9117   -0.4083    2.1124 H   0  0  0  0  0  0  0  0  0  0  0  0
   -4.5428   -0.7917    0.4904 H   0  0  0  0  0  0  0  0  0  0  0  0
   -2.4410   -0.3243    0.5502 C   0  0  0  0  0  0  0  0  0  0  0  0
   -1.4794   -1.0376    0.3103 O   0  0  0  0  0  0  0  0  0  0  0  0
   -2.4128    1.0019    0.1551 N   0  0  0  0  0  0  0  0  0  0  0  0
   -3.2443    1.5080    0.4471 H   0  0  0  0  0  0  0  0  0  0  0  0
   -1.1506    1.7603    0.2612 C   0  0  1  0  0  0  0  0  0  0  0  0
   -0.3129    1.1246   -0.0477 H   0  0  0  0  0  0  0  0  0  0  0  0
   -1.2138    2.9399   -0.7305 C   0  0  0  0  0  0  0  0  0  0  0  0
   -2.1121    3.5370   -0.5403 H   0  0  0  0  0  0  0  0  0  0  0  0
   -0.3413    3.5867   -0.5944 H   0  0  0  0  0  0  0  0  0  0  0  0
   -1.2129    2.4211   -2.1780 C   0  0  0  0  0  0  0  0  0  0  0  0
   -0.3058    1.8312   -2.3517 H   0  0  0  0  0  0  0  0  0  0  0  0
   -2.0749    1.7632   -2.3341 H   0  0  0  0  0  0  0  0  0  0  0  0
   -1.2747    3.5777   -3.1725 C   0  0  0  0  0  0  0  0  0  0  0  0
   -2.1796    4.1667   -2.9853 H   0  0  0  0  0  0  0  0  0  0  0  0
   -0.4007    4.2234   -3.0317 H   0  0  0  0  0  0  0  0  0  0  0  0
   -1.2956    3.0341   -4.5433 N   0  3  0  0  0  0  0  0  0  0  0  0
   -1.2029    2.0231   -4.6402 H   0  0  0  0  0  0  0  0  0  0  0  0
   -1.4033    3.7651   -5.6149 C   0  0  0  0  0  0  0  0  0  0  0  0
   -1.5080    5.1360   -5.5524 N   0  0  0  0  0  0  0  0  0  0  0  0
   -1.3361    5.5878   -4.6569 H   0  0  0  0  0  0  0  0  0  0  0  0
   -1.3536    5.6771   -6.4009 H   0  0  0  0  0  0  0  0  0  0  0  0
   -1.4116    3.1588   -6.8485 N   0  0  0  0  0  0  0  0  0  0  0  0
   -1.5142    2.1467   -6.8974 H   0  0  0  0  0  0  0  0  0  0  0  0
   -1.6953    3.7068   -7.6587 H   0  0  0  0  0  0  0  0  0  0  0  0
   -0.8291    2.1579    1.7295 C   0  0  0  0  0  0  0  0  0  0  0  0
   -1.1235    1.4058    2.6476 O   0  0  0  0  0  0  0  0  0  0  0  0
   -0.3967    3.4323    2.0586 N   0  0  0  0  0  0  0  0  0  0  0  0
   -0.1511    4.0615    1.3021 H   0  0  0  0  0  0  0  0  0  0  0  0
   -0.1540    3.8629    3.4329 C   0  0  0  0  0  0  0  0  0  0  0  0
    0.6016    3.2268    3.9067 H   0  0  0  0  0  0  0  0  0  0  0  0
    0.2058    4.8963    3.4502 H   0  0  0  0  0  0  0  0  0  0  0  0
   -1.0763    3.8091    4.0215 H   0  0  0  0  0  0  0  0  0  0  0  0
  1  2  1  0  0  0  0
  2  3  1  0  0  0  0
  2  4  1  0  0  0  0
  2  5  1  0  0  0  0
  5  6  2  0  0  0  0
  5  7  1  0  0  0  0
  7  8  1  0  0  0  0
  7  9  1  0  0  0  0
  9 10  1  0  0  0  0
  9 11  1  0  0  0  0
  9 29  1  0  0  0  0
 11 12  1  0  0  0  0
 11 13  1  0  0  0  0
 11 14  1  0  0  0  0
 14 15  1  0  0  0  0
 14 16  1  0  0  0  0
 14 17  1  0  0  0  0
 17 18  1  0  0  0  0
 17 19  1  0  0  0  0
 17 20  1  0  0  0  0
 20 21  1  0  0  0  0
 20 22  2  0  0  0  0
 22 23  1  0  0  0  0
 22 26  1  0  0  0  0
 23 24  1  0  0  0  0
 23 25  1  0  0  0  0
 26 27  1  0  0  0  0
 26 28  1  0  0  0  0
 29 30  2  0  0  0  0
 29 31  1  0  0  0  0
 31 32  1  0  0  0  0
 31 33  1  0  0  0  0
 33 34  1  0  0  0  0
 33 35  1  0  0  0  0
 33 36  1  0  0  0  0
M  CHG  1  20   1
M  END
$$$$

  -OEChem-02172215453D

 36 35  0     1  0  0  0  0  0999 V2000
   -3.5287   -1.9669    1.4036 H   0  0  0  0  0  0  0  0  0  0  0  0
   -3.6933   -0.9110    1.1705 C   0  0  0  0  0  0  0  0  0  0  0  0
   -3.9357   -0.3844    2.0968 H   0  0  0  0  0  0  0  0  0  0  0  0
   -4.5335   -0.8289    0.4776 H   0  0  0  0  0  0  0  0  0  0  0  0
   -2.4435   -0.3153    0.5526 C   0  0  0  0  0  0  0  0  0  0  0  0
   -1.4890   -1.0286    0.2879 O   0  0  0  0  0  0  0  0  0  0  0  0
   -2.4217    1.0124    0.1625 N   0  0  0  0  0  0  0  0  0  0  0  0
   -3.2580    1.5150    0.4459 H   0  0  0  0  0  0  0  0  0  0  0  0
   -1.1634    1.7775    0.2604 C   0  0  1  0  0  0  0  0  0  0  0  0
   -0.3261    1.1411   -0.0491 H   0  0  0  0  0  0  0  0  0  0  0  0
   -1.2210    2.9557   -0.7314 C   0  0  0  0  0  0  0  0  0  0  0  0
   -2.1187    3.5551   -0.5461 H   0  0  0  0  0  0  0  0  0  0  0  0
   -0.3461    3.5989   -0.5888 H   0  0  0  0  0  0  0  0  0  0  0  0
   -1.2170    2.4323   -2.1771 C   0  0  0  0  0  0  0  0  0  0  0  0
   -0.3107    1.8395   -2.3454 H   0  0  0  0  0  0  0  0  0  0  0  0
   -2.0801    1.7754   -2.3327 H   0  0  0  0  0  0  0  0  0  0  0  0
   -1.2730    3.5836   -3.1779 C   0  0  0  0  0  0  0  0  0  0  0  0
   -2.1761    4.1770   -2.9967 H   0  0  0  0  0  0  0  0  0  0  0  0
   -0.3972    4.2269   -3.0391 H   0  0  0  0  0  0  0  0  0  0  0  0
   -1.2910    3.0315   -4.5452 N   0  3  0  0  0  0  0  0  0  0  0  0
   -1.1968    2.0200   -4.6355 H   0  0  0  0  0  0  0  0  0  0  0  0
   -1.3937    3.7564   -5.6214 C   0  0  0  0  0  0  0  0  0  0  0  0
   -1.4953    5.1278   -5.5662 N   0  0  0  0  0  0  0  0  0  0  0  0
   -1.3149    5.5837   -4.6744 H   0  0  0  0  0  0  0  0  0  0  0  0
   -1.3436    5.6637   -6.4186 H   0  0  0  0  0  0  0  0  0  0  0  0
   -1.4006    3.1441   -6.8520 N   0  0  0  0  0  0  0  0  0  0  0  0
   -1.5034    2.1318   -6.8965 H   0  0  0  0  0  0  0  0  0  0  0  0
   -1.6792    3.6886   -7.6664 H   0  0  0  0  0  0  0  0  0  0  0  0
   -0.8348    2.1707    1.7255 C   0  0  0  0  0  0  0  0  0  0  0  0
   -0.8372    1.3205    2.6026 O   0  0  0  0  0  0  0  0  0  0  0  0
   -0.7085    3.4963    2.1084 N   0  0  0  0  0  0  0  0  0  0  0  0
   -0.7449    4.2075    1.3862 H   0  0  0  0  0  0  0  0  0  0  0  0
   -0.4889    3.9111    3.4916 C   0  0  0  0  0  0  0  0  0  0  0  0
    0.4330    3.4678    3.8832 H   0  0  0  0  0  0  0  0  0  0  0  0
   -0.4013    5.0003    3.5541 H   0  0  0  0  0  0  0  0  0  0  0  0
   -1.3253    3.5955    4.1248 H   0  0  0  0  0  0  0  0  0  0  0  0
  1  2  1  0  0  0  0
  2  3  1  0  0  0  0
  2  4  1  0  0  0  0
  2  5  1  0  0  0  0
  5  6  2  0  0  0  0
  5  7  1  0  0  0  0
  7  8  1  0  0  0  0
  7  9  1  0  0  0  0
  9 10  1  0  0  0  0
  9 11  1  0  0  0  0
  9 29  1  0  0  0  0
 11 12  1  0  0  0  0
 11 13  1  0  0  0  0
 11 14  1  0  0  0  0
 14 15  1  0  0  0  0
 14 16  1  0  0  0  0
 14 17  1  0  0  0  0
 17 18  1  0  0  0  0
 17 19  1  0  0  0  0
 17 20  1  0  0  0  0
 20 21  1  0  0  0  0
 20 22  2  0  0  0  0
 22 23  1  0  0  0  0
 22 26  1  0  0  0  0
 23 24  1  0  0  0  0
 23 25  1  0  0  0  0
 26 27  1  0  0  0  0
 26 28  1  0  0  0  0
 29 30  2  0  0  0  0
 29 31  1  0  0  0  0
 31 32  1  0  0  0  0
 31 33  1  0  0  0  0
 33 34  1  0  0  0  0
 33 35  1  0  0  0  0
 33 36  1  0  0  0  0
M  CHG  1  20   1
M  END
$$$$

  -OEChem-02172215453D

 36 35  0     1  0  0  0  0  0999 V2000
   -3.5509   -1.9809    1.3792 H   0  0  0  0  0  0  0  0  0  0  0  0
   -3.7103   -0.9224    1.1547 C   0  0  0  0  0  0  0  0  0  0  0  0
   -3.9775   -0.4066    2.0803 H   0  0  0  0  0  0  0  0  0  0  0  0
   -4.5323   -0.8331    0.4411 H   0  0  0  0  0  0  0  0  0  0  0  0
   -2.4459   -0.3188    0.5751 C   0  0  0  0  0  0  0  0  0  0  0  0
   -1.4794   -1.0262    0.3463 O   0  0  0  0  0  0  0  0  0  0  0  0
   -2.4263    1.0066    0.1777 N   0  0  0  0  0  0  0  0  0  0  0  0
   -3.2739    1.5068    0.4301 H   0  0  0  0  0  0  0  0  0  0  0  0
   -1.1745    1.7826    0.2665 C   0  0  1  0  0  0  0  0  0  0  0  0
   -0.3344    1.1485   -0.0412 H   0  0  0  0  0  0  0  0  0  0  0  0
   -1.2291    2.9583   -0.7272 C   0  0  0  0  0  0  0  0  0  0  0  0
   -2.1292    3.5564   -0.5492 H   0  0  0  0  0  0  0  0  0  0  0  0
   -0.3568    3.6038   -0.5763 H   0  0  0  0  0  0  0  0  0  0  0  0
   -1.2194    2.4327   -2.1719 C   0  0  0  0  0  0  0  0  0  0  0  0
   -0.3115    1.8408   -2.3363 H   0  0  0  0  0  0  0  0  0  0  0  0
   -2.0811    1.7746   -2.3295 H   0  0  0  0  0  0  0  0  0  0  0  0
   -1.2722    3.5834   -3.1735 C   0  0  0  0  0  0  0  0  0  0  0  0
   -2.1764    4.1761   -2.9958 H   0  0  0  0  0  0  0  0  0  0  0  0
   -0.3969    4.2271   -3.0308 H   0  0  0  0  0  0  0  0  0  0  0  0
   -1.2847    3.0318   -4.5411 N   0  3  0  0  0  0  0  0  0  0  0  0
   -1.1874    2.0205   -4.6317 H   0  0  0  0  0  0  0  0  0  0  0  0
   -1.3836    3.7576   -5.6172 C   0  0  0  0  0  0  0  0  0  0  0  0
   -1.4859    5.1290   -5.5614 N   0  0  0  0  0  0  0  0  0  0  0  0
   -1.3011    5.5836   -4.6699 H   0  0  0  0  0  0  0  0  0  0  0  0
   -1.3303    5.6646   -6.4131 H   0  0  0  0  0  0  0  0  0  0  0  0
   -1.3864    3.1461   -6.8481 N   0  0  0  0  0  0  0  0  0  0  0  0
   -1.4874    2.1338   -6.8942 H   0  0  0  0  0  0  0  0  0  0  0  0
   -1.6590    3.6913   -7.6639 H   0  0  0  0  0  0  0  0  0  0  0  0
   -0.8455    2.1877    1.7249 C   0  0  0  0  0  0  0  0  0  0  0  0
   -0.5343    1.3365    2.5420 O   0  0  0  0  0  0  0  0  0  0  0  0
   -1.0300    3.4874    2.1670 N   0  0  0  0  0  0  0  0  0  0  0  0
   -1.3330    4.1822    1.4930 H   0  0  0  0  0  0  0  0  0  0  0  0
   -0.8163    3.8969    3.5524 C   0  0  0  0  0  0  0  0  0  0  0  0
    0.2156    3.6935    3.8584 H   0  0  0  0  0  0  0  0  0  0  0  0
   -1.0044    4.9689    3.6663 H   0  0  0  0  0  0  0  0  0  0  0  0
   -1.4931    3.3548    4.2217 H   0  0  0  0  0  0  0  0  0  0  0  0
  1  2  1  0  0  0  0
  2  3  1  0  0  0  0
  2  4  1  0  0  0  0
  2  5  1  0  0  0  0
  5  6  2  0  0  0  0
  5  7  1  0  0  0  0
  7  8  1  0  0  0  0
  7  9  1  0  0  0  0
  9 10  1  0  0  0  0
  9 11  1  0  0  0  0
  9 29  1  0  0  0  0
 11 12  1  0  0  0  0
 11 13  1  0  0  0  0
 11 14  1  0  0  0  0
 14 15  1  0  0  0  0
 14 16  1  0  0  0  0
 14 17  1  0  0  0  0
 17 18  1  0  0  0  0
 17 19  1  0  0  0  0
 17 20  1  0  0  0  0
 20 21  1  0  0  0  0
 20 22  2  0  0  0  0
 22 23  1  0  0  0  0
 22 26  1  0  0  0  0
 23 24  1  0  0  0  0
 23 25  1  0  0  0  0
 26 27  1  0  0  0  0
 26 28  1  0  0  0  0
 29 30  2  0  0  0  0
 29 31  1  0  0  0  0
 31 32  1  0  0  0  0
 31 33  1  0  0  0  0
 33 34  1  0  0  0  0
 33 35  1  0  0  0  0
 33 36  1  0  0  0  0
M  CHG  1  20   1
M  END
$$$$

  -OEChem-02172215453D

 36 35  0     1  0  0  0  0  0999 V2000
   -3.5934   -1.9943    1.3873 H   0  0  0  0  0  0  0  0  0  0  0  0
   -3.7603   -0.9539    1.0932 C   0  0  0  0  0  0  0  0  0  0  0  0
   -4.1383   -0.4043    1.9585 H   0  0  0  0  0  0  0  0  0  0  0  0
   -4.5061   -0.9297    0.2955 H   0  0  0  0  0  0  0  0  0  0  0  0
   -2.4612   -0.3352    0.6136 C   0  0  0  0  0  0  0  0  0  0  0  0
   -1.4672   -1.0288    0.4905 O   0  0  0  0  0  0  0  0  0  0  0  0
   -2.4320    0.9860    0.2024 N   0  0  0  0  0  0  0  0  0  0  0  0
   -3.2960    1.4868    0.3871 H   0  0  0  0  0  0  0  0  0  0  0  0
   -1.1865    1.7735    0.2826 C   0  0  1  0  0  0  0  0  0  0  0  0
   -0.3439    1.1403   -0.0211 H   0  0  0  0  0  0  0  0  0  0  0  0
   -1.2389    2.9464   -0.7129 C   0  0  0  0  0  0  0  0  0  0  0  0
   -2.1402    3.5435   -0.5395 H   0  0  0  0  0  0  0  0  0  0  0  0
   -0.3683    3.5934   -0.5549 H   0  0  0  0  0  0  0  0  0  0  0  0
   -1.2232    2.4233   -2.1576 C   0  0  0  0  0  0  0  0  0  0  0  0
   -0.3128    1.8349   -2.3196 H   0  0  0  0  0  0  0  0  0  0  0  0
   -2.0824    1.7632   -2.3198 H   0  0  0  0  0  0  0  0  0  0  0  0
   -1.2738    3.5782   -3.1548 C   0  0  0  0  0  0  0  0  0  0  0  0
   -2.1789    4.1697   -2.9776 H   0  0  0  0  0  0  0  0  0  0  0  0
   -0.3997    4.2218   -3.0058 H   0  0  0  0  0  0  0  0  0  0  0  0
   -1.2808    3.0344   -4.5257 N   0  3  0  0  0  0  0  0  0  0  0  0
   -1.1789    2.0241   -4.6216 H   0  0  0  0  0  0  0  0  0  0  0  0
   -1.3768    3.7663   -5.5981 C   0  0  0  0  0  0  0  0  0  0  0  0
   -1.4810    5.1373   -5.5357 N   0  0  0  0  0  0  0  0  0  0  0  0
   -1.2970    5.5868   -4.6414 H   0  0  0  0  0  0  0  0  0  0  0  0
   -1.3188    5.6767   -6.3839 H   0  0  0  0  0  0  0  0  0  0  0  0
   -1.3722    3.1627   -6.8330 N   0  0  0  0  0  0  0  0  0  0  0  0
   -1.4670    2.1501   -6.8865 H   0  0  0  0  0  0  0  0  0  0  0  0
   -1.6440    3.7122   -7.6462 H   0  0  0  0  0  0  0  0  0  0  0  0
   -0.8595    2.2024    1.7321 C   0  0  0  0  0  0  0  0  0  0  0  0
   -0.2023    1.4736    2.4566 O   0  0  0  0  0  0  0  0  0  0  0  0
   -1.3322    3.3997    2.2432 N   0  0  0  0  0  0  0  0  0  0  0  0
   -1.8941    3.9889    1.6384 H   0  0  0  0  0  0  0  0  0  0  0  0
   -1.0863    3.8307    3.6164 C   0  0  0  0  0  0  0  0  0  0  0  0
   -0.0116    3.9422    3.7970 H   0  0  0  0  0  0  0  0  0  0  0  0
   -1.5699    4.7937    3.8066 H   0  0  0  0  0  0  0  0  0  0  0  0
   -1.4859    3.0981    4.3263 H   0  0  0  0  0  0  0  0  0  0  0  0
  1  2  1  0  0  0  0
  2  3  1  0  0  0  0
  2  4  1  0  0  0  0
  2  5  1  0  0  0  0
  5  6  2  0  0  0  0
  5  7  1  0  0  0  0
  7  8  1  0  0  0  0
  7  9  1  0  0  0  0
  9 10  1  0  0  0  0
  9 11  1  0  0  0  0
  9 29  1  0  0  0  0
 11 12  1  0  0  0  0
 11 13  1  0  0  0  0
 11 14  1  0  0  0  0
 14 15  1  0  0  0  0
 14 16  1  0  0  0  0
 14 17  1  0  0  0  0
 17 18  1  0  0  0  0
 17 19  1  0  0  0  0
 17 20  1  0  0  0  0
 20 21  1  0  0  0  0
 20 22  2  0  0  0  0
 22 23  1  0  0  0  0
 22 26  1  0  0  0  0
 23 24  1  0  0  0  0
 23 25  1  0  0  0  0
 26 27  1  0  0  0  0
 26 28  1  0  0  0  0
 29 30  2  0  0  0  0
 29 31  1  0  0  0  0
 31 32  1  0  0  0  0
 31 33  1  0  0  0  0
 33 34  1  0  0  0  0
 33 35  1  0  0  0  0
 33 36  1  0  0  0  0
M  CHG  1  20   1
M  END
$$$$

  -OEChem-02172215453D

 36 35  0     1  0  0  0  0  0999 V2000
   -3.6700   -2.0305    1.3584 H   0  0  0  0  0  0  0  0  0  0  0  0
   -3.8245   -1.0110    0.9926 C   0  0  0  0  0  0  0  0  0  0  0  0
   -4.3370   -0.4369    1.7678 H   0  0  0  0  0  0  0  0  0  0  0  0
   -4.4515   -1.0500    0.0990 H   0  0  0  0  0  0  0  0  0  0  0  0
   -2.4901   -0.3676    0.6661 C   0  0  0  0  0  0  0  0  0  0  0  0
   -1.4692   -1.0287    0.7202 O   0  0  0  0  0  0  0  0  0  0  0  0
   -2.4429    0.9476    0.2381 N   0  0  0  0  0  0  0  0  0  0  0  0
   -3.3248    1.4461    0.3044 H   0  0  0  0  0  0  0  0  0  0  0  0
   -1.2032    1.7453    0.3088 C   0  0  1  0  0  0  0  0  0  0  0  0
   -0.3622    1.1074    0.0091 H   0  0  0  0  0  0  0  0  0  0  0  0
   -1.2535    2.9127   -0.6920 C   0  0  0  0  0  0  0  0  0  0  0  0
   -2.1539    3.5120   -0.5211 H   0  0  0  0  0  0  0  0  0  0  0  0
   -0.3838    3.5602   -0.5317 H   0  0  0  0  0  0  0  0  0  0  0  0
   -1.2324    2.3917   -2.1368 C   0  0  0  0  0  0  0  0  0  0  0  0
   -0.3205    1.8057   -2.2983 H   0  0  0  0  0  0  0  0  0  0  0  0
   -2.0909    1.7322   -2.3038 H   0  0  0  0  0  0  0  0  0  0  0  0
   -1.2812    3.5549   -3.1249 C   0  0  0  0  0  0  0  0  0  0  0  0
   -2.1871    4.1433   -2.9429 H   0  0  0  0  0  0  0  0  0  0  0  0
   -0.4089    4.1983   -2.9649 H   0  0  0  0  0  0  0  0  0  0  0  0
   -1.2831    3.0322   -4.5041 N   0  3  0  0  0  0  0  0  0  0  0  0
   -1.1714    2.0249   -4.6177 H   0  0  0  0  0  0  0  0  0  0  0  0
   -1.3765    3.7833   -5.5635 C   0  0  0  0  0  0  0  0  0  0  0  0
   -1.4826    5.1528   -5.4754 N   0  0  0  0  0  0  0  0  0  0  0  0
   -1.3090    5.5845   -4.5702 H   0  0  0  0  0  0  0  0  0  0  0  0
   -1.3066    5.7085   -6.3103 H   0  0  0  0  0  0  0  0  0  0  0  0
   -1.3592    3.2035   -6.8097 N   0  0  0  0  0  0  0  0  0  0  0  0
   -1.4395    2.1911   -6.8845 H   0  0  0  0  0  0  0  0  0  0  0  0
   -1.6254    3.7666   -7.6158 H   0  0  0  0  0  0  0  0  0  0  0  0
   -0.8672    2.2093    1.7440 C   0  0  0  0  0  0  0  0  0  0  0  0
    0.1055    1.7543    2.3234 O   0  0  0  0  0  0  0  0  0  0  0  0
   -1.5776    3.2395    2.3372 N   0  0  0  0  0  0  0  0  0  0  0  0
   -2.3830    3.6087    1.8440 H   0  0  0  0  0  0  0  0  0  0  0  0
   -1.2783    3.7441    3.6744 C   0  0  0  0  0  0  0  0  0  0  0  0
   -0.2664    4.1618    3.7098 H   0  0  0  0  0  0  0  0  0  0  0  0
   -1.9858    4.5313    3.9527 H   0  0  0  0  0  0  0  0  0  0  0  0
   -1.3506    2.9388    4.4136 H   0  0  0  0  0  0  0  0  0  0  0  0
  1  2  1  0  0  0  0
  2  3  1  0  0  0  0
  2  4  1  0  0  0  0
  2  5  1  0  0  0  0
  5  6  2  0  0  0  0
  5  7  1  0  0  0  0
  7  8  1  0  0  0  0
  7  9  1  0  0  0  0
  9 10  1  0  0  0  0
  9 11  1  0  0  0  0
  9 29  1  0  0  0  0
 11 12  1  0  0  0  0
 11 13  1  0  0  0  0
 11 14  1  0  0  0  0
 14 15  1  0  0  0  0
 14 16  1  0  0  0  0
 14 17  1  0  0  0  0
 17 18  1  0  0  0  0
 17 19  1  0  0  0  0
 17 20  1  0  0  0  0
 20 21  1  0  0  0  0
 20 22  2  0  0  0  0
 22 23  1  0  0  0  0
 22 26  1  0  0  0  0
 23 24  1  0  0  0  0
 23 25  1  0  0  0  0
 26 27  1  0  0  0  0
 26 28  1  0  0  0  0
 29 30  2  0  0  0  0
 29 31  1  0  0  0  0
 31 32  1  0  0  0  0
 31 33  1  0  0  0  0
 33 34  1  0  0  0  0
 33 35  1  0  0  0  0
 33 36  1  0  0  0  0
M  CHG  1  20   1
M  END
$$$$

  -OEChem-02172215453D

 36 35  0     1  0  0  0  0  0999 V2000
   -3.7283   -2.0679    1.3118 H   0  0  0  0  0  0  0  0  0  0  0  0
   -3.8635   -1.0646    0.8969 C   0  0  0  0  0  0  0  0  0  0  0  0
   -4.4865   -0.4848    1.5822 H   0  0  0  0  0  0  0  0  0  0  0  0
   -4.3705   -1.1491   -0.0670 H   0  0  0  0  0  0  0  0  0  0  0  0
   -2.5158   -0.3917    0.7196 C   0  0  0  0  0  0  0  0  0  0  0  0
   -1.4934   -1.0130    0.9436 O   0  0  0  0  0  0  0  0  0  0  0  0
   -2.4480    0.9150    0.2708 N   0  0  0  0  0  0  0  0  0  0  0  0
   -3.3347    1.4019    0.1876 H   0  0  0  0  0  0  0  0  0  0  0  0
   -1.2080    1.7137    0.3302 C   0  0  1  0  0  0  0  0  0  0  0  0
   -0.3700    1.0690    0.0367 H   0  0  0  0  0  0  0  0  0  0  0  0
   -1.2536    2.8770   -0.6730 C   0  0  0  0  0  0  0  0  0  0  0  0
   -2.1494    3.4815   -0.4973 H   0  0  0  0  0  0  0  0  0  0  0  0
   -0.3801    3.5195   -0.5127 H   0  0  0  0  0  0  0  0  0  0  0  0
   -1.2370    2.3626   -2.1192 C   0  0  0  0  0  0  0  0  0  0  0  0
   -0.3280    1.7734   -2.2864 H   0  0  0  0  0  0  0  0  0  0  0  0
   -2.0992    1.7093   -2.2902 H   0  0  0  0  0  0  0  0  0  0  0  0
   -1.2814    3.5371   -3.0940 C   0  0  0  0  0  0  0  0  0  0  0  0
   -2.1833    4.1294   -2.9035 H   0  0  0  0  0  0  0  0  0  0  0  0
   -0.4048    4.1735   -2.9275 H   0  0  0  0  0  0  0  0  0  0  0  0
   -1.2884    3.0328   -4.4798 N   0  3  0  0  0  0  0  0  0  0  0  0
   -1.1824    2.0268   -4.6071 H   0  0  0  0  0  0  0  0  0  0  0  0
   -1.3799    3.7996   -5.5280 C   0  0  0  0  0  0  0  0  0  0  0  0
   -1.4787    5.1683   -5.4197 N   0  0  0  0  0  0  0  0  0  0  0  0
   -1.2978    5.5868   -4.5095 H   0  0  0  0  0  0  0  0  0  0  0  0
   -1.3092    5.7358   -6.2479 H   0  0  0  0  0  0  0  0  0  0  0  0
   -1.3726    3.2381   -6.7826 N   0  0  0  0  0  0  0  0  0  0  0  0
   -1.4641    2.2277   -6.8721 H   0  0  0  0  0  0  0  0  0  0  0  0
   -1.6395    3.8157   -7.5779 H   0  0  0  0  0  0  0  0  0  0  0  0
   -0.8627    2.2111    1.7502 C   0  0  0  0  0  0  0  0  0  0  0  0
    0.2774    2.0861    2.1698 O   0  0  0  0  0  0  0  0  0  0  0  0
   -1.7428    3.0268    2.4413 N   0  0  0  0  0  0  0  0  0  0  0  0
   -2.6903    3.1025    2.0884 H   0  0  0  0  0  0  0  0  0  0  0  0
   -1.4345    3.5921    3.7514 C   0  0  0  0  0  0  0  0  0  0  0  0
   -0.5455    4.2297    3.6953 H   0  0  0  0  0  0  0  0  0  0  0  0
   -2.2709    4.1997    4.1106 H   0  0  0  0  0  0  0  0  0  0  0  0
   -1.2481    2.7945    4.4787 H   0  0  0  0  0  0  0  0  0  0  0  0
  1  2  1  0  0  0  0
  2  3  1  0  0  0  0
  2  4  1  0  0  0  0
  2  5  1  0  0  0  0
  5  6  2  0  0  0  0
  5  7  1  0  0  0  0
  7  8  1  0  0  0  0
  7  9  1  0  0  0  0
  9 10  1  0  0  0  0
  9 11  1  0  0  0  0
  9 29  1  0  0  0  0
 11 12  1  0  0  0  0
 11 13  1  0  0  0  0
 11 14  1  0  0  0  0
 14 15  1  0  0  0  0
 14 16  1  0  0  0  0
 14 17  1  0  0  0  0
 17 18  1  0  0  0  0
 17 19  1  0  0  0  0
 17 20  1  0  0  0  0
 20 21  1  0  0  0  0
 20 22  2  0  0  0  0
 22 23  1  0  0  0  0
 22 26  1  0  0  0  0
 23 24  1  0  0  0  0
 23 25  1  0  0  0  0
 26 27  1  0  0  0  0
 26 28  1  0  0  0  0
 29 30  2  0  0  0  0
 29 31  1  0  0  0  0
 31 32  1  0  0  0  0
 31 33  1  0  0  0  0
 33 34  1  0  0  0  0
 33 35  1  0  0  0  0
 33 36  1  0  0  0  0
M  CHG  1  20   1
M  END
$$$$

  -OEChem-02172215453D

 36 35  0     1  0  0  0  0  0999 V2000
   -3.7525   -2.0949    1.2469 H   0  0  0  0  0  0  0  0  0  0  0  0
   -3.8792   -1.0803    0.8573 C   0  0  0  0  0  0  0  0  0  0  0  0
   -4.5271   -0.5236    1.5385 H   0  0  0  0  0  0  0  0  0  0  0  0
   -4.3543   -1.1387   -0.1247 H   0  0  0  0  0  0  0  0  0  0  0  0
   -2.5307   -0.3953    0.7446 C   0  0  0  0  0  0  0  0  0  0  0  0
   -1.5166   -0.9934    1.0527 O   0  0  0  0  0  0  0  0  0  0  0  0
   -2.4502    0.9062    0.2839 N   0  0  0  0  0  0  0  0  0  0  0  0
   -3.3298    1.3834    0.1123 H   0  0  0  0  0  0  0  0  0  0  0  0
   -1.2085    1.7025    0.3398 C   0  0  1  0  0  0  0  0  0  0  0  0
   -0.3715    1.0534    0.0540 H   0  0  0  0  0  0  0  0  0  0  0  0
   -1.2536    2.8617   -0.6689 C   0  0  0  0  0  0  0  0  0  0  0  0
   -2.1482    3.4682   -0.4912 H   0  0  0  0  0  0  0  0  0  0  0  0
   -0.3799    3.5050   -0.5115 H   0  0  0  0  0  0  0  0  0  0  0  0
   -1.2391    2.3481   -2.1150 C   0  0  0  0  0  0  0  0  0  0  0  0
   -0.3290    1.7607   -2.2828 H   0  0  0  0  0  0  0  0  0  0  0  0
   -2.1007    1.6943   -2.2862 H   0  0  0  0  0  0  0  0  0  0  0  0
   -1.2831    3.5262   -3.0860 C   0  0  0  0  0  0  0  0  0  0  0  0
   -2.1847    4.1177   -2.8914 H   0  0  0  0  0  0  0  0  0  0  0  0
   -0.4067    4.1619   -2.9169 H   0  0  0  0  0  0  0  0  0  0  0  0
   -1.2924    3.0313   -4.4752 N   0  3  0  0  0  0  0  0  0  0  0  0
   -1.1870    2.0262   -4.6103 H   0  0  0  0  0  0  0  0  0  0  0  0
   -1.3839    3.8066   -5.5173 C   0  0  0  0  0  0  0  0  0  0  0  0
   -1.4802    5.1747   -5.3984 N   0  0  0  0  0  0  0  0  0  0  0  0
   -1.2942    5.5845   -4.4852 H   0  0  0  0  0  0  0  0  0  0  0  0
   -1.3021    5.7467   -6.2217 H   0  0  0  0  0  0  0  0  0  0  0  0
   -1.3783    3.2542   -6.7760 N   0  0  0  0  0  0  0  0  0  0  0  0
   -1.4751    2.2451   -6.8725 H   0  0  0  0  0  0  0  0  0  0  0  0
   -1.6420    3.8386   -7.5675 H   0  0  0  0  0  0  0  0  0  0  0  0
   -0.8610    2.2175    1.7527 C   0  0  0  0  0  0  0  0  0  0  0  0
    0.3131    2.3703    2.0550 O   0  0  0  0  0  0  0  0  0  0  0  0
   -1.8379    2.7776    2.5579 N   0  0  0  0  0  0  0  0  0  0  0  0
   -2.8033    2.5854    2.3142 H   0  0  0  0  0  0  0  0  0  0  0  0
   -1.5488    3.3313    3.8774 C   0  0  0  0  0  0  0  0  0  0  0  0
   -0.8511    4.1718    3.7972 H   0  0  0  0  0  0  0  0  0  0  0  0
   -2.4682    3.6915    4.3490 H   0  0  0  0  0  0  0  0  0  0  0  0
   -1.1045    2.5672    4.5246 H   0  0  0  0  0  0  0  0  0  0  0  0
  1  2  1  0  0  0  0
  2  3  1  0  0  0  0
  2  4  1  0  0  0  0
  2  5  1  0  0  0  0
  5  6  2  0  0  0  0
  5  7  1  0  0  0  0
  7  8  1  0  0  0  0
  7  9  1  0  0  0  0
  9 10  1  0  0  0  0
  9 11  1  0  0  0  0
  9 29  1  0  0  0  0
 11 12  1  0  0  0  0
 11 13  1  0  0  0  0
 11 14  1  0  0  0  0
 14 15  1  0  0  0  0
 14 16  1  0  0  0  0
 14 17  1  0  0  0  0
 17 18  1  0  0  0  0
 17 19  1  0  0  0  0
 17 20  1  0  0  0  0
 20 21  1  0  0  0  0
 20 22  2  0  0  0  0
 22 23  1  0  0  0  0
 22 26  1  0  0  0  0
 23 24  1  0  0  0  0
 23 25  1  0  0  0  0
 26 27  1  0  0  0  0
 26 28  1  0  0  0  0
 29 30  2  0  0  0  0
 29 31  1  0  0  0  0
 31 32  1  0  0  0  0
 31 33  1  0  0  0  0
 33 34  1  0  0  0  0
 33 35  1  0  0  0  0
 33 36  1  0  0  0  0
M  CHG  1  20   1
M  END
$$$$

  -OEChem-02172215453D

 36 35  0     1  0  0  0  0  0999 V2000
   -3.7792   -2.0939    1.2556 H   0  0  0  0  0  0  0  0  0  0  0  0
   -3.8907   -1.1020    0.8075 C   0  0  0  0  0  0  0  0  0  0  0  0
   -4.5987   -0.5253    1.4075 H   0  0  0  0  0  0  0  0  0  0  0  0
   -4.2869   -1.2167   -0.2042 H   0  0  0  0  0  0  0  0  0  0  0  0
   -2.5478   -0.3985    0.7637 C   0  0  0  0  0  0  0  0  0  0  0  0
   -1.5454   -0.9747    1.1436 O   0  0  0  0  0  0  0  0  0  0  0  0
   -2.4567    0.8987    0.2932 N   0  0  0  0  0  0  0  0  0  0  0  0
   -3.3278    1.3672    0.0625 H   0  0  0  0  0  0  0  0  0  0  0  0
   -1.2129    1.6925    0.3507 C   0  0  1  0  0  0  0  0  0  0  0  0
   -0.3761    1.0405    0.0726 H   0  0  0  0  0  0  0  0  0  0  0  0
   -1.2592    2.8453   -0.6669 C   0  0  0  0  0  0  0  0  0  0  0  0
   -2.1548    3.4513   -0.4918 H   0  0  0  0  0  0  0  0  0  0  0  0
   -0.3874    3.4924   -0.5153 H   0  0  0  0  0  0  0  0  0  0  0  0
   -1.2430    2.3292   -2.1120 C   0  0  0  0  0  0  0  0  0  0  0  0
   -0.3321    1.7434   -2.2798 H   0  0  0  0  0  0  0  0  0  0  0  0
   -2.1037    1.6749   -2.2848 H   0  0  0  0  0  0  0  0  0  0  0  0
   -1.2885    3.5110   -3.0785 C   0  0  0  0  0  0  0  0  0  0  0  0
   -2.1908    4.1005   -2.8811 H   0  0  0  0  0  0  0  0  0  0  0  0
   -0.4129    4.1468   -2.9049 H   0  0  0  0  0  0  0  0  0  0  0  0
   -1.2963    3.0273   -4.4713 N   0  3  0  0  0  0  0  0  0  0  0  0
   -1.1845    2.0243   -4.6152 H   0  0  0  0  0  0  0  0  0  0  0  0
   -1.3889    3.8134   -5.5053 C   0  0  0  0  0  0  0  0  0  0  0  0
   -1.4877    5.1801   -5.3713 N   0  0  0  0  0  0  0  0  0  0  0  0
   -1.3104    5.5806   -4.4522 H   0  0  0  0  0  0  0  0  0  0  0  0
   -1.3096    5.7625   -6.1872 H   0  0  0  0  0  0  0  0  0  0  0  0
   -1.3811    3.2758   -6.7704 N   0  0  0  0  0  0  0  0  0  0  0  0
   -1.4753    2.2677   -6.8783 H   0  0  0  0  0  0  0  0  0  0  0  0
   -1.6470    3.8687   -7.5547 H   0  0  0  0  0  0  0  0  0  0  0  0
   -0.8623    2.2250    1.7572 C   0  0  0  0  0  0  0  0  0  0  0  0
    0.2780    2.6104    1.9730 O   0  0  0  0  0  0  0  0  0  0  0  0
   -1.8559    2.5152    2.6759 N   0  0  0  0  0  0  0  0  0  0  0  0
   -2.7651    2.0974    2.5103 H   0  0  0  0  0  0  0  0  0  0  0  0
   -1.5660    3.0464    4.0044 C   0  0  0  0  0  0  0  0  0  0  0  0
   -1.0355    4.0019    3.9299 H   0  0  0  0  0  0  0  0  0  0  0  0
   -2.4945    3.2128    4.5591 H   0  0  0  0  0  0  0  0  0  0  0  0
   -0.9445    2.3441    4.5705 H   0  0  0  0  0  0  0  0  0  0  0  0
  1  2  1  0  0  0  0
  2  3  1  0  0  0  0
  2  4  1  0  0  0  0
  2  5  1  0  0  0  0
  5  6  2  0  0  0  0
  5  7  1  0  0  0  0
  7  8  1  0  0  0  0
  7  9  1  0  0  0  0
  9 10  1  0  0  0  0
  9 11  1  0  0  0  0
  9 29  1  0  0  0  0
 11 12  1  0  0  0  0
 11 13  1  0  0  0  0
 11 14  1  0  0  0  0
 14 15  1  0  0  0  0
 14 16  1  0  0  0  0
 14 17  1  0  0  0  0
 17 18  1  0  0  0  0
 17 19  1  0  0  0  0
 17 20  1  0  0  0  0
 20 21  1  0  0  0  0
 20 22  2  0  0  0  0
 22 23  1  0  0  0  0
 22 26  1  0  0  0  0
 23 24  1  0  0  0  0
 23 25  1  0  0  0  0
 26 27  1  0  0  0  0
 26 28  1  0  0  0  0
 29 30  2  0  0  0  0
 29 31  1  0  0  0  0
 31 32  1  0  0  0  0
 31 33  1  0  0  0  0
 33 34  1  0  0  0  0
 33 35  1  0  0  0  0
 33 36  1  0  0  0  0
M  CHG  1  20   1
M  END
$$$$

  -OEChem-02172215453D

 36 35  0     1  0  0  0  0  0999 V2000
   -3.7975   -2.0925    1.2316 H   0  0  0  0  0  0  0  0  0  0  0  0
   -3.9006   -1.1012    0.7802 C   0  0  0  0  0  0  0  0  0  0  0  0
   -4.6210   -0.5247    1.3652 H   0  0  0  0  0  0  0  0  0  0  0  0
   -4.2763   -1.2183   -0.2389 H   0  0  0  0  0  0  0  0  0  0  0  0
   -2.5576   -0.3963    0.7619 C   0  0  0  0  0  0  0  0  0  0  0  0
   -1.5646   -0.9640    1.1779 O   0  0  0  0  0  0  0  0  0  0  0  0
   -2.4556    0.8995    0.2905 N   0  0  0  0  0  0  0  0  0  0  0  0
   -3.3225    1.3738    0.0540 H   0  0  0  0  0  0  0  0  0  0  0  0
   -1.2091    1.6901    0.3568 C   0  0  1  0  0  0  0  0  0  0  0  0
   -0.3705    1.0384    0.0842 H   0  0  0  0  0  0  0  0  0  0  0  0
   -1.2601    2.8389   -0.6674 C   0  0  0  0  0  0  0  0  0  0  0  0
   -2.1584    3.4409   -0.4935 H   0  0  0  0  0  0  0  0  0  0  0  0
   -0.3924    3.4927   -0.5222 H   0  0  0  0  0  0  0  0  0  0  0  0
   -1.2410    2.3205   -2.1111 C   0  0  0  0  0  0  0  0  0  0  0  0
   -0.3276    1.7386   -2.2788 H   0  0  0  0  0  0  0  0  0  0  0  0
   -2.0996    1.6635   -2.2844 H   0  0  0  0  0  0  0  0  0  0  0  0
   -1.2913    3.5037   -3.0752 C   0  0  0  0  0  0  0  0  0  0  0  0
   -2.1955    4.0897   -2.8761 H   0  0  0  0  0  0  0  0  0  0  0  0
   -0.4183    4.1426   -2.9000 H   0  0  0  0  0  0  0  0  0  0  0  0
   -1.2969    3.0241   -4.4693 N   0  3  0  0  0  0  0  0  0  0  0  0
   -1.1837    2.0219   -4.6174 H   0  0  0  0  0  0  0  0  0  0  0  0
   -1.3927    3.8141   -5.4998 C   0  0  0  0  0  0  0  0  0  0  0  0
   -1.4971    5.1795   -5.3591 N   0  0  0  0  0  0  0  0  0  0  0  0
   -1.3166    5.5760   -4.4388 H   0  0  0  0  0  0  0  0  0  0  0  0
   -1.3239    5.7666   -6.1727 H   0  0  0  0  0  0  0  0  0  0  0  0
   -1.3839    3.2819   -6.7669 N   0  0  0  0  0  0  0  0  0  0  0  0
   -1.4717    2.2737   -6.8794 H   0  0  0  0  0  0  0  0  0  0  0  0
   -1.6531    3.8770   -7.5484 H   0  0  0  0  0  0  0  0  0  0  0  0
   -0.8646    2.2271    1.7657 C   0  0  0  0  0  0  0  0  0  0  0  0
    0.1948    2.8160    1.9322 O   0  0  0  0  0  0  0  0  0  0  0  0
   -1.8071    2.2378    2.7785 N   0  0  0  0  0  0  0  0  0  0  0  0
   -2.6082    1.6282    2.6529 H   0  0  0  0  0  0  0  0  0  0  0  0
   -1.5116    2.7263    4.1215 C   0  0  0  0  0  0  0  0  0  0  0  0
   -1.2047    3.7772    4.0897 H   0  0  0  0  0  0  0  0  0  0  0  0
   -2.3979    2.6470    4.7583 H   0  0  0  0  0  0  0  0  0  0  0  0
   -0.7052    2.1391    4.5742 H   0  0  0  0  0  0  0  0  0  0  0  0
  1  2  1  0  0  0  0
  2  3  1  0  0  0  0
  2  4  1  0  0  0  0
  2  5  1  0  0  0  0
  5  6  2  0  0  0  0
  5  7  1  0  0  0  0
  7  8  1  0  0  0  0
  7  9  1  0  0  0  0
  9 10  1  0  0  0  0
  9 11  1  0  0  0  0
  9 29  1  0  0  0  0
 11 12  1  0  0  0  0
 11 13  1  0  0  0  0
 11 14  1  0  0  0  0
 14 15  1  0  0  0  0
 14 16  1  0  0  0  0
 14 17  1  0  0  0  0
 17 18  1  0  0  0  0
 17 19  1  0  0  0  0
 17 20  1  0  0  0  0
 20 21  1  0  0  0  0
 20 22  2  0  0  0  0
 22 23  1  0  0  0  0
 22 26  1  0  0  0  0
 23 24  1  0  0  0  0
 23 25  1  0  0  0  0
 26 27  1  0  0  0  0
 26 28  1  0  0  0  0
 29 30  2  0  0  0  0
 29 31  1  0  0  0  0
 31 32  1  0  0  0  0
 31 33  1  0  0  0  0
 33 34  1  0  0  0  0
 33 35  1  0  0  0  0
 33 36  1  0  0  0  0
M  CHG  1  20   1
M  END
$$$$

  -OEChem-02172215453D

 36 35  0     1  0  0  0  0  0999 V2000
   -3.8281   -2.0799    1.2047 H   0  0  0  0  0  0  0  0  0  0  0  0
   -3.9166   -1.0882    0.7514 C   0  0  0  0  0  0  0  0  0  0  0  0
   -4.6391   -0.5042    1.3267 H   0  0  0  0  0  0  0  0  0  0  0  0
   -4.2806   -1.2024   -0.2724 H   0  0  0  0  0  0  0  0  0  0  0  0
   -2.5674   -0.3952    0.7499 C   0  0  0  0  0  0  0  0  0  0  0  0
   -1.5881   -0.9603    1.2005 O   0  0  0  0  0  0  0  0  0  0  0  0
   -2.4491    0.9011    0.2868 N   0  0  0  0  0  0  0  0  0  0  0  0
   -3.3125    1.3867    0.0600 H   0  0  0  0  0  0  0  0  0  0  0  0
   -1.1991    1.6860    0.3636 C   0  0  1  0  0  0  0  0  0  0  0  0
   -0.3611    1.0337    0.0923 H   0  0  0  0  0  0  0  0  0  0  0  0
   -1.2561    2.8320   -0.6664 C   0  0  0  0  0  0  0  0  0  0  0  0
   -2.1553    3.4322   -0.4915 H   0  0  0  0  0  0  0  0  0  0  0  0
   -0.3899    3.4893   -0.5298 H   0  0  0  0  0  0  0  0  0  0  0  0
   -1.2363    2.3112   -2.1088 C   0  0  0  0  0  0  0  0  0  0  0  0
   -0.3205    1.7336   -2.2770 H   0  0  0  0  0  0  0  0  0  0  0  0
   -2.0921    1.6503   -2.2815 H   0  0  0  0  0  0  0  0  0  0  0  0
   -1.2931    3.4959   -3.0704 C   0  0  0  0  0  0  0  0  0  0  0  0
   -2.1997    4.0770   -2.8680 H   0  0  0  0  0  0  0  0  0  0  0  0
   -0.4228    4.1380   -2.8939 H   0  0  0  0  0  0  0  0  0  0  0  0
   -1.2984    3.0206   -4.4658 N   0  3  0  0  0  0  0  0  0  0  0  0
   -1.1793    2.0197   -4.6169 H   0  0  0  0  0  0  0  0  0  0  0  0
   -1.3992    3.8136   -5.4937 C   0  0  0  0  0  0  0  0  0  0  0  0
   -1.5097    5.1778   -5.3476 N   0  0  0  0  0  0  0  0  0  0  0  0
   -1.3350    5.5712   -4.4249 H   0  0  0  0  0  0  0  0  0  0  0  0
   -1.3408    5.7703   -6.1581 H   0  0  0  0  0  0  0  0  0  0  0  0
   -1.3878    3.2857   -6.7629 N   0  0  0  0  0  0  0  0  0  0  0  0
   -1.4718    2.2775   -6.8783 H   0  0  0  0  0  0  0  0  0  0  0  0
   -1.6613    3.8817   -7.5423 H   0  0  0  0  0  0  0  0  0  0  0  0
   -0.8596    2.2175    1.7795 C   0  0  0  0  0  0  0  0  0  0  0  0
    0.0687    3.0030    1.9179 O   0  0  0  0  0  0  0  0  0  0  0  0
   -1.6818    1.9567    2.8609 N   0  0  0  0  0  0  0  0  0  0  0  0
   -2.3021    1.1590    2.7595 H   0  0  0  0  0  0  0  0  0  0  0  0
   -1.3778    2.4238    4.2098 C   0  0  0  0  0  0  0  0  0  0  0  0
   -1.3251    3.5174    4.2350 H   0  0  0  0  0  0  0  0  0  0  0  0
   -2.1577    2.1021    4.9067 H   0  0  0  0  0  0  0  0  0  0  0  0
   -0.4192    2.0178    4.5505 H   0  0  0  0  0  0  0  0  0  0  0  0
  1  2  1  0  0  0  0
  2  3  1  0  0  0  0
  2  4  1  0  0  0  0
  2  5  1  0  0  0  0
  5  6  2  0  0  0  0
  5  7  1  0  0  0  0
  7  8  1  0  0  0  0
  7  9  1  0  0  0  0
  9 10  1  0  0  0  0
  9 11  1  0  0  0  0
  9 29  1  0  0  0  0
 11 12  1  0  0  0  0
 11 13  1  0  0  0  0
 11 14  1  0  0  0  0
 14 15  1  0  0  0  0
 14 16  1  0  0  0  0
 14 17  1  0  0  0  0
 17 18  1  0  0  0  0
 17 19  1  0  0  0  0
 17 20  1  0  0  0  0
 20 21  1  0  0  0  0
 20 22  2  0  0  0  0
 22 23  1  0  0  0  0
 22 26  1  0  0  0  0
 23 24  1  0  0  0  0
 23 25  1  0  0  0  0
 26 27  1  0  0  0  0
 26 28  1  0  0  0  0
 29 30  2  0  0  0  0
 29 31  1  0  0  0  0
 31 32  1  0  0  0  0
 31 33  1  0  0  0  0
 33 34  1  0  0  0  0
 33 35  1  0  0  0  0
 33 36  1  0  0  0  0
M  CHG  1  20   1
M  END
$$$$

  -OEChem-02172215453D

 36 35  0     1  0  0  0  0  0999 V2000
   -3.8411   -2.0719    1.1845 H   0  0  0  0  0  0  0  0  0  0  0  0
   -3.9234   -1.0753    0.7411 C   0  0  0  0  0  0  0  0  0  0  0  0
   -4.6469   -0.4943    1.3183 H   0  0  0  0  0  0  0  0  0  0  0  0
   -4.2824   -1.1772   -0.2856 H   0  0  0  0  0  0  0  0  0  0  0  0
   -2.5719   -0.3878    0.7547 C   0  0  0  0  0  0  0  0  0  0  0  0
   -1.6042   -0.9476    1.2383 O   0  0  0  0  0  0  0  0  0  0  0  0
   -2.4418    0.9083    0.2953 N   0  0  0  0  0  0  0  0  0  0  0  0
   -3.3028    1.4015    0.0754 H   0  0  0  0  0  0  0  0  0  0  0  0
   -1.1880    1.6877    0.3700 C   0  0  1  0  0  0  0  0  0  0  0  0
   -0.3522    1.0328    0.0988 H   0  0  0  0  0  0  0  0  0  0  0  0
   -1.2462    2.8295   -0.6668 C   0  0  0  0  0  0  0  0  0  0  0  0
   -2.1426    3.4337   -0.4908 H   0  0  0  0  0  0  0  0  0  0  0  0
   -0.3776    3.4849   -0.5392 H   0  0  0  0  0  0  0  0  0  0  0  0
   -1.2320    2.3061   -2.1085 C   0  0  0  0  0  0  0  0  0  0  0  0
   -0.3178    1.7266   -2.2795 H   0  0  0  0  0  0  0  0  0  0  0  0
   -2.0900    1.6474   -2.2773 H   0  0  0  0  0  0  0  0  0  0  0  0
   -1.2900    3.4910   -3.0706 C   0  0  0  0  0  0  0  0  0  0  0  0
   -2.1949    4.0737   -2.8652 H   0  0  0  0  0  0  0  0  0  0  0  0
   -0.4181    4.1320   -2.8973 H   0  0  0  0  0  0  0  0  0  0  0  0
   -1.3011    3.0179   -4.4667 N   0  3  0  0  0  0  0  0  0  0  0  0
   -1.1884    2.0165   -4.6196 H   0  0  0  0  0  0  0  0  0  0  0  0
   -1.4040    3.8130   -5.4928 C   0  0  0  0  0  0  0  0  0  0  0  0
   -1.5110    5.1774   -5.3444 N   0  0  0  0  0  0  0  0  0  0  0  0
   -1.3290    5.5683   -4.4219 H   0  0  0  0  0  0  0  0  0  0  0  0
   -1.3390    5.7696   -6.1545 H   0  0  0  0  0  0  0  0  0  0  0  0
   -1.4036    3.2874   -6.7627 N   0  0  0  0  0  0  0  0  0  0  0  0
   -1.4983    2.2802   -6.8778 H   0  0  0  0  0  0  0  0  0  0  0  0
   -1.6865    3.8858   -7.5369 H   0  0  0  0  0  0  0  0  0  0  0  0
   -0.8525    2.2102    1.7934 C   0  0  0  0  0  0  0  0  0  0  0  0
   -0.1075    3.1721    1.9301 O   0  0  0  0  0  0  0  0  0  0  0  0
   -1.4933    1.7002    2.9080 N   0  0  0  0  0  0  0  0  0  0  0  0
   -1.8895    0.7702    2.7878 H   0  0  0  0  0  0  0  0  0  0  0  0
   -1.1817    2.1387    4.2646 C   0  0  0  0  0  0  0  0  0  0  0  0
   -1.3759    3.2106    4.3760 H   0  0  0  0  0  0  0  0  0  0  0  0
   -1.8021    1.6009    4.9881 H   0  0  0  0  0  0  0  0  0  0  0  0
   -0.1292    1.9465    4.4985 H   0  0  0  0  0  0  0  0  0  0  0  0
  1  2  1  0  0  0  0
  2  3  1  0  0  0  0
  2  4  1  0  0  0  0
  2  5  1  0  0  0  0
  5  6  2  0  0  0  0
  5  7  1  0  0  0  0
  7  8  1  0  0  0  0
  7  9  1  0  0  0  0
  9 10  1  0  0  0  0
  9 11  1  0  0  0  0
  9 29  1  0  0  0  0
 11 12  1  0  0  0  0
 11 13  1  0  0  0  0
 11 14  1  0  0  0  0
 14 15  1  0  0  0  0
 14 16  1  0  0  0  0
 14 17  1  0  0  0  0
 17 18  1  0  0  0  0
 17 19  1  0  0  0  0
 17 20  1  0  0  0  0
 20 21  1  0  0  0  0
 20 22  2  0  0  0  0
 22 23  1  0  0  0  0
 22 26  1  0  0  0  0
 23 24  1  0  0  0  0
 23 25  1  0  0  0  0
 26 27  1  0  0  0  0
 26 28  1  0  0  0  0
 29 30  2  0  0  0  0
 29 31  1  0  0  0  0
 31 32  1  0  0  0  0
 31 33  1  0  0  0  0
 33 34  1  0  0  0  0
 33 35  1  0  0  0  0
 33 36  1  0  0  0  0
M  CHG  1  20   1
M  END
$$$$

  -OEChem-02172215453D

 36 35  0     1  0  0  0  0  0999 V2000
   -3.8425   -2.0525    1.2140 H   0  0  0  0  0  0  0  0  0  0  0  0
   -3.9211   -1.0557    0.7700 C   0  0  0  0  0  0  0  0  0  0  0  0
   -4.6249   -0.4642    1.3605 H   0  0  0  0  0  0  0  0  0  0  0  0
   -4.3017   -1.1546   -0.2492 H   0  0  0  0  0  0  0  0  0  0  0  0
   -2.5611   -0.3852    0.7547 C   0  0  0  0  0  0  0  0  0  0  0  0
   -1.5869   -0.9614    1.2078 O   0  0  0  0  0  0  0  0  0  0  0  0
   -2.4274    0.9112    0.2971 N   0  0  0  0  0  0  0  0  0  0  0  0
   -3.2910    1.4161    0.1170 H   0  0  0  0  0  0  0  0  0  0  0  0
   -1.1718    1.6872    0.3692 C   0  0  1  0  0  0  0  0  0  0  0  0
   -0.3364    1.0329    0.0962 H   0  0  0  0  0  0  0  0  0  0  0  0
   -1.2325    2.8283   -0.6686 C   0  0  0  0  0  0  0  0  0  0  0  0
   -2.1266    3.4350   -0.4887 H   0  0  0  0  0  0  0  0  0  0  0  0
   -0.3608    3.4802   -0.5435 H   0  0  0  0  0  0  0  0  0  0  0  0
   -1.2243    2.3050   -2.1104 C   0  0  0  0  0  0  0  0  0  0  0  0
   -0.3120    1.7243   -2.2849 H   0  0  0  0  0  0  0  0  0  0  0  0
   -2.0842    1.6476   -2.2755 H   0  0  0  0  0  0  0  0  0  0  0  0
   -1.2850    3.4898   -3.0728 C   0  0  0  0  0  0  0  0  0  0  0  0
   -2.1884    4.0737   -2.8637 H   0  0  0  0  0  0  0  0  0  0  0  0
   -0.4121    4.1303   -2.9030 H   0  0  0  0  0  0  0  0  0  0  0  0
   -1.3021    3.0170   -4.4690 N   0  3  0  0  0  0  0  0  0  0  0  0
   -1.1943    2.0153   -4.6230 H   0  0  0  0  0  0  0  0  0  0  0  0
   -1.4085    3.8129   -5.4940 C   0  0  0  0  0  0  0  0  0  0  0  0
   -1.5138    5.1772   -5.3444 N   0  0  0  0  0  0  0  0  0  0  0  0
   -1.3337    5.5689   -4.4219 H   0  0  0  0  0  0  0  0  0  0  0  0
   -1.3511    5.7710   -6.1551 H   0  0  0  0  0  0  0  0  0  0  0  0
   -1.4130    3.2880   -6.7642 N   0  0  0  0  0  0  0  0  0  0  0  0
   -1.5083    2.2810   -6.8800 H   0  0  0  0  0  0  0  0  0  0  0  0
   -1.6960    3.8874   -7.5376 H   0  0  0  0  0  0  0  0  0  0  0  0
   -0.8442    2.2006    1.7986 C   0  0  0  0  0  0  0  0  0  0  0  0
   -0.3163    3.2937    1.9589 O   0  0  0  0  0  0  0  0  0  0  0  0
   -1.2509    1.4886    2.9120 N   0  0  0  0  0  0  0  0  0  0  0  0
   -1.4799    0.5085    2.7420 H   0  0  0  0  0  0  0  0  0  0  0  0
   -0.9347    1.8967    4.2765 C   0  0  0  0  0  0  0  0  0  0  0  0
   -1.3642    2.8808    4.4921 H   0  0  0  0  0  0  0  0  0  0  0  0
   -1.3472    1.1782    4.9914 H   0  0  0  0  0  0  0  0  0  0  0  0
    0.1497    1.9469    4.4215 H   0  0  0  0  0  0  0  0  0  0  0  0
  1  2  1  0  0  0  0
  2  3  1  0  0  0  0
  2  4  1  0  0  0  0
  2  5  1  0  0  0  0
  5  6  2  0  0  0  0
  5  7  1  0  0  0  0
  7  8  1  0  0  0  0
  7  9  1  0  0  0  0
  9 10  1  0  0  0  0
  9 11  1  0  0  0  0
  9 29  1  0  0  0  0
 11 12  1  0  0  0  0
 11 13  1  0  0  0  0
 11 14  1  0  0  0  0
 14 15  1  0  0  0  0
 14 16  1  0  0  0  0
 14 17  1  0  0  0  0
 17 18  1  0  0  0  0
 17 19  1  0  0  0  0
 17 20  1  0  0  0  0
 20 21  1  0  0  0  0
 20 22  2  0  0  0  0
 22 23  1  0  0  0  0
 22 26  1  0  0  0  0
 23 24  1  0  0  0  0
 23 25  1  0  0  0  0
 26 27  1  0  0  0  0
 26 28  1  0  0  0  0
 29 30  2  0  0  0  0
 29 31  1  0  0  0  0
 31 32  1  0  0  0  0
 31 33  1  0  0  0  0
 33 34  1  0  0  0  0
 33 35  1  0  0  0  0
 33 36  1  0  0  0  0
M  CHG  1  20   1
M  END
$$$$

  -OEChem-02172215453D

 36 35  0     1  0  0  0  0  0999 V2000
   -3.8183   -2.0379    1.2773 H   0  0  0  0  0  0  0  0  0  0  0  0
   -3.9046   -1.0441    0.8282 C   0  0  0  0  0  0  0  0  0  0  0  0
   -4.5798   -0.4413    1.4404 H   0  0  0  0  0  0  0  0  0  0  0  0
   -4.3254   -1.1476   -0.1747 H   0  0  0  0  0  0  0  0  0  0  0  0
   -2.5404   -0.3861    0.7547 C   0  0  0  0  0  0  0  0  0  0  0  0
   -1.5496   -0.9818    1.1452 O   0  0  0  0  0  0  0  0  0  0  0  0
   -2.4165    0.9108    0.2942 N   0  0  0  0  0  0  0  0  0  0  0  0
   -3.2847    1.4251    0.1715 H   0  0  0  0  0  0  0  0  0  0  0  0
   -1.1612    1.6860    0.3618 C   0  0  1  0  0  0  0  0  0  0  0  0
   -0.3245    1.0347    0.0861 H   0  0  0  0  0  0  0  0  0  0  0  0
   -1.2223    2.8291   -0.6728 C   0  0  0  0  0  0  0  0  0  0  0  0
   -2.1158    3.4362   -0.4906 H   0  0  0  0  0  0  0  0  0  0  0  0
   -0.3492    3.4787   -0.5440 H   0  0  0  0  0  0  0  0  0  0  0  0
   -1.2188    2.3085   -2.1158 C   0  0  0  0  0  0  0  0  0  0  0  0
   -0.3084    1.7258   -2.2939 H   0  0  0  0  0  0  0  0  0  0  0  0
   -2.0804    1.6528   -2.2790 H   0  0  0  0  0  0  0  0  0  0  0  0
   -1.2798    3.4939   -3.0771 C   0  0  0  0  0  0  0  0  0  0  0  0
   -2.1823    4.0784   -2.8653 H   0  0  0  0  0  0  0  0  0  0  0  0
   -0.4058    4.1334   -2.9091 H   0  0  0  0  0  0  0  0  0  0  0  0
   -1.3011    3.0209   -4.4734 N   0  3  0  0  0  0  0  0  0  0  0  0
   -1.1954    2.0190   -4.6274 H   0  0  0  0  0  0  0  0  0  0  0  0
   -1.4087    3.8163   -5.4988 C   0  0  0  0  0  0  0  0  0  0  0  0
   -1.5118    5.1809   -5.3501 N   0  0  0  0  0  0  0  0  0  0  0  0
   -1.3357    5.5729   -4.4270 H   0  0  0  0  0  0  0  0  0  0  0  0
   -1.3471    5.7746   -6.1607 H   0  0  0  0  0  0  0  0  0  0  0  0
   -1.4152    3.2909   -6.7689 N   0  0  0  0  0  0  0  0  0  0  0  0
   -1.5130    2.2840   -6.8845 H   0  0  0  0  0  0  0  0  0  0  0  0
   -1.6957    3.8909   -7.5428 H   0  0  0  0  0  0  0  0  0  0  0  0
   -0.8426    2.1920    1.7945 C   0  0  0  0  0  0  0  0  0  0  0  0
   -0.5410    3.3622    1.9924 O   0  0  0  0  0  0  0  0  0  0  0  0
   -0.9736    1.3423    2.8768 N   0  0  0  0  0  0  0  0  0  0  0  0
   -1.0981    0.3516    2.6581 H   0  0  0  0  0  0  0  0  0  0  0  0
   -0.6463    1.7236    4.2461 C   0  0  0  0  0  0  0  0  0  0  0  0
   -1.2780    2.5558    4.5744 H   0  0  0  0  0  0  0  0  0  0  0  0
   -0.8099    0.8795    4.9232 H   0  0  0  0  0  0  0  0  0  0  0  0
    0.4030    2.0285    4.3202 H   0  0  0  0  0  0  0  0  0  0  0  0
  1  2  1  0  0  0  0
  2  3  1  0  0  0  0
  2  4  1  0  0  0  0
  2  5  1  0  0  0  0
  5  6  2  0  0  0  0
  5  7  1  0  0  0  0
  7  8  1  0  0  0  0
  7  9  1  0  0  0  0
  9 10  1  0  0  0  0
  9 11  1  0  0  0  0
  9 29  1  0  0  0  0
 11 12  1  0  0  0  0
 11 13  1  0  0  0  0
 11 14  1  0  0  0  0
 14 15  1  0  0  0  0
 14 16  1  0  0  0  0
 14 17  1  0  0  0  0
 17 18  1  0  0  0  0
 17 19  1  0  0  0  0
 17 20  1  0  0  0  0
 20 21  1  0  0  0  0
 20 22  2  0  0  0  0
 22 23  1  0  0  0  0
 22 26  1  0  0  0  0
 23 24  1  0  0  0  0
 23 25  1  0  0  0  0
 26 27  1  0  0  0  0
 26 28  1  0  0  0  0
 29 30  2  0  0  0  0
 29 31  1  0  0  0  0
 31 32  1  0  0  0  0
 31 33  1  0  0  0  0
 33 34  1  0  0  0  0
 33 35  1  0  0  0  0
 33 36  1  0  0  0  0
M  CHG  1  20   1
M  END
$$$$

  -OEChem-02172215453D

 36 35  0     1  0  0  0  0  0999 V2000
   -3.7574   -2.0489    1.3214 H   0  0  0  0  0  0  0  0  0  0  0  0
   -3.8672   -1.0408    0.9108 C   0  0  0  0  0  0  0  0  0  0  0  0
   -4.4933   -0.4537    1.5871 H   0  0  0  0  0  0  0  0  0  0  0  0
   -4.3581   -1.1102   -0.0626 H   0  0  0  0  0  0  0  0  0  0  0  0
   -2.5064   -0.3879    0.7630 C   0  0  0  0  0  0  0  0  0  0  0  0
   -1.4986   -0.9913    1.0962 O   0  0  0  0  0  0  0  0  0  0  0  0
   -2.3994    0.9069    0.2899 N   0  0  0  0  0  0  0  0  0  0  0  0
   -3.2700    1.4282    0.2238 H   0  0  0  0  0  0  0  0  0  0  0  0
   -1.1423    1.6778    0.3440 C   0  0  1  0  0  0  0  0  0  0  0  0
   -0.3065    1.0273    0.0639 H   0  0  0  0  0  0  0  0  0  0  0  0
   -1.2011    2.8251   -0.6850 C   0  0  0  0  0  0  0  0  0  0  0  0
   -2.0900    3.4373   -0.4969 H   0  0  0  0  0  0  0  0  0  0  0  0
   -0.3233    3.4682   -0.5534 H   0  0  0  0  0  0  0  0  0  0  0  0
   -1.2112    2.3089   -2.1294 C   0  0  0  0  0  0  0  0  0  0  0  0
   -0.3073    1.7187   -2.3155 H   0  0  0  0  0  0  0  0  0  0  0  0
   -2.0799    1.6613   -2.2876 H   0  0  0  0  0  0  0  0  0  0  0  0
   -1.2688    3.4970   -3.0872 C   0  0  0  0  0  0  0  0  0  0  0  0
   -2.1645    4.0888   -2.8677 H   0  0  0  0  0  0  0  0  0  0  0  0
   -0.3875    4.1276   -2.9238 H   0  0  0  0  0  0  0  0  0  0  0  0
   -1.3032    3.0277   -4.4845 N   0  3  0  0  0  0  0  0  0  0  0  0
   -1.2109    2.0248   -4.6414 H   0  0  0  0  0  0  0  0  0  0  0  0
   -1.4110    3.8268   -5.5069 C   0  0  0  0  0  0  0  0  0  0  0  0
   -1.5015    5.1918   -5.3532 N   0  0  0  0  0  0  0  0  0  0  0  0
   -1.3118    5.5799   -4.4311 H   0  0  0  0  0  0  0  0  0  0  0  0
   -1.3424    5.7865   -6.1641 H   0  0  0  0  0  0  0  0  0  0  0  0
   -1.4318    3.3056   -6.7787 N   0  0  0  0  0  0  0  0  0  0  0  0
   -1.5362    2.2997   -6.8976 H   0  0  0  0  0  0  0  0  0  0  0  0
   -1.7134    3.9102   -7.5484 H   0  0  0  0  0  0  0  0  0  0  0  0
   -0.8292    2.1804    1.7763 C   0  0  0  0  0  0  0  0  0  0  0  0
   -0.7619    3.3782    2.0218 O   0  0  0  0  0  0  0  0  0  0  0  0
   -0.6643    1.2695    2.8017 N   0  0  0  0  0  0  0  0  0  0  0  0
   -0.7252    0.2797    2.5523 H   0  0  0  0  0  0  0  0  0  0  0  0
   -0.3687    1.6403    4.1806 C   0  0  0  0  0  0  0  0  0  0  0  0
   -1.1676    2.2683    4.5889 H   0  0  0  0  0  0  0  0  0  0  0  0
   -0.2819    0.7440    4.8025 H   0  0  0  0  0  0  0  0  0  0  0  0
    0.5758    2.1917    4.2360 H   0  0  0  0  0  0  0  0  0  0  0  0
  1  2  1  0  0  0  0
  2  3  1  0  0  0  0
  2  4  1  0  0  0  0
  2  5  1  0  0  0  0
  5  6  2  0  0  0  0
  5  7  1  0  0  0  0
  7  8  1  0  0  0  0
  7  9  1  0  0  0  0
  9 10  1  0  0  0  0
  9 11  1  0  0  0  0
  9 29  1  0  0  0  0
 11 12  1  0  0  0  0
 11 13  1  0  0  0  0
 11 14  1  0  0  0  0
 14 15  1  0  0  0  0
 14 16  1  0  0  0  0
 14 17  1  0  0  0  0
 17 18  1  0  0  0  0
 17 19  1  0  0  0  0
 17 20  1  0  0  0  0
 20 21  1  0  0  0  0
 20 22  2  0  0  0  0
 22 23  1  0  0  0  0
 22 26  1  0  0  0  0
 23 24  1  0  0  0  0
 23 25  1  0  0  0  0
 26 27  1  0  0  0  0
 26 28  1  0  0  0  0
 29 30  2  0  0  0  0
 29 31  1  0  0  0  0
 31 32  1  0  0  0  0
 31 33  1  0  0  0  0
 33 34  1  0  0  0  0
 33 35  1  0  0  0  0
 33 36  1  0  0  0  0
M  CHG  1  20   1
M  END
$$$$

  -OEChem-02172215453D

 36 35  0     1  0  0  0  0  0999 V2000
   -3.7569   -1.9763    1.4478 H   0  0  0  0  0  0  0  0  0  0  0  0
   -3.8596   -0.9815    1.0048 C   0  0  0  0  0  0  0  0  0  0  0  0
   -4.4463   -0.3561    1.6823 H   0  0  0  0  0  0  0  0  0  0  0  0
   -4.3879   -1.0736    0.0530 H   0  0  0  0  0  0  0  0  0  0  0  0
   -2.4915   -0.3661    0.7824 C   0  0  0  0  0  0  0  0  0  0  0  0
   -1.4821   -0.9895    1.0733 O   0  0  0  0  0  0  0  0  0  0  0  0
   -2.3791    0.9205    0.2890 N   0  0  0  0  0  0  0  0  0  0  0  0
   -3.2385    1.4639    0.2751 H   0  0  0  0  0  0  0  0  0  0  0  0
   -1.1055    1.6609    0.3192 C   0  0  1  0  0  0  0  0  0  0  0  0
   -0.2843    0.9966    0.0280 H   0  0  0  0  0  0  0  0  0  0  0  0
   -1.1537    2.8129   -0.7033 C   0  0  0  0  0  0  0  0  0  0  0  0
   -2.0261    3.4437   -0.4996 H   0  0  0  0  0  0  0  0  0  0  0  0
   -0.2607    3.4361   -0.5791 H   0  0  0  0  0  0  0  0  0  0  0  0
   -1.2028    2.3036   -2.1491 C   0  0  0  0  0  0  0  0  0  0  0  0
   -0.3171    1.6921   -2.3545 H   0  0  0  0  0  0  0  0  0  0  0  0
   -2.0900    1.6782   -2.2947 H   0  0  0  0  0  0  0  0  0  0  0  0
   -1.2477    3.4975   -3.1006 C   0  0  0  0  0  0  0  0  0  0  0  0
   -2.1252    4.1086   -2.8624 H   0  0  0  0  0  0  0  0  0  0  0  0
   -0.3494    4.1077   -2.9521 H   0  0  0  0  0  0  0  0  0  0  0  0
   -1.3187    3.0322   -4.4975 N   0  3  0  0  0  0  0  0  0  0  0  0
   -1.2864    2.0256   -4.6540 H   0  0  0  0  0  0  0  0  0  0  0  0
   -1.4246    3.8348   -5.5174 C   0  0  0  0  0  0  0  0  0  0  0  0
   -1.4785    5.2018   -5.3622 N   0  0  0  0  0  0  0  0  0  0  0  0
   -1.5803    5.5752   -4.4203 H   0  0  0  0  0  0  0  0  0  0  0  0
   -1.7897    5.7748   -6.1441 H   0  0  0  0  0  0  0  0  0  0  0  0
   -1.4788    3.3146   -6.7885 N   0  0  0  0  0  0  0  0  0  0  0  0
   -1.2536    2.3309   -6.9241 H   0  0  0  0  0  0  0  0  0  0  0  0
   -1.3419    3.9464   -7.5755 H   0  0  0  0  0  0  0  0  0  0  0  0
   -0.7833    2.1600    1.7468 C   0  0  0  0  0  0  0  0  0  0  0  0
   -0.9306    3.3376    2.0483 O   0  0  0  0  0  0  0  0  0  0  0  0
   -0.3362    1.2579    2.6921 N   0  0  0  0  0  0  0  0  0  0  0  0
   -0.3536    0.2714    2.4243 H   0  0  0  0  0  0  0  0  0  0  0  0
   -0.0755    1.6079    4.0833 C   0  0  0  0  0  0  0  0  0  0  0  0
   -0.9932    1.9536    4.5705 H   0  0  0  0  0  0  0  0  0  0  0  0
    0.2996    0.7362    4.6288 H   0  0  0  0  0  0  0  0  0  0  0  0
    0.6766    2.4016    4.1448 H   0  0  0  0  0  0  0  0  0  0  0  0
  1  2  1  0  0  0  0
  2  3  1  0  0  0  0
  2  4  1  0  0  0  0
  2  5  1  0  0  0  0
  5  6  2  0  0  0  0
  5  7  1  0  0  0  0
  7  8  1  0  0  0  0
  7  9  1  0  0  0  0
  9 10  1  0  0  0  0
  9 11  1  0  0  0  0
  9 29  1  0  0  0  0
 11 12  1  0  0  0  0
 11 13  1  0  0  0  0
 11 14  1  0  0  0  0
 14 15  1  0  0  0  0
 14 16  1  0  0  0  0
 14 17  1  0  0  0  0
 17 18  1  0  0  0  0
 17 19  1  0  0  0  0
 17 20  1  0  0  0  0
 20 21  1  0  0  0  0
 20 22  2  0  0  0  0
 22 23  1  0  0  0  0
 22 26  1  0  0  0  0
 23 24  1  0  0  0  0
 23 25  1  0  0  0  0
 26 27  1  0  0  0  0
 26 28  1  0  0  0  0
 29 30  2  0  0  0  0
 29 31  1  0  0  0  0
 31 32  1  0  0  0  0
 31 33  1  0  0  0  0
 33 34  1  0  0  0  0
 33 35  1  0  0  0  0
 33 36  1  0  0  0  0
M  CHG  1  20   1
M  END
$$$$

  -OEChem-02172215453D

 36 35  0     1  0  0  0  0  0999 V2000
   -3.7218   -1.9648    1.4865 H   0  0  0  0  0  0  0  0  0  0  0  0
   -3.8314   -0.9736    1.0369 C   0  0  0  0  0  0  0  0  0  0  0  0
   -4.4046   -0.3412    1.7196 H   0  0  0  0  0  0  0  0  0  0  0  0
   -4.3778   -1.0722    0.0961 H   0  0  0  0  0  0  0  0  0  0  0  0
   -2.4666   -0.3626    0.7838 C   0  0  0  0  0  0  0  0  0  0  0  0
   -1.4521   -0.9875    1.0537 O   0  0  0  0  0  0  0  0  0  0  0  0
   -2.3612    0.9190    0.2757 N   0  0  0  0  0  0  0  0  0  0  0  0
   -3.2164    1.4695    0.2924 H   0  0  0  0  0  0  0  0  0  0  0  0
   -1.0842    1.6505    0.3043 C   0  0  1  0  0  0  0  0  0  0  0  0
   -0.2637    0.9862    0.0111 H   0  0  0  0  0  0  0  0  0  0  0  0
   -1.1334    2.8078   -0.7109 C   0  0  0  0  0  0  0  0  0  0  0  0
   -2.0032    3.4402   -0.5006 H   0  0  0  0  0  0  0  0  0  0  0  0
   -0.2376    3.4266   -0.5858 H   0  0  0  0  0  0  0  0  0  0  0  0
   -1.1938    2.3047   -2.1588 C   0  0  0  0  0  0  0  0  0  0  0  0
   -0.3127    1.6894   -2.3714 H   0  0  0  0  0  0  0  0  0  0  0  0
   -2.0846    1.6836   -2.3004 H   0  0  0  0  0  0  0  0  0  0  0  0
   -1.2399    3.5003   -3.1078 C   0  0  0  0  0  0  0  0  0  0  0  0
   -2.1137    4.1143   -2.8633 H   0  0  0  0  0  0  0  0  0  0  0  0
   -0.3387    4.1074   -2.9642 H   0  0  0  0  0  0  0  0  0  0  0  0
   -1.3217    3.0372   -4.5051 N   0  3  0  0  0  0  0  0  0  0  0  0
   -1.2944    2.0309   -4.6642 H   0  0  0  0  0  0  0  0  0  0  0  0
   -1.4311    3.8418   -5.5228 C   0  0  0  0  0  0  0  0  0  0  0  0
   -1.4787    5.2085   -5.3650 N   0  0  0  0  0  0  0  0  0  0  0  0
   -1.5786    5.5788   -4.4219 H   0  0  0  0  0  0  0  0  0  0  0  0
   -1.7971    5.7824   -6.1432 H   0  0  0  0  0  0  0  0  0  0  0  0
   -1.4986    3.3240   -6.7943 N   0  0  0  0  0  0  0  0  0  0  0  0
   -1.2746    2.3407   -6.9348 H   0  0  0  0  0  0  0  0  0  0  0  0
   -1.3759    3.9576   -7.5823 H   0  0  0  0  0  0  0  0  0  0  0  0
   -0.7748    2.1536    1.7313 C   0  0  0  0  0  0  0  0  0  0  0  0
   -1.1454    3.2639    2.0912 O   0  0  0  0  0  0  0  0  0  0  0  0
   -0.0578    1.3477    2.5938 N   0  0  0  0  0  0  0  0  0  0  0  0
    0.0446    0.3712    2.3139 H   0  0  0  0  0  0  0  0  0  0  0  0
    0.1990    1.7032    3.9849 C   0  0  0  0  0  0  0  0  0  0  0  0
   -0.7415    1.7917    4.5388 H   0  0  0  0  0  0  0  0  0  0  0  0
    0.8134    0.9349    4.4648 H   0  0  0  0  0  0  0  0  0  0  0  0
    0.7340    2.6570    4.0456 H   0  0  0  0  0  0  0  0  0  0  0  0
  1  2  1  0  0  0  0
  2  3  1  0  0  0  0
  2  4  1  0  0  0  0
  2  5  1  0  0  0  0
  5  6  2  0  0  0  0
  5  7  1  0  0  0  0
  7  8  1  0  0  0  0
  7  9  1  0  0  0  0
  9 10  1  0  0  0  0
  9 11  1  0  0  0  0
  9 29  1  0  0  0  0
 11 12  1  0  0  0  0
 11 13  1  0  0  0  0
 11 14  1  0  0  0  0
 14 15  1  0  0  0  0
 14 16  1  0  0  0  0
 14 17  1  0  0  0  0
 17 18  1  0  0  0  0
 17 19  1  0  0  0  0
 17 20  1  0  0  0  0
 20 21  1  0  0  0  0
 20 22  2  0  0  0  0
 22 23  1  0  0  0  0
 22 26  1  0  0  0  0
 23 24  1  0  0  0  0
 23 25  1  0  0  0  0
 26 27  1  0  0  0  0
 26 28  1  0  0  0  0
 29 30  2  0  0  0  0
 29 31  1  0  0  0  0
 31 32  1  0  0  0  0
 31 33  1  0  0  0  0
 33 34  1  0  0  0  0
 33 35  1  0  0  0  0
 33 36  1  0  0  0  0
M  CHG  1  20   1
M  END
$$$$

  -OEChem-02172215453D

 36 35  0     1  0  0  0  0  0999 V2000
   -3.6953   -1.9579    1.5252 H   0  0  0  0  0  0  0  0  0  0  0  0
   -3.8125   -0.9665    1.0783 C   0  0  0  0  0  0  0  0  0  0  0  0
   -4.3543   -0.3280    1.7805 H   0  0  0  0  0  0  0  0  0  0  0  0
   -4.3942   -1.0621    0.1585 H   0  0  0  0  0  0  0  0  0  0  0  0
   -2.4527   -0.3684    0.7738 C   0  0  0  0  0  0  0  0  0  0  0  0
   -1.4355   -1.0065    0.9984 O   0  0  0  0  0  0  0  0  0  0  0  0
   -2.3549    0.9098    0.2563 N   0  0  0  0  0  0  0  0  0  0  0  0
   -3.2033    1.4676    0.3227 H   0  0  0  0  0  0  0  0  0  0  0  0
   -1.0767    1.6374    0.2861 C   0  0  1  0  0  0  0  0  0  0  0  0
   -0.2564    0.9734   -0.0075 H   0  0  0  0  0  0  0  0  0  0  0  0
   -1.1248    2.8012   -0.7207 C   0  0  0  0  0  0  0  0  0  0  0  0
   -1.9929    3.4342   -0.5053 H   0  0  0  0  0  0  0  0  0  0  0  0
   -0.2280    3.4176   -0.5930 H   0  0  0  0  0  0  0  0  0  0  0  0
   -1.1904    2.3057   -2.1711 C   0  0  0  0  0  0  0  0  0  0  0  0
   -0.3122    1.6883   -2.3892 H   0  0  0  0  0  0  0  0  0  0  0  0
   -2.0840    1.6885   -2.3129 H   0  0  0  0  0  0  0  0  0  0  0  0
   -1.2353    3.5052   -3.1156 C   0  0  0  0  0  0  0  0  0  0  0  0
   -2.1066    4.1210   -2.8666 H   0  0  0  0  0  0  0  0  0  0  0  0
   -0.3320    4.1090   -2.9724 H   0  0  0  0  0  0  0  0  0  0  0  0
   -1.3222    3.0456   -4.5137 N   0  3  0  0  0  0  0  0  0  0  0  0
   -1.3017    2.0393   -4.6743 H   0  0  0  0  0  0  0  0  0  0  0  0
   -1.4318    3.8516   -5.5302 C   0  0  0  0  0  0  0  0  0  0  0  0
   -1.4751    5.2182   -5.3714 N   0  0  0  0  0  0  0  0  0  0  0  0
   -1.5669    5.5884   -4.4274 H   0  0  0  0  0  0  0  0  0  0  0  0
   -1.7998    5.7926   -6.1467 H   0  0  0  0  0  0  0  0  0  0  0  0
   -1.5045    3.3348   -6.8017 N   0  0  0  0  0  0  0  0  0  0  0  0
   -1.2869    2.3501   -6.9429 H   0  0  0  0  0  0  0  0  0  0  0  0
   -1.3784    3.9680   -7.5896 H   0  0  0  0  0  0  0  0  0  0  0  0
   -0.7778    2.1441    1.7130 C   0  0  0  0  0  0  0  0  0  0  0  0
   -1.3627    3.1309    2.1416 O   0  0  0  0  0  0  0  0  0  0  0  0
    0.1750    1.5105    2.4871 N   0  0  0  0  0  0  0  0  0  0  0  0
    0.4655    0.5856    2.1735 H   0  0  0  0  0  0  0  0  0  0  0  0
    0.4400    1.8827    3.8727 C   0  0  0  0  0  0  0  0  0  0  0  0
   -0.4512    1.7265    4.4895 H   0  0  0  0  0  0  0  0  0  0  0  0
    1.2544    1.2749    4.2792 H   0  0  0  0  0  0  0  0  0  0  0  0
    0.7330    2.9361    3.9388 H   0  0  0  0  0  0  0  0  0  0  0  0
  1  2  1  0  0  0  0
  2  3  1  0  0  0  0
  2  4  1  0  0  0  0
  2  5  1  0  0  0  0
  5  6  2  0  0  0  0
  5  7  1  0  0  0  0
  7  8  1  0  0  0  0
  7  9  1  0  0  0  0
  9 10  1  0  0  0  0
  9 11  1  0  0  0  0
  9 29  1  0  0  0  0
 11 12  1  0  0  0  0
 11 13  1  0  0  0  0
 11 14  1  0  0  0  0
 14 15  1  0  0  0  0
 14 16  1  0  0  0  0
 14 17  1  0  0  0  0
 17 18  1  0  0  0  0
 17 19  1  0  0  0  0
 17 20  1  0  0  0  0
 20 21  1  0  0  0  0
 20 22  2  0  0  0  0
 22 23  1  0  0  0  0
 22 26  1  0  0  0  0
 23 24  1  0  0  0  0
 23 25  1  0  0  0  0
 26 27  1  0  0  0  0
 26 28  1  0  0  0  0
 29 30  2  0  0  0  0
 29 31  1  0  0  0  0
 31 32  1  0  0  0  0
 31 33  1  0  0  0  0
 33 34  1  0  0  0  0
 33 35  1  0  0  0  0
 33 36  1  0  0  0  0
M  CHG  1  20   1
M  END
$$$$

  -OEChem-02172215453D

 36 35  0     1  0  0  0  0  0999 V2000
   -3.6820   -1.9493    1.5546 H   0  0  0  0  0  0  0  0  0  0  0  0
   -3.8019   -0.9556    1.1129 C   0  0  0  0  0  0  0  0  0  0  0  0
   -4.3060   -0.3098    1.8361 H   0  0  0  0  0  0  0  0  0  0  0  0
   -4.4195   -1.0408    0.2159 H   0  0  0  0  0  0  0  0  0  0  0  0
   -2.4465   -0.3762    0.7581 C   0  0  0  0  0  0  0  0  0  0  0  0
   -1.4313   -1.0306    0.9388 O   0  0  0  0  0  0  0  0  0  0  0  0
   -2.3512    0.8999    0.2354 N   0  0  0  0  0  0  0  0  0  0  0  0
   -3.1931    1.4624    0.3385 H   0  0  0  0  0  0  0  0  0  0  0  0
   -1.0729    1.6272    0.2706 C   0  0  1  0  0  0  0  0  0  0  0  0
   -0.2518    0.9636   -0.0216 H   0  0  0  0  0  0  0  0  0  0  0  0
   -1.1214    2.7975   -0.7264 C   0  0  0  0  0  0  0  0  0  0  0  0
   -1.9901    3.4285   -0.5062 H   0  0  0  0  0  0  0  0  0  0  0  0
   -0.2240    3.4128   -0.5963 H   0  0  0  0  0  0  0  0  0  0  0  0
   -1.1879    2.3079   -2.1788 C   0  0  0  0  0  0  0  0  0  0  0  0
   -0.3103    1.6905   -2.3994 H   0  0  0  0  0  0  0  0  0  0  0  0
   -2.0823    1.6916   -2.3218 H   0  0  0  0  0  0  0  0  0  0  0  0
   -1.2333    3.5089   -3.1206 C   0  0  0  0  0  0  0  0  0  0  0  0
   -2.1039    4.1251   -2.8693 H   0  0  0  0  0  0  0  0  0  0  0  0
   -0.3287    4.1105   -2.9775 H   0  0  0  0  0  0  0  0  0  0  0  0
   -1.3214    3.0511   -4.5194 N   0  3  0  0  0  0  0  0  0  0  0  0
   -1.3077    2.0447   -4.6799 H   0  0  0  0  0  0  0  0  0  0  0  0
   -1.4316    3.8572   -5.5362 C   0  0  0  0  0  0  0  0  0  0  0  0
   -1.4745    5.2240   -5.3779 N   0  0  0  0  0  0  0  0  0  0  0  0
   -1.5707    5.5938   -4.4343 H   0  0  0  0  0  0  0  0  0  0  0  0
   -1.7958    5.7987   -6.1545 H   0  0  0  0  0  0  0  0  0  0  0  0
   -1.5054    3.3402   -6.8078 N   0  0  0  0  0  0  0  0  0  0  0  0
   -1.2902    2.3551   -6.9490 H   0  0  0  0  0  0  0  0  0  0  0  0
   -1.3754    3.9725   -7.5957 H   0  0  0  0  0  0  0  0  0  0  0  0
   -0.7824    2.1393    1.6968 C   0  0  0  0  0  0  0  0  0  0  0  0
   -1.5447    2.9520    2.2054 O   0  0  0  0  0  0  0  0  0  0  0  0
    0.3527    1.7344    2.3726 N   0  0  0  0  0  0  0  0  0  0  0  0
    0.8424    0.9257    1.9961 H   0  0  0  0  0  0  0  0  0  0  0  0
    0.6269    2.1237    3.7516 C   0  0  0  0  0  0  0  0  0  0  0  0
   -0.1532    1.7443    4.4201 H   0  0  0  0  0  0  0  0  0  0  0  0
    1.5896    1.7163    4.0760 H   0  0  0  0  0  0  0  0  0  0  0  0
    0.6678    3.2143    3.8425 H   0  0  0  0  0  0  0  0  0  0  0  0
  1  2  1  0  0  0  0
  2  3  1  0  0  0  0
  2  4  1  0  0  0  0
  2  5  1  0  0  0  0
  5  6  2  0  0  0  0
  5  7  1  0  0  0  0
  7  8  1  0  0  0  0
  7  9  1  0  0  0  0
  9 10  1  0  0  0  0
  9 11  1  0  0  0  0
  9 29  1  0  0  0  0
 11 12  1  0  0  0  0
 11 13  1  0  0  0  0
 11 14  1  0  0  0  0
 14 15  1  0  0  0  0
 14 16  1  0  0  0  0
 14 17  1  0  0  0  0
 17 18  1  0  0  0  0
 17 19  1  0  0  0  0
 17 20  1  0  0  0  0
 20 21  1  0  0  0  0
 20 22  2  0  0  0  0
 22 23  1  0  0  0  0
 22 26  1  0  0  0  0
 23 24  1  0  0  0  0
 23 25  1  0  0  0  0
 26 27  1  0  0  0  0
 26 28  1  0  0  0  0
 29 30  2  0  0  0  0
 29 31  1  0  0  0  0
 31 32  1  0  0  0  0
 31 33  1  0  0  0  0
 33 34  1  0  0  0  0
 33 35  1  0  0  0  0
 33 36  1  0  0  0  0
M  CHG  1  20   1
M  END
$$$$

  -OEChem-02172215453D

 36 35  0     1  0  0  0  0  0999 V2000
   -3.6691   -1.9418    1.5748 H   0  0  0  0  0  0  0  0  0  0  0  0
   -3.7944   -0.9470    1.1375 C   0  0  0  0  0  0  0  0  0  0  0  0
   -4.2677   -0.2969    1.8776 H   0  0  0  0  0  0  0  0  0  0  0  0
   -4.4426   -1.0263    0.2618 H   0  0  0  0  0  0  0  0  0  0  0  0
   -2.4457   -0.3809    0.7374 C   0  0  0  0  0  0  0  0  0  0  0  0
   -1.4338   -1.0512    0.8714 O   0  0  0  0  0  0  0  0  0  0  0  0
   -2.3546    0.8958    0.2157 N   0  0  0  0  0  0  0  0  0  0  0  0
   -3.1894    1.4596    0.3603 H   0  0  0  0  0  0  0  0  0  0  0  0
   -1.0757    1.6232    0.2609 C   0  0  1  0  0  0  0  0  0  0  0  0
   -0.2537    0.9601   -0.0301 H   0  0  0  0  0  0  0  0  0  0  0  0
   -1.1241    2.7994   -0.7279 C   0  0  0  0  0  0  0  0  0  0  0  0
   -1.9941    3.4271   -0.5046 H   0  0  0  0  0  0  0  0  0  0  0  0
   -0.2287    3.4164   -0.5930 H   0  0  0  0  0  0  0  0  0  0  0  0
   -1.1867    2.3148   -2.1826 C   0  0  0  0  0  0  0  0  0  0  0  0
   -0.3078    1.6991   -2.4028 H   0  0  0  0  0  0  0  0  0  0  0  0
   -2.0791    1.6969   -2.3290 H   0  0  0  0  0  0  0  0  0  0  0  0
   -1.2328    3.5158   -3.1246 C   0  0  0  0  0  0  0  0  0  0  0  0
   -2.1050    4.1304   -2.8759 H   0  0  0  0  0  0  0  0  0  0  0  0
   -0.3296    4.1194   -2.9811 H   0  0  0  0  0  0  0  0  0  0  0  0
   -1.3172    3.0548   -4.5227 N   0  3  0  0  0  0  0  0  0  0  0  0
   -1.2993    2.0479   -4.6811 H   0  0  0  0  0  0  0  0  0  0  0  0
   -1.4273    3.8580   -5.5417 C   0  0  0  0  0  0  0  0  0  0  0  0
   -1.4733    5.2249   -5.3864 N   0  0  0  0  0  0  0  0  0  0  0  0
   -1.5726    5.5968   -4.4439 H   0  0  0  0  0  0  0  0  0  0  0  0
   -1.7923    5.7976   -6.1653 H   0  0  0  0  0  0  0  0  0  0  0  0
   -1.5019    3.3376   -6.8119 N   0  0  0  0  0  0  0  0  0  0  0  0
   -1.2915    2.3511   -6.9516 H   0  0  0  0  0  0  0  0  0  0  0  0
   -1.3799    3.9674   -7.6031 H   0  0  0  0  0  0  0  0  0  0  0  0
   -0.7916    2.1349    1.6888 C   0  0  0  0  0  0  0  0  0  0  0  0
   -1.6687    2.7505    2.2826 O   0  0  0  0  0  0  0  0  0  0  0  0
    0.4597    1.9927    2.2589 N   0  0  0  0  0  0  0  0  0  0  0  0
    1.1020    1.3474    1.8062 H   0  0  0  0  0  0  0  0  0  0  0  0
    0.7498    2.4081    3.6272 C   0  0  0  0  0  0  0  0  0  0  0  0
    0.1326    1.8473    4.3372 H   0  0  0  0  0  0  0  0  0  0  0  0
    1.8025    2.2263    3.8643 H   0  0  0  0  0  0  0  0  0  0  0  0
    0.5486    3.4770    3.7561 H   0  0  0  0  0  0  0  0  0  0  0  0
  1  2  1  0  0  0  0
  2  3  1  0  0  0  0
  2  4  1  0  0  0  0
  2  5  1  0  0  0  0
  5  6  2  0  0  0  0
  5  7  1  0  0  0  0
  7  8  1  0  0  0  0
  7  9  1  0  0  0  0
  9 10  1  0  0  0  0
  9 11  1  0  0  0  0
  9 29  1  0  0  0  0
 11 12  1  0  0  0  0
 11 13  1  0  0  0  0
 11 14  1  0  0  0  0
 14 15  1  0  0  0  0
 14 16  1  0  0  0  0
 14 17  1  0  0  0  0
 17 18  1  0  0  0  0
 17 19  1  0  0  0  0
 17 20  1  0  0  0  0
 20 21  1  0  0  0  0
 20 22  2  0  0  0  0
 22 23  1  0  0  0  0
 22 26  1  0  0  0  0
 23 24  1  0  0  0  0
 23 25  1  0  0  0  0
 26 27  1  0  0  0  0
 26 28  1  0  0  0  0
 29 30  2  0  0  0  0
 29 31  1  0  0  0  0
 31 32  1  0  0  0  0
 31 33  1  0  0  0  0
 33 34  1  0  0  0  0
 33 35  1  0  0  0  0
 33 36  1  0  0  0  0
M  CHG  1  20   1
M  END
$$$$

  -OEChem-02172215453D

 36 35  0     1  0  0  0  0  0999 V2000
   -3.6625   -1.9295    1.5924 H   0  0  0  0  0  0  0  0  0  0  0  0
   -3.7916   -0.9384    1.1487 C   0  0  0  0  0  0  0  0  0  0  0  0
   -4.2448   -0.2788    1.8930 H   0  0  0  0  0  0  0  0  0  0  0  0
   -4.4590   -1.0212    0.2881 H   0  0  0  0  0  0  0  0  0  0  0  0
   -2.4490   -0.3826    0.7150 C   0  0  0  0  0  0  0  0  0  0  0  0
   -1.4417   -1.0666    0.8075 O   0  0  0  0  0  0  0  0  0  0  0  0
   -2.3621    0.8976    0.2009 N   0  0  0  0  0  0  0  0  0  0  0  0
   -3.1932    1.4584    0.3761 H   0  0  0  0  0  0  0  0  0  0  0  0
   -1.0844    1.6276    0.2593 C   0  0  1  0  0  0  0  0  0  0  0  0
   -0.2595    0.9665   -0.0280 H   0  0  0  0  0  0  0  0  0  0  0  0
   -1.1353    2.8062   -0.7264 C   0  0  0  0  0  0  0  0  0  0  0  0
   -2.0103    3.4279   -0.5051 H   0  0  0  0  0  0  0  0  0  0  0  0
   -0.2438    3.4279   -0.5881 H   0  0  0  0  0  0  0  0  0  0  0  0
   -1.1887    2.3220   -2.1818 C   0  0  0  0  0  0  0  0  0  0  0  0
   -0.3052    1.7111   -2.3976 H   0  0  0  0  0  0  0  0  0  0  0  0
   -2.0767    1.6982   -2.3319 H   0  0  0  0  0  0  0  0  0  0  0  0
   -1.2380    3.5211   -3.1259 C   0  0  0  0  0  0  0  0  0  0  0  0
   -2.1163    4.1294   -2.8829 H   0  0  0  0  0  0  0  0  0  0  0  0
   -0.3397    4.1318   -2.9793 H   0  0  0  0  0  0  0  0  0  0  0  0
   -1.3133    3.0556   -4.5231 N   0  3  0  0  0  0  0  0  0  0  0  0
   -1.2903    2.0483   -4.6780 H   0  0  0  0  0  0  0  0  0  0  0  0
   -1.4238    3.8545   -5.5453 C   0  0  0  0  0  0  0  0  0  0  0  0
   -1.4793    5.2217   -5.3952 N   0  0  0  0  0  0  0  0  0  0  0  0
   -1.5922    5.5956   -4.4551 H   0  0  0  0  0  0  0  0  0  0  0  0
   -1.7938    5.7898   -6.1795 H   0  0  0  0  0  0  0  0  0  0  0  0
   -1.4864    3.3284   -6.8138 N   0  0  0  0  0  0  0  0  0  0  0  0
   -1.2672    2.3430   -6.9480 H   0  0  0  0  0  0  0  0  0  0  0  0
   -1.3655    3.9560   -7.6070 H   0  0  0  0  0  0  0  0  0  0  0  0
   -0.8018    2.1354    1.6904 C   0  0  0  0  0  0  0  0  0  0  0  0
   -1.7360    2.5292    2.3787 O   0  0  0  0  0  0  0  0  0  0  0  0
    0.4951    2.2768    2.1491 N   0  0  0  0  0  0  0  0  0  0  0  0
    1.2310    1.8322    1.6072 H   0  0  0  0  0  0  0  0  0  0  0  0
    0.8047    2.7153    3.5065 C   0  0  0  0  0  0  0  0  0  0  0  0
    0.3865    2.0176    4.2401 H   0  0  0  0  0  0  0  0  0  0  0  0
    1.8883    2.7621    3.6525 H   0  0  0  0  0  0  0  0  0  0  0  0
    0.3896    3.7114    3.6935 H   0  0  0  0  0  0  0  0  0  0  0  0
  1  2  1  0  0  0  0
  2  3  1  0  0  0  0
  2  4  1  0  0  0  0
  2  5  1  0  0  0  0
  5  6  2  0  0  0  0
  5  7  1  0  0  0  0
  7  8  1  0  0  0  0
  7  9  1  0  0  0  0
  9 10  1  0  0  0  0
  9 11  1  0  0  0  0
  9 29  1  0  0  0  0
 11 12  1  0  0  0  0
 11 13  1  0  0  0  0
 11 14  1  0  0  0  0
 14 15  1  0  0  0  0
 14 16  1  0  0  0  0
 14 17  1  0  0  0  0
 17 18  1  0  0  0  0
 17 19  1  0  0  0  0
 17 20  1  0  0  0  0
 20 21  1  0  0  0  0
 20 22  2  0  0  0  0
 22 23  1  0  0  0  0
 22 26  1  0  0  0  0
 23 24  1  0  0  0  0
 23 25  1  0  0  0  0
 26 27  1  0  0  0  0
 26 28  1  0  0  0  0
 29 30  2  0  0  0  0
 29 31  1  0  0  0  0
 31 32  1  0  0  0  0
 31 33  1  0  0  0  0
 33 34  1  0  0  0  0
 33 35  1  0  0  0  0
 33 36  1  0  0  0  0
M  CHG  1  20   1
M  END
$$$$

  -OEChem-02172215453D

 36 35  0     1  0  0  0  0  0999 V2000
   -3.6392   -1.9607    1.5285 H   0  0  0  0  0  0  0  0  0  0  0  0
   -3.7684   -0.9384    1.1617 C   0  0  0  0  0  0  0  0  0  0  0  0
   -4.1496   -0.3196    1.9782 H   0  0  0  0  0  0  0  0  0  0  0  0
   -4.4949   -0.9457    0.3461 H   0  0  0  0  0  0  0  0  0  0  0  0
   -2.4419   -0.3880    0.6752 C   0  0  0  0  0  0  0  0  0  0  0  0
   -1.4377   -1.0818    0.7130 O   0  0  0  0  0  0  0  0  0  0  0  0
   -2.3659    0.8986    0.1749 N   0  0  0  0  0  0  0  0  0  0  0  0
   -3.1958    1.4499    0.3825 H   0  0  0  0  0  0  0  0  0  0  0  0
   -1.0917    1.6343    0.2582 C   0  0  1  0  0  0  0  0  0  0  0  0
   -0.2587    0.9808   -0.0234 H   0  0  0  0  0  0  0  0  0  0  0  0
   -1.1427    2.8164   -0.7247 C   0  0  0  0  0  0  0  0  0  0  0  0
   -2.0256    3.4296   -0.5122 H   0  0  0  0  0  0  0  0  0  0  0  0
   -0.2592    3.4472   -0.5775 H   0  0  0  0  0  0  0  0  0  0  0  0
   -1.1743    2.3320   -2.1816 C   0  0  0  0  0  0  0  0  0  0  0  0
   -0.2822    1.7294   -2.3862 H   0  0  0  0  0  0  0  0  0  0  0  0
   -2.0536    1.6984   -2.3425 H   0  0  0  0  0  0  0  0  0  0  0  0
   -1.2244    3.5282   -3.1299 C   0  0  0  0  0  0  0  0  0  0  0  0
   -2.1121    4.1280   -2.9000 H   0  0  0  0  0  0  0  0  0  0  0  0
   -0.3351    4.1495   -2.9748 H   0  0  0  0  0  0  0  0  0  0  0  0
   -1.2787    3.0564   -4.5261 N   0  3  0  0  0  0  0  0  0  0  0  0
   -1.2041    2.0512   -4.6785 H   0  0  0  0  0  0  0  0  0  0  0  0
   -1.3853    3.8487   -5.5539 C   0  0  0  0  0  0  0  0  0  0  0  0
   -1.4564    5.2164   -5.4103 N   0  0  0  0  0  0  0  0  0  0  0  0
   -1.5310    5.6154   -4.4769 H   0  0  0  0  0  0  0  0  0  0  0  0
   -1.6336    5.8078   -6.2196 H   0  0  0  0  0  0  0  0  0  0  0  0
   -1.4178    3.3136   -6.8201 N   0  0  0  0  0  0  0  0  0  0  0  0
   -1.4920    2.3053   -6.9421 H   0  0  0  0  0  0  0  0  0  0  0  0
   -1.5979    3.9189   -7.6189 H   0  0  0  0  0  0  0  0  0  0  0  0
   -0.8223    2.1302    1.6980 C   0  0  0  0  0  0  0  0  0  0  0  0
   -1.7637    2.2925    2.4658 O   0  0  0  0  0  0  0  0  0  0  0  0
    0.4374    2.5634    2.0710 N   0  0  0  0  0  0  0  0  0  0  0  0
    1.2131    2.3226    1.4608 H   0  0  0  0  0  0  0  0  0  0  0  0
    0.7375    3.0401    3.4177 C   0  0  0  0  0  0  0  0  0  0  0  0
    0.5522    2.2508    4.1545 H   0  0  0  0  0  0  0  0  0  0  0  0
    1.7872    3.3410    3.4897 H   0  0  0  0  0  0  0  0  0  0  0  0
    0.1144    3.9058    3.6669 H   0  0  0  0  0  0  0  0  0  0  0  0
  1  2  1  0  0  0  0
  2  3  1  0  0  0  0
  2  4  1  0  0  0  0
  2  5  1  0  0  0  0
  5  6  2  0  0  0  0
  5  7  1  0  0  0  0
  7  8  1  0  0  0  0
  7  9  1  0  0  0  0
  9 10  1  0  0  0  0
  9 11  1  0  0  0  0
  9 29  1  0  0  0  0
 11 12  1  0  0  0  0
 11 13  1  0  0  0  0
 11 14  1  0  0  0  0
 14 15  1  0  0  0  0
 14 16  1  0  0  0  0
 14 17  1  0  0  0  0
 17 18  1  0  0  0  0
 17 19  1  0  0  0  0
 17 20  1  0  0  0  0
 20 21  1  0  0  0  0
 20 22  2  0  0  0  0
 22 23  1  0  0  0  0
 22 26  1  0  0  0  0
 23 24  1  0  0  0  0
 23 25  1  0  0  0  0
 26 27  1  0  0  0  0
 26 28  1  0  0  0  0
 29 30  2  0  0  0  0
 29 31  1  0  0  0  0
 31 32  1  0  0  0  0
 31 33  1  0  0  0  0
 33 34  1  0  0  0  0
 33 35  1  0  0  0  0
 33 36  1  0  0  0  0
M  CHG  1  20   1
M  END
$$$$

  -OEChem-02172215453D

 36 35  0     1  0  0  0  0  0999 V2000
   -3.5556   -2.0331    1.4497 H   0  0  0  0  0  0  0  0  0  0  0  0
   -3.7096   -0.9911    1.1559 C   0  0  0  0  0  0  0  0  0  0  0  0
   -4.0290   -0.4242    2.0342 H   0  0  0  0  0  0  0  0  0  0  0  0
   -4.4926   -0.9510    0.3958 H   0  0  0  0  0  0  0  0  0  0  0  0
   -2.4199   -0.4094    0.6108 C   0  0  0  0  0  0  0  0  0  0  0  0
   -1.4133   -1.0976    0.5382 O   0  0  0  0  0  0  0  0  0  0  0  0
   -2.3796    0.8941    0.1466 N   0  0  0  0  0  0  0  0  0  0  0  0
   -3.2186    1.4138    0.3882 H   0  0  0  0  0  0  0  0  0  0  0  0
   -1.1179    1.6494    0.2674 C   0  0  1  0  0  0  0  0  0  0  0  0
   -0.3244    1.1091   -0.2609 H   0  0  0  0  0  0  0  0  0  0  0  0
   -1.3182    3.0216   -0.4038 C   0  0  0  0  0  0  0  0  0  0  0  0
   -2.1854    3.5222    0.0413 H   0  0  0  0  0  0  0  0  0  0  0  0
   -0.4425    3.6520   -0.2169 H   0  0  0  0  0  0  0  0  0  0  0  0
   -1.5081    2.8817   -1.9215 C   0  0  0  0  0  0  0  0  0  0  0  0
   -0.6304    2.3912   -2.3567 H   0  0  0  0  0  0  0  0  0  0  0  0
   -2.3824    2.2551   -2.1297 H   0  0  0  0  0  0  0  0  0  0  0  0
   -1.7036    4.2578   -2.5547 C   0  0  0  0  0  0  0  0  0  0  0  0
   -2.5741    4.7418   -2.0977 H   0  0  0  0  0  0  0  0  0  0  0  0
   -0.8195    4.8736   -2.3563 H   0  0  0  0  0  0  0  0  0  0  0  0
   -1.9086    4.1128   -4.0078 N   0  3  0  0  0  0  0  0  0  0  0  0
   -1.8310    3.1732   -4.3956 H   0  0  0  0  0  0  0  0  0  0  0  0
   -2.1583    5.1105   -4.8061 C   0  0  0  0  0  0  0  0  0  0  0  0
   -2.2515    6.4043   -4.3456 N   0  0  0  0  0  0  0  0  0  0  0  0
   -1.9591    6.5945   -3.3893 H   0  0  0  0  0  0  0  0  0  0  0  0
   -2.2207    7.1675   -5.0187 H   0  0  0  0  0  0  0  0  0  0  0  0
   -2.3333    4.8760   -6.1491 N   0  0  0  0  0  0  0  0  0  0  0  0
   -2.4367    3.9154   -6.4710 H   0  0  0  0  0  0  0  0  0  0  0  0
   -2.7249    5.6180   -6.7267 H   0  0  0  0  0  0  0  0  0  0  0  0
   -0.6449    1.8080    1.7382 C   0  0  0  0  0  0  0  0  0  0  0  0
   -1.4209    1.5752    2.6576 O   0  0  0  0  0  0  0  0  0  0  0  0
    0.5261    2.4878    2.0279 N   0  0  0  0  0  0  0  0  0  0  0  0
    1.1925    2.6089    1.2714 H   0  0  0  0  0  0  0  0  0  0  0  0
    0.9819    2.7244    3.3948 C   0  0  0  0  0  0  0  0  0  0  0  0
    1.1235    1.7745    3.9216 H   0  0  0  0  0  0  0  0  0  0  0  0
    1.9344    3.2634    3.3905 H   0  0  0  0  0  0  0  0  0  0  0  0
    0.2499    3.3249    3.9459 H   0  0  0  0  0  0  0  0  0  0  0  0
  1  2  1  0  0  0  0
  2  3  1  0  0  0  0
  2  4  1  0  0  0  0
  2  5  1  0  0  0  0
  5  6  2  0  0  0  0
  5  7  1  0  0  0  0
  7  8  1  0  0  0  0
  7  9  1  0  0  0  0
  9 10  1  0  0  0  0
  9 11  1  0  0  0  0
  9 29  1  0  0  0  0
 11 12  1  0  0  0  0
 11 13  1  0  0  0  0
 11 14  1  0  0  0  0
 14 15  1  0  0  0  0
 14 16  1  0  0  0  0
 14 17  1  0  0  0  0
 17 18  1  0  0  0  0
 17 19  1  0  0  0  0
 17 20  1  0  0  0  0
 20 21  1  0  0  0  0
 20 22  2  0  0  0  0
 22 23  1  0  0  0  0
 22 26  1  0  0  0  0
 23 24  1  0  0  0  0
 23 25  1  0  0  0  0
 26 27  1  0  0  0  0
 26 28  1  0  0  0  0
 29 30  2  0  0  0  0
 29 31  1  0  0  0  0
 31 32  1  0  0  0  0
 31 33  1  0  0  0  0
 33 34  1  0  0  0  0
 33 35  1  0  0  0  0
 33 36  1  0  0  0  0
M  CHG  1  20   1
M  END
$$$$

  -OEChem-02172215453D

 36 35  0     1  0  0  0  0  0999 V2000
   -3.5548   -2.0367    1.3801 H   0  0  0  0  0  0  0  0  0  0  0  0
   -3.7057   -0.9798    1.1425 C   0  0  0  0  0  0  0  0  0  0  0  0
   -3.9840   -0.4527    2.0586 H   0  0  0  0  0  0  0  0  0  0  0  0
   -4.5156   -0.8935    0.4151 H   0  0  0  0  0  0  0  0  0  0  0  0
   -2.4287   -0.3881    0.5789 C   0  0  0  0  0  0  0  0  0  0  0  0
   -1.4374   -1.0859    0.4300 O   0  0  0  0  0  0  0  0  0  0  0  0
   -2.3899    0.9285    0.1522 N   0  0  0  0  0  0  0  0  0  0  0  0
   -3.2266    1.4401    0.4173 H   0  0  0  0  0  0  0  0  0  0  0  0
   -1.1266    1.6823    0.2844 C   0  0  1  0  0  0  0  0  0  0  0  0
   -0.3369    1.1465   -0.2541 H   0  0  0  0  0  0  0  0  0  0  0  0
   -1.3311    3.0546   -0.3906 C   0  0  0  0  0  0  0  0  0  0  0  0
   -2.2028    3.5520    0.0493 H   0  0  0  0  0  0  0  0  0  0  0  0
   -0.4600    3.6920   -0.2096 H   0  0  0  0  0  0  0  0  0  0  0  0
   -1.5124    2.9048   -1.9093 C   0  0  0  0  0  0  0  0  0  0  0  0
   -0.6293    2.4163   -2.3360 H   0  0  0  0  0  0  0  0  0  0  0  0
   -2.3813    2.2712   -2.1186 H   0  0  0  0  0  0  0  0  0  0  0  0
   -1.7131    4.2727   -2.5586 C   0  0  0  0  0  0  0  0  0  0  0  0
   -2.5897    4.7565   -2.1131 H   0  0  0  0  0  0  0  0  0  0  0  0
   -0.8335    4.8963   -2.3635 H   0  0  0  0  0  0  0  0  0  0  0  0
   -1.9087    4.1059   -4.0108 N   0  3  0  0  0  0  0  0  0  0  0  0
   -1.8216    3.1612   -4.3841 H   0  0  0  0  0  0  0  0  0  0  0  0
   -2.1607    5.0893   -4.8262 C   0  0  0  0  0  0  0  0  0  0  0  0
   -2.2658    6.3896   -4.3862 N   0  0  0  0  0  0  0  0  0  0  0  0
   -1.9786    6.5966   -3.4319 H   0  0  0  0  0  0  0  0  0  0  0  0
   -2.2384    7.1434   -5.0703 H   0  0  0  0  0  0  0  0  0  0  0  0
   -2.3300    4.8316   -6.1658 N   0  0  0  0  0  0  0  0  0  0  0  0
   -2.4300    3.8653   -6.4715 H   0  0  0  0  0  0  0  0  0  0  0  0
   -2.7255    5.5616   -6.7558 H   0  0  0  0  0  0  0  0  0  0  0  0
   -0.6275    1.8109    1.7546 C   0  0  0  0  0  0  0  0  0  0  0  0
   -1.2754    1.3262    2.6743 O   0  0  0  0  0  0  0  0  0  0  0  0
    0.3567    2.7276    2.0874 N   0  0  0  0  0  0  0  0  0  0  0  0
    0.9306    3.0905    1.3332 H   0  0  0  0  0  0  0  0  0  0  0  0
    0.7930    2.9589    3.4620 C   0  0  0  0  0  0  0  0  0  0  0  0
    1.1711    2.0315    3.9062 H   0  0  0  0  0  0  0  0  0  0  0  0
    1.5931    3.7049    3.4866 H   0  0  0  0  0  0  0  0  0  0  0  0
   -0.0384    3.3267    4.0730 H   0  0  0  0  0  0  0  0  0  0  0  0
  1  2  1  0  0  0  0
  2  3  1  0  0  0  0
  2  4  1  0  0  0  0
  2  5  1  0  0  0  0
  5  6  2  0  0  0  0
  5  7  1  0  0  0  0
  7  8  1  0  0  0  0
  7  9  1  0  0  0  0
  9 10  1  0  0  0  0
  9 11  1  0  0  0  0
  9 29  1  0  0  0  0
 11 12  1  0  0  0  0
 11 13  1  0  0  0  0
 11 14  1  0  0  0  0
 14 15  1  0  0  0  0
 14 16  1  0  0  0  0
 14 17  1  0  0  0  0
 17 18  1  0  0  0  0
 17 19  1  0  0  0  0
 17 20  1  0  0  0  0
 20 21  1  0  0  0  0
 20 22  2  0  0  0  0
 22 23  1  0  0  0  0
 22 26  1  0  0  0  0
 23 24  1  0  0  0  0
 23 25  1  0  0  0  0
 26 27  1  0  0  0  0
 26 28  1  0  0  0  0
 29 30  2  0  0  0  0
 29 31  1  0  0  0  0
 31 32  1  0  0  0  0
 31 33  1  0  0  0  0
 33 34  1  0  0  0  0
 33 35  1  0  0  0  0
 33 36  1  0  0  0  0
M  CHG  1  20   1
M  END
$$$$

  -OEChem-02172215453D

 36 35  0     1  0  0  0  0  0999 V2000
   -3.5361   -2.0231    1.3599 H   0  0  0  0  0  0  0  0  0  0  0  0
   -3.6970   -0.9645    1.1368 C   0  0  0  0  0  0  0  0  0  0  0  0
   -3.9534   -0.4484    2.0654 H   0  0  0  0  0  0  0  0  0  0  0  0
   -4.5255   -0.8738    0.4311 H   0  0  0  0  0  0  0  0  0  0  0  0
   -2.4365   -0.3627    0.5472 C   0  0  0  0  0  0  0  0  0  0  0  0
   -1.4677   -1.0669    0.3098 O   0  0  0  0  0  0  0  0  0  0  0  0
   -2.4021    0.9665    0.1611 N   0  0  0  0  0  0  0  0  0  0  0  0
   -3.2390    1.4664    0.4458 H   0  0  0  0  0  0  0  0  0  0  0  0
   -1.1429    1.7274    0.3024 C   0  0  1  0  0  0  0  0  0  0  0  0
   -0.3540    1.1980   -0.2440 H   0  0  0  0  0  0  0  0  0  0  0  0
   -1.3525    3.0967   -0.3798 C   0  0  0  0  0  0  0  0  0  0  0  0
   -2.2302    3.5918    0.0505 H   0  0  0  0  0  0  0  0  0  0  0  0
   -0.4855    3.7400   -0.2017 H   0  0  0  0  0  0  0  0  0  0  0  0
   -1.5206    2.9311   -1.8995 C   0  0  0  0  0  0  0  0  0  0  0  0
   -0.6309    2.4437   -2.3139 H   0  0  0  0  0  0  0  0  0  0  0  0
   -2.3827    2.2884   -2.1094 H   0  0  0  0  0  0  0  0  0  0  0  0
   -1.7271    4.2884   -2.5689 C   0  0  0  0  0  0  0  0  0  0  0  0
   -2.6104    4.7729   -2.1380 H   0  0  0  0  0  0  0  0  0  0  0  0
   -0.8536    4.9214   -2.3775 H   0  0  0  0  0  0  0  0  0  0  0  0
   -1.9090    4.0969   -4.0198 N   0  3  0  0  0  0  0  0  0  0  0  0
   -1.8142    3.1462   -4.3765 H   0  0  0  0  0  0  0  0  0  0  0  0
   -2.1624    5.0646   -4.8531 C   0  0  0  0  0  0  0  0  0  0  0  0
   -2.2825    6.3709   -4.4360 N   0  0  0  0  0  0  0  0  0  0  0  0
   -2.0079    6.5959   -3.4822 H   0  0  0  0  0  0  0  0  0  0  0  0
   -2.2500    7.1126   -5.1329 H   0  0  0  0  0  0  0  0  0  0  0  0
   -2.3165    4.7844   -6.1899 N   0  0  0  0  0  0  0  0  0  0  0  0
   -2.4043    3.8124   -6.4810 H   0  0  0  0  0  0  0  0  0  0  0  0
   -2.7135    5.5012   -6.7949 H   0  0  0  0  0  0  0  0  0  0  0  0
   -0.6179    1.8282    1.7691 C   0  0  0  0  0  0  0  0  0  0  0  0
   -1.0534    1.0928    2.6448 O   0  0  0  0  0  0  0  0  0  0  0  0
    0.1213    2.9236    2.1884 N   0  0  0  0  0  0  0  0  0  0  0  0
    0.5171    3.5247    1.4737 H   0  0  0  0  0  0  0  0  0  0  0  0
    0.5571    3.1100    3.5706 C   0  0  0  0  0  0  0  0  0  0  0  0
    1.1717    2.2638    3.8969 H   0  0  0  0  0  0  0  0  0  0  0  0
    1.1513    4.0243    3.6632 H   0  0  0  0  0  0  0  0  0  0  0  0
   -0.3072    3.1932    4.2382 H   0  0  0  0  0  0  0  0  0  0  0  0
  1  2  1  0  0  0  0
  2  3  1  0  0  0  0
  2  4  1  0  0  0  0
  2  5  1  0  0  0  0
  5  6  2  0  0  0  0
  5  7  1  0  0  0  0
  7  8  1  0  0  0  0
  7  9  1  0  0  0  0
  9 10  1  0  0  0  0
  9 11  1  0  0  0  0
  9 29  1  0  0  0  0
 11 12  1  0  0  0  0
 11 13  1  0  0  0  0
 11 14  1  0  0  0  0
 14 15  1  0  0  0  0
 14 16  1  0  0  0  0
 14 17  1  0  0  0  0
 17 18  1  0  0  0  0
 17 19  1  0  0  0  0
 17 20  1  0  0  0  0
 20 21  1  0  0  0  0
 20 22  2  0  0  0  0
 22 23  1  0  0  0  0
 22 26  1  0  0  0  0
 23 24  1  0  0  0  0
 23 25  1  0  0  0  0
 26 27  1  0  0  0  0
 26 28  1  0  0  0  0
 29 30  2  0  0  0  0
 29 31  1  0  0  0  0
 31 32  1  0  0  0  0
 31 33  1  0  0  0  0
 33 34  1  0  0  0  0
 33 35  1  0  0  0  0
 33 36  1  0  0  0  0
M  CHG  1  20   1
M  END
$$$$

  -OEChem-02172215453D

 36 35  0     1  0  0  0  0  0999 V2000
   -3.5103   -2.0244    1.3348 H   0  0  0  0  0  0  0  0  0  0  0  0
   -3.6728   -0.9568    1.1616 C   0  0  0  0  0  0  0  0  0  0  0  0
   -3.8707   -0.4744    2.1220 H   0  0  0  0  0  0  0  0  0  0  0  0
   -4.5393   -0.8323    0.5085 H   0  0  0  0  0  0  0  0  0  0  0  0
   -2.4421   -0.3430    0.5242 C   0  0  0  0  0  0  0  0  0  0  0  0
   -1.4997   -1.0457    0.1964 O   0  0  0  0  0  0  0  0  0  0  0  0
   -2.4233    0.9948    0.1695 N   0  0  0  0  0  0  0  0  0  0  0  0
   -3.2609    1.4787    0.4780 H   0  0  0  0  0  0  0  0  0  0  0  0
   -1.1729    1.7696    0.3121 C   0  0  1  0  0  0  0  0  0  0  0  0
   -0.3837    1.2466   -0.2403 H   0  0  0  0  0  0  0  0  0  0  0  0
   -1.3790    3.1380   -0.3726 C   0  0  0  0  0  0  0  0  0  0  0  0
   -2.2605    3.6342    0.0479 H   0  0  0  0  0  0  0  0  0  0  0  0
   -0.5106    3.7794   -0.1911 H   0  0  0  0  0  0  0  0  0  0  0  0
   -1.5338    2.9617   -1.8929 C   0  0  0  0  0  0  0  0  0  0  0  0
   -0.6392    2.4729   -2.2948 H   0  0  0  0  0  0  0  0  0  0  0  0
   -2.3919    2.3141   -2.1041 H   0  0  0  0  0  0  0  0  0  0  0  0
   -1.7377    4.3100   -2.5808 C   0  0  0  0  0  0  0  0  0  0  0  0
   -2.6275    4.7960   -2.1654 H   0  0  0  0  0  0  0  0  0  0  0  0
   -0.8685    4.9488   -2.3893 H   0  0  0  0  0  0  0  0  0  0  0  0
   -1.9051    4.0955   -4.0304 N   0  3  0  0  0  0  0  0  0  0  0  0
   -1.8022    3.1397   -4.3708 H   0  0  0  0  0  0  0  0  0  0  0  0
   -2.1532    5.0473   -4.8833 C   0  0  0  0  0  0  0  0  0  0  0  0
   -2.2816    6.3605   -4.4913 N   0  0  0  0  0  0  0  0  0  0  0  0
   -2.0070    6.6047   -3.5423 H   0  0  0  0  0  0  0  0  0  0  0  0
   -2.2476    7.0882   -5.2027 H   0  0  0  0  0  0  0  0  0  0  0  0
   -2.2902    4.7420   -6.2165 N   0  0  0  0  0  0  0  0  0  0  0  0
   -2.3620    3.7647   -6.4938 H   0  0  0  0  0  0  0  0  0  0  0  0
   -2.6766    5.4465   -6.8423 H   0  0  0  0  0  0  0  0  0  0  0  0
   -0.6302    1.8467    1.7731 C   0  0  0  0  0  0  0  0  0  0  0  0
   -0.7638    0.9120    2.5489 O   0  0  0  0  0  0  0  0  0  0  0  0
   -0.1778    3.0425    2.3089 N   0  0  0  0  0  0  0  0  0  0  0  0
   -0.0699    3.8331    1.6834 H   0  0  0  0  0  0  0  0  0  0  0  0
    0.2696    3.1817    3.6930 C   0  0  0  0  0  0  0  0  0  0  0  0
    1.0959    2.4931    3.9005 H   0  0  0  0  0  0  0  0  0  0  0  0
    0.6169    4.2024    3.8804 H   0  0  0  0  0  0  0  0  0  0  0  0
   -0.5502    2.9641    4.3861 H   0  0  0  0  0  0  0  0  0  0  0  0
  1  2  1  0  0  0  0
  2  3  1  0  0  0  0
  2  4  1  0  0  0  0
  2  5  1  0  0  0  0
  5  6  2  0  0  0  0
  5  7  1  0  0  0  0
  7  8  1  0  0  0  0
  7  9  1  0  0  0  0
  9 10  1  0  0  0  0
  9 11  1  0  0  0  0
  9 29  1  0  0  0  0
 11 12  1  0  0  0  0
 11 13  1  0  0  0  0
 11 14  1  0  0  0  0
 14 15  1  0  0  0  0
 14 16  1  0  0  0  0
 14 17  1  0  0  0  0
 17 18  1  0  0  0  0
 17 19  1  0  0  0  0
 17 20  1  0  0  0  0
 20 21  1  0  0  0  0
 20 22  2  0  0  0  0
 22 23  1  0  0  0  0
 22 26  1  0  0  0  0
 23 24  1  0  0  0  0
 23 25  1  0  0  0  0
 26 27  1  0  0  0  0
 26 28  1  0  0  0  0
 29 30  2  0  0  0  0
 29 31  1  0  0  0  0
 31 32  1  0  0  0  0
 31 33  1  0  0  0  0
 33 34  1  0  0  0  0
 33 35  1  0  0  0  0
 33 36  1  0  0  0  0
M  CHG  1  20   1
M  END
$$$$

  -OEChem-02172215453D

 36 35  0     1  0  0  0  0  0999 V2000
   -3.5055   -2.0242    1.3435 H   0  0  0  0  0  0  0  0  0  0  0  0
   -3.6744   -0.9584    1.1655 C   0  0  0  0  0  0  0  0  0  0  0  0
   -3.8884   -0.4749    2.1217 H   0  0  0  0  0  0  0  0  0  0  0  0
   -4.5338   -0.8432    0.5017 H   0  0  0  0  0  0  0  0  0  0  0  0
   -2.4409   -0.3379    0.5389 C   0  0  0  0  0  0  0  0  0  0  0  0
   -1.5035   -1.0406    0.1998 O   0  0  0  0  0  0  0  0  0  0  0  0
   -2.4297    0.9994    0.1827 N   0  0  0  0  0  0  0  0  0  0  0  0
   -3.2756    1.4798    0.4731 H   0  0  0  0  0  0  0  0  0  0  0  0
   -1.1862    1.7854    0.3158 C   0  0  1  0  0  0  0  0  0  0  0  0
   -0.3959    1.2619   -0.2352 H   0  0  0  0  0  0  0  0  0  0  0  0
   -1.3855    3.1517   -0.3714 C   0  0  0  0  0  0  0  0  0  0  0  0
   -2.2675    3.6515    0.0431 H   0  0  0  0  0  0  0  0  0  0  0  0
   -0.5135    3.7876   -0.1836 H   0  0  0  0  0  0  0  0  0  0  0  0
   -1.5371    2.9714   -1.8909 C   0  0  0  0  0  0  0  0  0  0  0  0
   -0.6427    2.4783   -2.2885 H   0  0  0  0  0  0  0  0  0  0  0  0
   -2.3969    2.3255   -2.1010 H   0  0  0  0  0  0  0  0  0  0  0  0
   -1.7344    4.3172   -2.5851 C   0  0  0  0  0  0  0  0  0  0  0  0
   -2.6230    4.8095   -2.1742 H   0  0  0  0  0  0  0  0  0  0  0  0
   -0.8616    4.9520   -2.3953 H   0  0  0  0  0  0  0  0  0  0  0  0
   -1.8988    4.0956   -4.0341 N   0  3  0  0  0  0  0  0  0  0  0  0
   -1.7946    3.1381   -4.3693 H   0  0  0  0  0  0  0  0  0  0  0  0
   -2.1413    5.0436   -4.8930 C   0  0  0  0  0  0  0  0  0  0  0  0
   -2.2660    6.3595   -4.5091 N   0  0  0  0  0  0  0  0  0  0  0  0
   -1.9924    6.6076   -3.5608 H   0  0  0  0  0  0  0  0  0  0  0  0
   -2.2206    7.0823   -5.2248 H   0  0  0  0  0  0  0  0  0  0  0  0
   -2.2791    4.7303   -6.2242 N   0  0  0  0  0  0  0  0  0  0  0  0
   -2.3625    3.7513   -6.4921 H   0  0  0  0  0  0  0  0  0  0  0  0
   -2.6671    5.4315   -6.8526 H   0  0  0  0  0  0  0  0  0  0  0  0
   -0.6421    1.8661    1.7722 C   0  0  0  0  0  0  0  0  0  0  0  0
   -0.4522    0.8578    2.4332 O   0  0  0  0  0  0  0  0  0  0  0  0
   -0.4910    3.0858    2.4131 N   0  0  0  0  0  0  0  0  0  0  0  0
   -0.6804    3.9296    1.8835 H   0  0  0  0  0  0  0  0  0  0  0  0
   -0.0561    3.2126    3.8020 C   0  0  0  0  0  0  0  0  0  0  0  0
    0.9307    2.7572    3.9387 H   0  0  0  0  0  0  0  0  0  0  0  0
    0.0090    4.2675    4.0857 H   0  0  0  0  0  0  0  0  0  0  0  0
   -0.7654    2.7173    4.4739 H   0  0  0  0  0  0  0  0  0  0  0  0
  1  2  1  0  0  0  0
  2  3  1  0  0  0  0
  2  4  1  0  0  0  0
  2  5  1  0  0  0  0
  5  6  2  0  0  0  0
  5  7  1  0  0  0  0
  7  8  1  0  0  0  0
  7  9  1  0  0  0  0
  9 10  1  0  0  0  0
  9 11  1  0  0  0  0
  9 29  1  0  0  0  0
 11 12  1  0  0  0  0
 11 13  1  0  0  0  0
 11 14  1  0  0  0  0
 14 15  1  0  0  0  0
 14 16  1  0  0  0  0
 14 17  1  0  0  0  0
 17 18  1  0  0  0  0
 17 19  1  0  0  0  0
 17 20  1  0  0  0  0
 20 21  1  0  0  0  0
 20 22  2  0  0  0  0
 22 23  1  0  0  0  0
 22 26  1  0  0  0  0
 23 24  1  0  0  0  0
 23 25  1  0  0  0  0
 26 27  1  0  0  0  0
 26 28  1  0  0  0  0
 29 30  2  0  0  0  0
 29 31  1  0  0  0  0
 31 32  1  0  0  0  0
 31 33  1  0  0  0  0
 33 34  1  0  0  0  0
 33 35  1  0  0  0  0
 33 36  1  0  0  0  0
M  CHG  1  20   1
M  END
$$$$

  -OEChem-02172215453D

 36 35  0     1  0  0  0  0  0999 V2000
   -3.5418   -2.0313    1.3371 H   0  0  0  0  0  0  0  0  0  0  0  0
   -3.7120   -0.9721    1.1227 C   0  0  0  0  0  0  0  0  0  0  0  0
   -4.0061   -0.4726    2.0486 H   0  0  0  0  0  0  0  0  0  0  0  0
   -4.5200   -0.8856    0.3929 H   0  0  0  0  0  0  0  0  0  0  0  0
   -2.4444   -0.3449    0.5762 C   0  0  0  0  0  0  0  0  0  0  0  0
   -1.4790   -1.0433    0.3228 O   0  0  0  0  0  0  0  0  0  0  0  0
   -2.4301    0.9879    0.2034 N   0  0  0  0  0  0  0  0  0  0  0  0
   -3.2906    1.4709    0.4417 H   0  0  0  0  0  0  0  0  0  0  0  0
   -1.1943    1.7858    0.3269 C   0  0  1  0  0  0  0  0  0  0  0  0
   -0.3997    1.2612   -0.2174 H   0  0  0  0  0  0  0  0  0  0  0  0
   -1.3900    3.1485   -0.3651 C   0  0  0  0  0  0  0  0  0  0  0  0
   -2.2735    3.6506    0.0430 H   0  0  0  0  0  0  0  0  0  0  0  0
   -0.5188    3.7834   -0.1690 H   0  0  0  0  0  0  0  0  0  0  0  0
   -1.5382    2.9650   -1.8841 C   0  0  0  0  0  0  0  0  0  0  0  0
   -0.6428    2.4710   -2.2786 H   0  0  0  0  0  0  0  0  0  0  0  0
   -2.3981    2.3196   -2.0953 H   0  0  0  0  0  0  0  0  0  0  0  0
   -1.7315    4.3113   -2.5790 C   0  0  0  0  0  0  0  0  0  0  0  0
   -2.6199    4.8049   -2.1693 H   0  0  0  0  0  0  0  0  0  0  0  0
   -0.8589    4.9453   -2.3859 H   0  0  0  0  0  0  0  0  0  0  0  0
   -1.8936    4.0936   -4.0290 N   0  3  0  0  0  0  0  0  0  0  0  0
   -1.7892    3.1371   -4.3671 H   0  0  0  0  0  0  0  0  0  0  0  0
   -2.1323    5.0450   -4.8853 C   0  0  0  0  0  0  0  0  0  0  0  0
   -2.2540    6.3594   -4.4955 N   0  0  0  0  0  0  0  0  0  0  0  0
   -1.9687    6.6018   -3.5491 H   0  0  0  0  0  0  0  0  0  0  0  0
   -2.2062    7.0842   -5.2090 H   0  0  0  0  0  0  0  0  0  0  0  0
   -2.2704    4.7380   -6.2181 N   0  0  0  0  0  0  0  0  0  0  0  0
   -2.3546    3.7607   -6.4919 H   0  0  0  0  0  0  0  0  0  0  0  0
   -2.6532    5.4441   -6.8447 H   0  0  0  0  0  0  0  0  0  0  0  0
   -0.6612    1.8862    1.7817 C   0  0  0  0  0  0  0  0  0  0  0  0
   -0.1302    0.9320    2.3245 O   0  0  0  0  0  0  0  0  0  0  0  0
   -0.8104    3.0521    2.5155 N   0  0  0  0  0  0  0  0  0  0  0  0
   -1.2748    3.8379    2.0738 H   0  0  0  0  0  0  0  0  0  0  0  0
   -0.3567    3.1894    3.8969 C   0  0  0  0  0  0  0  0  0  0  0  0
    0.7231    3.0184    3.9649 H   0  0  0  0  0  0  0  0  0  0  0  0
   -0.5702    4.1956    4.2702 H   0  0  0  0  0  0  0  0  0  0  0  0
   -0.8667    2.4662    4.5426 H   0  0  0  0  0  0  0  0  0  0  0  0
  1  2  1  0  0  0  0
  2  3  1  0  0  0  0
  2  4  1  0  0  0  0
  2  5  1  0  0  0  0
  5  6  2  0  0  0  0
  5  7  1  0  0  0  0
  7  8  1  0  0  0  0
  7  9  1  0  0  0  0
  9 10  1  0  0  0  0
  9 11  1  0  0  0  0
  9 29  1  0  0  0  0
 11 12  1  0  0  0  0
 11 13  1  0  0  0  0
 11 14  1  0  0  0  0
 14 15  1  0  0  0  0
 14 16  1  0  0  0  0
 14 17  1  0  0  0  0
 17 18  1  0  0  0  0
 17 19  1  0  0  0  0
 17 20  1  0  0  0  0
 20 21  1  0  0  0  0
 20 22  2  0  0  0  0
 22 23  1  0  0  0  0
 22 26  1  0  0  0  0
 23 24  1  0  0  0  0
 23 25  1  0  0  0  0
 26 27  1  0  0  0  0
 26 28  1  0  0  0  0
 29 30  2  0  0  0  0
 29 31  1  0  0  0  0
 31 32  1  0  0  0  0
 31 33  1  0  0  0  0
 33 34  1  0  0  0  0
 33 35  1  0  0  0  0
 33 36  1  0  0  0  0
M  CHG  1  20   1
M  END
$$$$

  -OEChem-02172215453D

 36 35  0     1  0  0  0  0  0999 V2000
   -3.6277   -2.0394    1.3430 H   0  0  0  0  0  0  0  0  0  0  0  0
   -3.7981   -1.0143    1.0012 C   0  0  0  0  0  0  0  0  0  0  0  0
   -4.2811   -0.4552    1.8059 H   0  0  0  0  0  0  0  0  0  0  0  0
   -4.4579   -1.0384    0.1311 H   0  0  0  0  0  0  0  0  0  0  0  0
   -2.4780   -0.3645    0.6343 C   0  0  0  0  0  0  0  0  0  0  0  0
   -1.4653   -1.0372    0.5888 O   0  0  0  0  0  0  0  0  0  0  0  0
   -2.4435    0.9633    0.2453 N   0  0  0  0  0  0  0  0  0  0  0  0
   -3.3247    1.4516    0.3679 H   0  0  0  0  0  0  0  0  0  0  0  0
   -1.2121    1.7704    0.3524 C   0  0  1  0  0  0  0  0  0  0  0  0
   -0.4212    1.2385   -0.1911 H   0  0  0  0  0  0  0  0  0  0  0  0
   -1.3988    3.1304   -0.3453 C   0  0  0  0  0  0  0  0  0  0  0  0
   -2.2790    3.6402    0.0604 H   0  0  0  0  0  0  0  0  0  0  0  0
   -0.5239    3.7601   -0.1472 H   0  0  0  0  0  0  0  0  0  0  0  0
   -1.5487    2.9461   -1.8629 C   0  0  0  0  0  0  0  0  0  0  0  0
   -0.6573    2.4460   -2.2582 H   0  0  0  0  0  0  0  0  0  0  0  0
   -2.4135    2.3076   -2.0730 H   0  0  0  0  0  0  0  0  0  0  0  0
   -1.7322    4.2959   -2.5535 C   0  0  0  0  0  0  0  0  0  0  0  0
   -2.6159    4.7954   -2.1412 H   0  0  0  0  0  0  0  0  0  0  0  0
   -0.8542    4.9220   -2.3581 H   0  0  0  0  0  0  0  0  0  0  0  0
   -1.8966    4.0865   -4.0041 N   0  3  0  0  0  0  0  0  0  0  0  0
   -1.7927    3.1327   -4.3490 H   0  0  0  0  0  0  0  0  0  0  0  0
   -2.1283    5.0452   -4.8540 C   0  0  0  0  0  0  0  0  0  0  0  0
   -2.2398    6.3577   -4.4550 N   0  0  0  0  0  0  0  0  0  0  0  0
   -1.9630    6.5892   -3.5035 H   0  0  0  0  0  0  0  0  0  0  0  0
   -2.1740    7.0875   -5.1619 H   0  0  0  0  0  0  0  0  0  0  0  0
   -2.2590    4.7494   -6.1901 N   0  0  0  0  0  0  0  0  0  0  0  0
   -2.3340    3.7747   -6.4756 H   0  0  0  0  0  0  0  0  0  0  0  0
   -2.6302    5.4625   -6.8156 H   0  0  0  0  0  0  0  0  0  0  0  0
   -0.6717    1.9004    1.7986 C   0  0  0  0  0  0  0  0  0  0  0  0
    0.2222    1.1710    2.1948 O   0  0  0  0  0  0  0  0  0  0  0  0
   -1.0846    2.9397    2.6162 N   0  0  0  0  0  0  0  0  0  0  0  0
   -1.8309    3.5400    2.2828 H   0  0  0  0  0  0  0  0  0  0  0  0
   -0.5732    3.1377    3.9697 C   0  0  0  0  0  0  0  0  0  0  0  0
    0.5047    3.3311    3.9482 H   0  0  0  0  0  0  0  0  0  0  0  0
   -1.0675    3.9916    4.4429 H   0  0  0  0  0  0  0  0  0  0  0  0
   -0.7569    2.2490    4.5835 H   0  0  0  0  0  0  0  0  0  0  0  0
  1  2  1  0  0  0  0
  2  3  1  0  0  0  0
  2  4  1  0  0  0  0
  2  5  1  0  0  0  0
  5  6  2  0  0  0  0
  5  7  1  0  0  0  0
  7  8  1  0  0  0  0
  7  9  1  0  0  0  0
  9 10  1  0  0  0  0
  9 11  1  0  0  0  0
  9 29  1  0  0  0  0
 11 12  1  0  0  0  0
 11 13  1  0  0  0  0
 11 14  1  0  0  0  0
 14 15  1  0  0  0  0
 14 16  1  0  0  0  0
 14 17  1  0  0  0  0
 17 18  1  0  0  0  0
 17 19  1  0  0  0  0
 17 20  1  0  0  0  0
 20 21  1  0  0  0  0
 20 22  2  0  0  0  0
 22 23  1  0  0  0  0
 22 26  1  0  0  0  0
 23 24  1  0  0  0  0
 23 25  1  0  0  0  0
 26 27  1  0  0  0  0
 26 28  1  0  0  0  0
 29 30  2  0  0  0  0
 29 31  1  0  0  0  0
 31 32  1  0  0  0  0
 31 33  1  0  0  0  0
 33 34  1  0  0  0  0
 33 35  1  0  0  0  0
 33 36  1  0  0  0  0
M  CHG  1  20   1
M  END
$$$$

  -OEChem-02172215453D

 36 35  0     1  0  0  0  0  0999 V2000
   -3.7006   -2.0779    1.2929 H   0  0  0  0  0  0  0  0  0  0  0  0
   -3.8514   -1.0650    0.9074 C   0  0  0  0  0  0  0  0  0  0  0  0
   -4.4442   -0.5013    1.6316 H   0  0  0  0  0  0  0  0  0  0  0  0
   -4.3972   -1.1269   -0.0370 H   0  0  0  0  0  0  0  0  0  0  0  0
   -2.5113   -0.3888    0.6907 C   0  0  0  0  0  0  0  0  0  0  0  0
   -1.4835   -1.0211    0.8428 O   0  0  0  0  0  0  0  0  0  0  0  0
   -2.4586    0.9310    0.2788 N   0  0  0  0  0  0  0  0  0  0  0  0
   -3.3495    1.4168    0.2642 H   0  0  0  0  0  0  0  0  0  0  0  0
   -1.2275    1.7405    0.3694 C   0  0  1  0  0  0  0  0  0  0  0  0
   -0.4429    1.1961   -0.1706 H   0  0  0  0  0  0  0  0  0  0  0  0
   -1.4027    3.0965   -0.3354 C   0  0  0  0  0  0  0  0  0  0  0  0
   -2.2755    3.6163    0.0731 H   0  0  0  0  0  0  0  0  0  0  0  0
   -0.5213    3.7174   -0.1380 H   0  0  0  0  0  0  0  0  0  0  0  0
   -1.5573    2.9163   -1.8519 C   0  0  0  0  0  0  0  0  0  0  0  0
   -0.6692    2.4119   -2.2493 H   0  0  0  0  0  0  0  0  0  0  0  0
   -2.4272    2.2854   -2.0637 H   0  0  0  0  0  0  0  0  0  0  0  0
   -1.7283    4.2738   -2.5308 C   0  0  0  0  0  0  0  0  0  0  0  0
   -2.6059    4.7779   -2.1110 H   0  0  0  0  0  0  0  0  0  0  0  0
   -0.8435    4.8887   -2.3304 H   0  0  0  0  0  0  0  0  0  0  0  0
   -1.8985    4.0844   -3.9835 N   0  3  0  0  0  0  0  0  0  0  0  0
   -1.7971    3.1351   -4.3415 H   0  0  0  0  0  0  0  0  0  0  0  0
   -2.1219    5.0571   -4.8200 C   0  0  0  0  0  0  0  0  0  0  0  0
   -2.2182    6.3658   -4.4045 N   0  0  0  0  0  0  0  0  0  0  0  0
   -1.9364    6.5840   -3.4510 H   0  0  0  0  0  0  0  0  0  0  0  0
   -2.1527    7.1042   -5.1026 H   0  0  0  0  0  0  0  0  0  0  0  0
   -2.2572    4.7807   -6.1596 N   0  0  0  0  0  0  0  0  0  0  0  0
   -2.3483    3.8110   -6.4573 H   0  0  0  0  0  0  0  0  0  0  0  0
   -2.6176    5.5075   -6.7755 H   0  0  0  0  0  0  0  0  0  0  0  0
   -0.6777    1.9051    1.8059 C   0  0  0  0  0  0  0  0  0  0  0  0
    0.4421    1.4989    2.0744 O   0  0  0  0  0  0  0  0  0  0  0  0
   -1.3017    2.7582    2.7009 N   0  0  0  0  0  0  0  0  0  0  0  0
   -2.2404    3.0697    2.4773 H   0  0  0  0  0  0  0  0  0  0  0  0
   -0.7719    3.0279    4.0345 C   0  0  0  0  0  0  0  0  0  0  0  0
    0.2206    3.4865    3.9678 H   0  0  0  0  0  0  0  0  0  0  0  0
   -1.4315    3.7127    4.5760 H   0  0  0  0  0  0  0  0  0  0  0  0
   -0.6902    2.0992    4.6096 H   0  0  0  0  0  0  0  0  0  0  0  0
  1  2  1  0  0  0  0
  2  3  1  0  0  0  0
  2  4  1  0  0  0  0
  2  5  1  0  0  0  0
  5  6  2  0  0  0  0
  5  7  1  0  0  0  0
  7  8  1  0  0  0  0
  7  9  1  0  0  0  0
  9 10  1  0  0  0  0
  9 11  1  0  0  0  0
  9 29  1  0  0  0  0
 11 12  1  0  0  0  0
 11 13  1  0  0  0  0
 11 14  1  0  0  0  0
 14 15  1  0  0  0  0
 14 16  1  0  0  0  0
 14 17  1  0  0  0  0
 17 18  1  0  0  0  0
 17 19  1  0  0  0  0
 17 20  1  0  0  0  0
 20 21  1  0  0  0  0
 20 22  2  0  0  0  0
 22 23  1  0  0  0  0
 22 26  1  0  0  0  0
 23 24  1  0  0  0  0
 23 25  1  0  0  0  0
 26 27  1  0  0  0  0
 26 28  1  0  0  0  0
 29 30  2  0  0  0  0
 29 31  1  0  0  0  0
 31 32  1  0  0  0  0
 31 33  1  0  0  0  0
 33 34  1  0  0  0  0
 33 35  1  0  0  0  0
 33 36  1  0  0  0  0
M  CHG  1  20   1
M  END
$$$$

  -OEChem-02172215453D

 36 35  0     1  0  0  0  0  0999 V2000
   -3.7596   -2.0878    1.2797 H   0  0  0  0  0  0  0  0  0  0  0  0
   -3.8771   -1.0983    0.8279 C   0  0  0  0  0  0  0  0  0  0  0  0
   -4.5693   -0.5153    1.4395 H   0  0  0  0  0  0  0  0  0  0  0  0
   -4.2945   -1.2180   -0.1745 H   0  0  0  0  0  0  0  0  0  0  0  0
   -2.5329   -0.4004    0.7506 C   0  0  0  0  0  0  0  0  0  0  0  0
   -1.5202   -0.9993    1.0596 O   0  0  0  0  0  0  0  0  0  0  0  0
   -2.4538    0.9070    0.3052 N   0  0  0  0  0  0  0  0  0  0  0  0
   -3.3358    1.3818    0.1428 H   0  0  0  0  0  0  0  0  0  0  0  0
   -1.2168    1.7091    0.3780 C   0  0  1  0  0  0  0  0  0  0  0  0
   -0.4350    1.1520   -0.1530 H   0  0  0  0  0  0  0  0  0  0  0  0
   -1.3876    3.0612   -0.3343 C   0  0  0  0  0  0  0  0  0  0  0  0
   -2.2511    3.5899    0.0835 H   0  0  0  0  0  0  0  0  0  0  0  0
   -0.4988    3.6755   -0.1476 H   0  0  0  0  0  0  0  0  0  0  0  0
   -1.5586    2.8830   -1.8491 C   0  0  0  0  0  0  0  0  0  0  0  0
   -0.6794    2.3714   -2.2573 H   0  0  0  0  0  0  0  0  0  0  0  0
   -2.4371    2.2623   -2.0545 H   0  0  0  0  0  0  0  0  0  0  0  0
   -1.7229    4.2471   -2.5166 C   0  0  0  0  0  0  0  0  0  0  0  0
   -2.5905    4.7563   -2.0821 H   0  0  0  0  0  0  0  0  0  0  0  0
   -0.8303    4.8514   -2.3183 H   0  0  0  0  0  0  0  0  0  0  0  0
   -1.9105    4.0790   -3.9700 N   0  3  0  0  0  0  0  0  0  0  0  0
   -1.8261    3.1341   -4.3434 H   0  0  0  0  0  0  0  0  0  0  0  0
   -2.1317    5.0679   -4.7880 C   0  0  0  0  0  0  0  0  0  0  0  0
   -2.2078    6.3699   -4.3484 N   0  0  0  0  0  0  0  0  0  0  0  0
   -1.9060    6.5657   -3.3962 H   0  0  0  0  0  0  0  0  0  0  0  0
   -2.1303    7.1182   -5.0345 H   0  0  0  0  0  0  0  0  0  0  0  0
   -2.2897    4.8174   -6.1305 N   0  0  0  0  0  0  0  0  0  0  0  0
   -2.3975    3.8548   -6.4445 H   0  0  0  0  0  0  0  0  0  0  0  0
   -2.6511    5.5595   -6.7273 H   0  0  0  0  0  0  0  0  0  0  0  0
   -0.6683    1.9117    1.8085 C   0  0  0  0  0  0  0  0  0  0  0  0
    0.5320    1.7947    2.0064 O   0  0  0  0  0  0  0  0  0  0  0  0
   -1.4426    2.5408    2.7688 N   0  0  0  0  0  0  0  0  0  0  0  0
   -2.4422    2.5822    2.6021 H   0  0  0  0  0  0  0  0  0  0  0  0
   -0.9461    2.8377    4.1093 C   0  0  0  0  0  0  0  0  0  0  0  0
   -0.0563    3.4745    4.0585 H   0  0  0  0  0  0  0  0  0  0  0  0
   -1.7100    3.3629    4.6907 H   0  0  0  0  0  0  0  0  0  0  0  0
   -0.6849    1.9125    4.6345 H   0  0  0  0  0  0  0  0  0  0  0  0
  1  2  1  0  0  0  0
  2  3  1  0  0  0  0
  2  4  1  0  0  0  0
  2  5  1  0  0  0  0
  5  6  2  0  0  0  0
  5  7  1  0  0  0  0
  7  8  1  0  0  0  0
  7  9  1  0  0  0  0
  9 10  1  0  0  0  0
  9 11  1  0  0  0  0
  9 29  1  0  0  0  0
 11 12  1  0  0  0  0
 11 13  1  0  0  0  0
 11 14  1  0  0  0  0
 14 15  1  0  0  0  0
 14 16  1  0  0  0  0
 14 17  1  0  0  0  0
 17 18  1  0  0  0  0
 17 19  1  0  0  0  0
 17 20  1  0  0  0  0
 20 21  1  0  0  0  0
 20 22  2  0  0  0  0
 22 23  1  0  0  0  0
 22 26  1  0  0  0  0
 23 24  1  0  0  0  0
 23 25  1  0  0  0  0
 26 27  1  0  0  0  0
 26 28  1  0  0  0  0
 29 30  2  0  0  0  0
 29 31  1  0  0  0  0
 31 32  1  0  0  0  0
 31 33  1  0  0  0  0
 33 34  1  0  0  0  0
 33 35  1  0  0  0  0
 33 36  1  0  0  0  0
M  CHG  1  20   1
M  END
$$$$

  -OEChem-02172215453D

 36 35  0     1  0  0  0  0  0999 V2000
   -3.7791   -2.1007    1.2516 H   0  0  0  0  0  0  0  0  0  0  0  0
   -3.8900   -1.1093    0.8024 C   0  0  0  0  0  0  0  0  0  0  0  0
   -4.6040   -0.5349    1.3971 H   0  0  0  0  0  0  0  0  0  0  0  0
   -4.2776   -1.2266   -0.2121 H   0  0  0  0  0  0  0  0  0  0  0  0
   -2.5484   -0.4023    0.7682 C   0  0  0  0  0  0  0  0  0  0  0  0
   -1.5456   -0.9835    1.1379 O   0  0  0  0  0  0  0  0  0  0  0  0
   -2.4589    0.9001    0.3106 N   0  0  0  0  0  0  0  0  0  0  0  0
   -3.3321    1.3669    0.0865 H   0  0  0  0  0  0  0  0  0  0  0  0
   -1.2189    1.6987    0.3810 C   0  0  1  0  0  0  0  0  0  0  0  0
   -0.4360    1.1377   -0.1435 H   0  0  0  0  0  0  0  0  0  0  0  0
   -1.3886    3.0488   -0.3361 C   0  0  0  0  0  0  0  0  0  0  0  0
   -2.2499    3.5794    0.0835 H   0  0  0  0  0  0  0  0  0  0  0  0
   -0.4997    3.6637   -0.1526 H   0  0  0  0  0  0  0  0  0  0  0  0
   -1.5615    2.8717   -1.8505 C   0  0  0  0  0  0  0  0  0  0  0  0
   -0.6825    2.3607   -2.2597 H   0  0  0  0  0  0  0  0  0  0  0  0
   -2.4412    2.2532   -2.0562 H   0  0  0  0  0  0  0  0  0  0  0  0
   -1.7238    4.2388   -2.5129 C   0  0  0  0  0  0  0  0  0  0  0  0
   -2.5889    4.7493   -2.0752 H   0  0  0  0  0  0  0  0  0  0  0  0
   -0.8288    4.8392   -2.3138 H   0  0  0  0  0  0  0  0  0  0  0  0
   -1.9136    4.0783   -3.9666 N   0  3  0  0  0  0  0  0  0  0  0  0
   -1.8317    3.1354   -4.3452 H   0  0  0  0  0  0  0  0  0  0  0  0
   -2.1337    5.0729   -4.7781 C   0  0  0  0  0  0  0  0  0  0  0  0
   -2.2060    6.3724   -4.3297 N   0  0  0  0  0  0  0  0  0  0  0  0
   -1.9006    6.5614   -3.3771 H   0  0  0  0  0  0  0  0  0  0  0  0
   -2.1347    7.1260   -5.0106 H   0  0  0  0  0  0  0  0  0  0  0  0
   -2.2907    4.8315   -6.1224 N   0  0  0  0  0  0  0  0  0  0  0  0
   -2.3969    3.8714   -6.4445 H   0  0  0  0  0  0  0  0  0  0  0  0
   -2.6450    5.5791   -6.7165 H   0  0  0  0  0  0  0  0  0  0  0  0
   -0.6709    1.9179    1.8086 C   0  0  0  0  0  0  0  0  0  0  0  0
    0.5334    2.0660    1.9596 O   0  0  0  0  0  0  0  0  0  0  0  0
   -1.5244    2.2713    2.8390 N   0  0  0  0  0  0  0  0  0  0  0  0
   -2.5073    2.0592    2.7067 H   0  0  0  0  0  0  0  0  0  0  0  0
   -1.0491    2.5430    4.1920 C   0  0  0  0  0  0  0  0  0  0  0  0
   -0.3265    3.3661    4.1882 H   0  0  0  0  0  0  0  0  0  0  0  0
   -1.8852    2.8240    4.8396 H   0  0  0  0  0  0  0  0  0  0  0  0
   -0.5660    1.6549    4.6137 H   0  0  0  0  0  0  0  0  0  0  0  0
  1  2  1  0  0  0  0
  2  3  1  0  0  0  0
  2  4  1  0  0  0  0
  2  5  1  0  0  0  0
  5  6  2  0  0  0  0
  5  7  1  0  0  0  0
  7  8  1  0  0  0  0
  7  9  1  0  0  0  0
  9 10  1  0  0  0  0
  9 11  1  0  0  0  0
  9 29  1  0  0  0  0
 11 12  1  0  0  0  0
 11 13  1  0  0  0  0
 11 14  1  0  0  0  0
 14 15  1  0  0  0  0
 14 16  1  0  0  0  0
 14 17  1  0  0  0  0
 17 18  1  0  0  0  0
 17 19  1  0  0  0  0
 17 20  1  0  0  0  0
 20 21  1  0  0  0  0
 20 22  2  0  0  0  0
 22 23  1  0  0  0  0
 22 26  1  0  0  0  0
 23 24  1  0  0  0  0
 23 25  1  0  0  0  0
 26 27  1  0  0  0  0
 26 28  1  0  0  0  0
 29 30  2  0  0  0  0
 29 31  1  0  0  0  0
 31 32  1  0  0  0  0
 31 33  1  0  0  0  0
 33 34  1  0  0  0  0
 33 35  1  0  0  0  0
 33 36  1  0  0  0  0
M  CHG  1  20   1
M  END
$$$$

  -OEChem-02172215453D

 36 35  0     1  0  0  0  0  0999 V2000
   -3.8092   -2.0948    1.2270 H   0  0  0  0  0  0  0  0  0  0  0  0
   -3.9072   -1.1052    0.7706 C   0  0  0  0  0  0  0  0  0  0  0  0
   -4.6332   -0.5254    1.3452 H   0  0  0  0  0  0  0  0  0  0  0  0
   -4.2716   -1.2255   -0.2521 H   0  0  0  0  0  0  0  0  0  0  0  0
   -2.5632   -0.4030    0.7643 C   0  0  0  0  0  0  0  0  0  0  0  0
   -1.5732   -0.9781    1.1763 O   0  0  0  0  0  0  0  0  0  0  0  0
   -2.4585    0.8960    0.3018 N   0  0  0  0  0  0  0  0  0  0  0  0
   -3.3249    1.3669    0.0596 H   0  0  0  0  0  0  0  0  0  0  0  0
   -1.2157    1.6903    0.3843 C   0  0  1  0  0  0  0  0  0  0  0  0
   -0.4281    1.1291   -0.1324 H   0  0  0  0  0  0  0  0  0  0  0  0
   -1.3926    3.0373   -0.3383 C   0  0  0  0  0  0  0  0  0  0  0  0
   -2.2594    3.5617    0.0783 H   0  0  0  0  0  0  0  0  0  0  0  0
   -0.5102    3.6614   -0.1550 H   0  0  0  0  0  0  0  0  0  0  0  0
   -1.5588    2.8591   -1.8527 C   0  0  0  0  0  0  0  0  0  0  0  0
   -0.6754    2.3545   -2.2602 H   0  0  0  0  0  0  0  0  0  0  0  0
   -2.4340    2.2359   -2.0630 H   0  0  0  0  0  0  0  0  0  0  0  0
   -1.7276    4.2277   -2.5091 C   0  0  0  0  0  0  0  0  0  0  0  0
   -2.5979    4.7294   -2.0714 H   0  0  0  0  0  0  0  0  0  0  0  0
   -0.8379    4.8335   -2.3031 H   0  0  0  0  0  0  0  0  0  0  0  0
   -1.9116    4.0744   -3.9639 N   0  3  0  0  0  0  0  0  0  0  0  0
   -1.8174    3.1350   -4.3482 H   0  0  0  0  0  0  0  0  0  0  0  0
   -2.1353    5.0728   -4.7694 C   0  0  0  0  0  0  0  0  0  0  0  0
   -2.2172    6.3686   -4.3119 N   0  0  0  0  0  0  0  0  0  0  0  0
   -1.9233    6.5522   -3.3546 H   0  0  0  0  0  0  0  0  0  0  0  0
   -2.1447    7.1280   -4.9861 H   0  0  0  0  0  0  0  0  0  0  0  0
   -2.2849    4.8394   -6.1158 N   0  0  0  0  0  0  0  0  0  0  0  0
   -2.3890    3.8804   -6.4420 H   0  0  0  0  0  0  0  0  0  0  0  0
   -2.6486    5.5876   -6.7035 H   0  0  0  0  0  0  0  0  0  0  0  0
   -0.6746    1.9232    1.8142 C   0  0  0  0  0  0  0  0  0  0  0  0
    0.4828    2.2956    1.9487 O   0  0  0  0  0  0  0  0  0  0  0  0
   -1.5337    1.9870    2.8970 N   0  0  0  0  0  0  0  0  0  0  0  0
   -2.4449    1.5598    2.7710 H   0  0  0  0  0  0  0  0  0  0  0  0
   -1.0615    2.2177    4.2585 C   0  0  0  0  0  0  0  0  0  0  0  0
   -0.5297    3.1728    4.3252 H   0  0  0  0  0  0  0  0  0  0  0  0
   -1.9064    2.2468    4.9534 H   0  0  0  0  0  0  0  0  0  0  0  0
   -0.3827    1.4161    4.5694 H   0  0  0  0  0  0  0  0  0  0  0  0
  1  2  1  0  0  0  0
  2  3  1  0  0  0  0
  2  4  1  0  0  0  0
  2  5  1  0  0  0  0
  5  6  2  0  0  0  0
  5  7  1  0  0  0  0
  7  8  1  0  0  0  0
  7  9  1  0  0  0  0
  9 10  1  0  0  0  0
  9 11  1  0  0  0  0
  9 29  1  0  0  0  0
 11 12  1  0  0  0  0
 11 13  1  0  0  0  0
 11 14  1  0  0  0  0
 14 15  1  0  0  0  0
 14 16  1  0  0  0  0
 14 17  1  0  0  0  0
 17 18  1  0  0  0  0
 17 19  1  0  0  0  0
 17 20  1  0  0  0  0
 20 21  1  0  0  0  0
 20 22  2  0  0  0  0
 22 23  1  0  0  0  0
 22 26  1  0  0  0  0
 23 24  1  0  0  0  0
 23 25  1  0  0  0  0
 26 27  1  0  0  0  0
 26 28  1  0  0  0  0
 29 30  2  0  0  0  0
 29 31  1  0  0  0  0
 31 32  1  0  0  0  0
 31 33  1  0  0  0  0
 33 34  1  0  0  0  0
 33 35  1  0  0  0  0
 33 36  1  0  0  0  0
M  CHG  1  20   1
M  END
$$$$

  -OEChem-02172215453D

 36 35  0     1  0  0  0  0  0999 V2000
   -3.8514   -2.0925    1.1810 H   0  0  0  0  0  0  0  0  0  0  0  0
   -3.9344   -1.0985    0.7310 C   0  0  0  0  0  0  0  0  0  0  0  0
   -4.6629   -0.5164    1.3004 H   0  0  0  0  0  0  0  0  0  0  0  0
   -4.2861   -1.2083   -0.2974 H   0  0  0  0  0  0  0  0  0  0  0  0
   -2.5848   -0.4068    0.7474 C   0  0  0  0  0  0  0  0  0  0  0  0
   -1.6089   -0.9834    1.1896 O   0  0  0  0  0  0  0  0  0  0  0  0
   -2.4614    0.8932    0.2941 N   0  0  0  0  0  0  0  0  0  0  0  0
   -3.3232    1.3746    0.0559 H   0  0  0  0  0  0  0  0  0  0  0  0
   -1.2166    1.6846    0.3931 C   0  0  1  0  0  0  0  0  0  0  0  0
   -0.4248    1.1260   -0.1187 H   0  0  0  0  0  0  0  0  0  0  0  0
   -1.4015    3.0298   -0.3356 C   0  0  0  0  0  0  0  0  0  0  0  0
   -2.2741    3.5478    0.0766 H   0  0  0  0  0  0  0  0  0  0  0  0
   -0.5265    3.6645   -0.1540 H   0  0  0  0  0  0  0  0  0  0  0  0
   -1.5573    2.8502   -1.8510 C   0  0  0  0  0  0  0  0  0  0  0  0
   -0.6673    2.3539   -2.2538 H   0  0  0  0  0  0  0  0  0  0  0  0
   -2.4261    2.2201   -2.0678 H   0  0  0  0  0  0  0  0  0  0  0  0
   -1.7338    4.2193   -2.5048 C   0  0  0  0  0  0  0  0  0  0  0  0
   -2.6099    4.7133   -2.0697 H   0  0  0  0  0  0  0  0  0  0  0  0
   -0.8502    4.8312   -2.2918 H   0  0  0  0  0  0  0  0  0  0  0  0
   -1.9087    4.0706   -3.9613 N   0  3  0  0  0  0  0  0  0  0  0  0
   -1.8052    3.1341   -4.3500 H   0  0  0  0  0  0  0  0  0  0  0  0
   -2.1360    5.0708   -4.7632 C   0  0  0  0  0  0  0  0  0  0  0  0
   -2.2308    6.3637   -4.3005 N   0  0  0  0  0  0  0  0  0  0  0  0
   -1.9441    6.5450   -3.3406 H   0  0  0  0  0  0  0  0  0  0  0  0
   -2.1577    7.1263   -4.9711 H   0  0  0  0  0  0  0  0  0  0  0  0
   -2.2766    4.8424   -6.1113 N   0  0  0  0  0  0  0  0  0  0  0  0
   -2.3715    3.8840   -6.4423 H   0  0  0  0  0  0  0  0  0  0  0  0
   -2.6410    5.5908   -6.6984 H   0  0  0  0  0  0  0  0  0  0  0  0
   -0.6787    1.9198    1.8277 C   0  0  0  0  0  0  0  0  0  0  0  0
    0.3885    2.5031    1.9658 O   0  0  0  0  0  0  0  0  0  0  0  0
   -1.4669    1.6896    2.9411 N   0  0  0  0  0  0  0  0  0  0  0  0
   -2.2332    1.0378    2.8064 H   0  0  0  0  0  0  0  0  0  0  0  0
   -0.9781    1.8959    4.3005 C   0  0  0  0  0  0  0  0  0  0  0  0
   -0.6731    2.9377    4.4459 H   0  0  0  0  0  0  0  0  0  0  0  0
   -1.7650    1.6649    5.0249 H   0  0  0  0  0  0  0  0  0  0  0  0
   -0.1192    1.2467    4.5018 H   0  0  0  0  0  0  0  0  0  0  0  0
  1  2  1  0  0  0  0
  2  3  1  0  0  0  0
  2  4  1  0  0  0  0
  2  5  1  0  0  0  0
  5  6  2  0  0  0  0
  5  7  1  0  0  0  0
  7  8  1  0  0  0  0
  7  9  1  0  0  0  0
  9 10  1  0  0  0  0
  9 11  1  0  0  0  0
  9 29  1  0  0  0  0
 11 12  1  0  0  0  0
 11 13  1  0  0  0  0
 11 14  1  0  0  0  0
 14 15  1  0  0  0  0
 14 16  1  0  0  0  0
 14 17  1  0  0  0  0
 17 18  1  0  0  0  0
 17 19  1  0  0  0  0
 17 20  1  0  0  0  0
 20 21  1  0  0  0  0
 20 22  2  0  0  0  0
 22 23  1  0  0  0  0
 22 26  1  0  0  0  0
 23 24  1  0  0  0  0
 23 25  1  0  0  0  0
 26 27  1  0  0  0  0
 26 28  1  0  0  0  0
 29 30  2  0  0  0  0
 29 31  1  0  0  0  0
 31 32  1  0  0  0  0
 31 33  1  0  0  0  0
 33 34  1  0  0  0  0
 33 35  1  0  0  0  0
 33 36  1  0  0  0  0
M  CHG  1  20   1
M  END
$$$$

  -OEChem-02172215453D

 36 35  0     1  0  0  0  0  0999 V2000
   -3.9032   -2.0862    1.1189 H   0  0  0  0  0  0  0  0  0  0  0  0
   -3.9681   -1.0819    0.6893 C   0  0  0  0  0  0  0  0  0  0  0  0
   -4.6918   -0.5012    1.2660 H   0  0  0  0  0  0  0  0  0  0  0  0
   -4.3150   -1.1653   -0.3431 H   0  0  0  0  0  0  0  0  0  0  0  0
   -2.6086   -0.4106    0.7289 C   0  0  0  0  0  0  0  0  0  0  0  0
   -1.6499   -1.0005    1.1926 O   0  0  0  0  0  0  0  0  0  0  0  0
   -2.4605    0.8920    0.2919 N   0  0  0  0  0  0  0  0  0  0  0  0
   -3.3170    1.3872    0.0627 H   0  0  0  0  0  0  0  0  0  0  0  0
   -1.2122    1.6785    0.4062 C   0  0  1  0  0  0  0  0  0  0  0  0
   -0.4186    1.1208   -0.1036 H   0  0  0  0  0  0  0  0  0  0  0  0
   -1.4053    3.0215   -0.3315 C   0  0  0  0  0  0  0  0  0  0  0  0
   -2.2830    3.5343    0.0764 H   0  0  0  0  0  0  0  0  0  0  0  0
   -0.5378    3.6663   -0.1529 H   0  0  0  0  0  0  0  0  0  0  0  0
   -1.5527    2.8407   -1.8487 C   0  0  0  0  0  0  0  0  0  0  0  0
   -0.6569    2.3523   -2.2481 H   0  0  0  0  0  0  0  0  0  0  0  0
   -2.4149    2.2039   -2.0705 H   0  0  0  0  0  0  0  0  0  0  0  0
   -1.7374    4.2097   -2.5020 C   0  0  0  0  0  0  0  0  0  0  0  0
   -2.6199    4.6943   -2.0699 H   0  0  0  0  0  0  0  0  0  0  0  0
   -0.8605    4.8293   -2.2826 H   0  0  0  0  0  0  0  0  0  0  0  0
   -1.9048    4.0655   -3.9601 N   0  3  0  0  0  0  0  0  0  0  0  0
   -1.7939    3.1310   -4.3513 H   0  0  0  0  0  0  0  0  0  0  0  0
   -2.1364    5.0677   -4.7590 C   0  0  0  0  0  0  0  0  0  0  0  0
   -2.2430    6.3581   -4.2915 N   0  0  0  0  0  0  0  0  0  0  0  0
   -1.9586    6.5386   -3.3306 H   0  0  0  0  0  0  0  0  0  0  0  0
   -2.1793    7.1243   -4.9590 H   0  0  0  0  0  0  0  0  0  0  0  0
   -2.2742    4.8438   -6.1082 N   0  0  0  0  0  0  0  0  0  0  0  0
   -2.3671    3.8862   -6.4414 H   0  0  0  0  0  0  0  0  0  0  0  0
   -2.6470    5.5916   -6.6907 H   0  0  0  0  0  0  0  0  0  0  0  0
   -0.6740    1.9065    1.8471 C   0  0  0  0  0  0  0  0  0  0  0  0
    0.2597    2.6806    2.0147 O   0  0  0  0  0  0  0  0  0  0  0  0
   -1.3240    1.4007    2.9586 N   0  0  0  0  0  0  0  0  0  0  0  0
   -1.8754    0.5644    2.7795 H   0  0  0  0  0  0  0  0  0  0  0  0
   -0.8185    1.5941    4.3140 C   0  0  0  0  0  0  0  0  0  0  0  0
   -0.7560    2.6611    4.5532 H   0  0  0  0  0  0  0  0  0  0  0  0
   -1.4873    1.1198    5.0386 H   0  0  0  0  0  0  0  0  0  0  0  0
    0.1777    1.1513    4.4196 H   0  0  0  0  0  0  0  0  0  0  0  0
  1  2  1  0  0  0  0
  2  3  1  0  0  0  0
  2  4  1  0  0  0  0
  2  5  1  0  0  0  0
  5  6  2  0  0  0  0
  5  7  1  0  0  0  0
  7  8  1  0  0  0  0
  7  9  1  0  0  0  0
  9 10  1  0  0  0  0
  9 11  1  0  0  0  0
  9 29  1  0  0  0  0
 11 12  1  0  0  0  0
 11 13  1  0  0  0  0
 11 14  1  0  0  0  0
 14 15  1  0  0  0  0
 14 16  1  0  0  0  0
 14 17  1  0  0  0  0
 17 18  1  0  0  0  0
 17 19  1  0  0  0  0
 17 20  1  0  0  0  0
 20 21  1  0  0  0  0
 20 22  2  0  0  0  0
 22 23  1  0  0  0  0
 22 26  1  0  0  0  0
 23 24  1  0  0  0  0
 23 25  1  0  0  0  0
 26 27  1  0  0  0  0
 26 28  1  0  0  0  0
 29 30  2  0  0  0  0
 29 31  1  0  0  0  0
 31 32  1  0  0  0  0
 31 33  1  0  0  0  0
 33 34  1  0  0  0  0
 33 35  1  0  0  0  0
 33 36  1  0  0  0  0
M  CHG  1  20   1
M  END
$$$$

  -OEChem-02172215453D

 36 35  0     1  0  0  0  0  0999 V2000
   -3.9227   -2.0727    1.1157 H   0  0  0  0  0  0  0  0  0  0  0  0
   -3.9831   -1.0612    0.7029 C   0  0  0  0  0  0  0  0  0  0  0  0
   -4.6729   -0.4745    1.3146 H   0  0  0  0  0  0  0  0  0  0  0  0
   -4.3703   -1.1220   -0.3169 H   0  0  0  0  0  0  0  0  0  0  0  0
   -2.6106   -0.4167    0.7011 C   0  0  0  0  0  0  0  0  0  0  0  0
   -1.6424   -1.0403    1.0987 O   0  0  0  0  0  0  0  0  0  0  0  0
   -2.4580    0.8915    0.2831 N   0  0  0  0  0  0  0  0  0  0  0  0
   -3.3210    1.4013    0.1186 H   0  0  0  0  0  0  0  0  0  0  0  0
   -1.2119    1.6803    0.4101 C   0  0  1  0  0  0  0  0  0  0  0  0
   -0.4158    1.1278   -0.1009 H   0  0  0  0  0  0  0  0  0  0  0  0
   -1.4115    3.0218   -0.3306 C   0  0  0  0  0  0  0  0  0  0  0  0
   -2.2942    3.5301    0.0724 H   0  0  0  0  0  0  0  0  0  0  0  0
   -0.5488    3.6736   -0.1536 H   0  0  0  0  0  0  0  0  0  0  0  0
   -1.5484    2.8371   -1.8478 C   0  0  0  0  0  0  0  0  0  0  0  0
   -0.6456    2.3564   -2.2408 H   0  0  0  0  0  0  0  0  0  0  0  0
   -2.4039    2.1923   -2.0744 H   0  0  0  0  0  0  0  0  0  0  0  0
   -1.7401    4.2047   -2.5013 C   0  0  0  0  0  0  0  0  0  0  0  0
   -2.6276    4.6840   -2.0727 H   0  0  0  0  0  0  0  0  0  0  0  0
   -0.8677    4.8291   -2.2775 H   0  0  0  0  0  0  0  0  0  0  0  0
   -1.8985    4.0614   -3.9604 N   0  3  0  0  0  0  0  0  0  0  0  0
   -1.7806    3.1279   -4.3524 H   0  0  0  0  0  0  0  0  0  0  0  0
   -2.1336    5.0637   -4.7580 C   0  0  0  0  0  0  0  0  0  0  0  0
   -2.2528    6.3520   -4.2871 N   0  0  0  0  0  0  0  0  0  0  0  0
   -1.9791    6.5325   -3.3231 H   0  0  0  0  0  0  0  0  0  0  0  0
   -2.1939    7.1212   -4.9514 H   0  0  0  0  0  0  0  0  0  0  0  0
   -2.2632    4.8431   -6.1088 N   0  0  0  0  0  0  0  0  0  0  0  0
   -2.3467    3.8861   -6.4463 H   0  0  0  0  0  0  0  0  0  0  0  0
   -2.6373    5.5901   -6.6915 H   0  0  0  0  0  0  0  0  0  0  0  0
   -0.6754    1.8944    1.8572 C   0  0  0  0  0  0  0  0  0  0  0  0
    0.0823    2.8291    2.0848 O   0  0  0  0  0  0  0  0  0  0  0  0
   -1.1269    1.1440    2.9277 N   0  0  0  0  0  0  0  0  0  0  0  0
   -1.5057    0.2308    2.6752 H   0  0  0  0  0  0  0  0  0  0  0  0
   -0.6012    1.3063    4.2797 C   0  0  0  0  0  0  0  0  0  0  0  0
   -0.7642    2.3290    4.6359 H   0  0  0  0  0  0  0  0  0  0  0  0
   -1.1057    0.6201    4.9668 H   0  0  0  0  0  0  0  0  0  0  0  0
    0.4728    1.0931    4.3026 H   0  0  0  0  0  0  0  0  0  0  0  0
  1  2  1  0  0  0  0
  2  3  1  0  0  0  0
  2  4  1  0  0  0  0
  2  5  1  0  0  0  0
  5  6  2  0  0  0  0
  5  7  1  0  0  0  0
  7  8  1  0  0  0  0
  7  9  1  0  0  0  0
  9 10  1  0  0  0  0
  9 11  1  0  0  0  0
  9 29  1  0  0  0  0
 11 12  1  0  0  0  0
 11 13  1  0  0  0  0
 11 14  1  0  0  0  0
 14 15  1  0  0  0  0
 14 16  1  0  0  0  0
 14 17  1  0  0  0  0
 17 18  1  0  0  0  0
 17 19  1  0  0  0  0
 17 20  1  0  0  0  0
 20 21  1  0  0  0  0
 20 22  2  0  0  0  0
 22 23  1  0  0  0  0
 22 26  1  0  0  0  0
 23 24  1  0  0  0  0
 23 25  1  0  0  0  0
 26 27  1  0  0  0  0
 26 28  1  0  0  0  0
 29 30  2  0  0  0  0
 29 31  1  0  0  0  0
 31 32  1  0  0  0  0
 31 33  1  0  0  0  0
 33 34  1  0  0  0  0
 33 35  1  0  0  0  0
 33 36  1  0  0  0  0
M  CHG  1  20   1
M  END
$$$$

  -OEChem-02172215453D

 36 35  0     1  0  0  0  0  0999 V2000
   -3.9032   -2.0662    1.1590 H   0  0  0  0  0  0  0  0  0  0  0  0
   -3.9753   -1.0492    0.7622 C   0  0  0  0  0  0  0  0  0  0  0  0
   -4.6141   -0.4601    1.4246 H   0  0  0  0  0  0  0  0  0  0  0  0
   -4.4289   -1.0913   -0.2308 H   0  0  0  0  0  0  0  0  0  0  0  0
   -2.5965   -0.4236    0.6780 C   0  0  0  0  0  0  0  0  0  0  0  0
   -1.6098   -1.0774    0.9711 O   0  0  0  0  0  0  0  0  0  0  0  0
   -2.4542    0.8900    0.2727 N   0  0  0  0  0  0  0  0  0  0  0  0
   -3.3236    1.4090    0.1891 H   0  0  0  0  0  0  0  0  0  0  0  0
   -1.2111    1.6822    0.4053 C   0  0  1  0  0  0  0  0  0  0  0  0
   -0.4127    1.1363   -0.1089 H   0  0  0  0  0  0  0  0  0  0  0  0
   -1.4134    3.0244   -0.3336 C   0  0  0  0  0  0  0  0  0  0  0  0
   -2.2976    3.5305    0.0687 H   0  0  0  0  0  0  0  0  0  0  0  0
   -0.5514    3.6765   -0.1543 H   0  0  0  0  0  0  0  0  0  0  0  0
   -1.5455    2.8409   -1.8512 C   0  0  0  0  0  0  0  0  0  0  0  0
   -0.6417    2.3617   -2.2436 H   0  0  0  0  0  0  0  0  0  0  0  0
   -2.3996    2.1949   -2.0792 H   0  0  0  0  0  0  0  0  0  0  0  0
   -1.7404    4.2077   -2.5039 C   0  0  0  0  0  0  0  0  0  0  0  0
   -2.6327    4.6811   -2.0789 H   0  0  0  0  0  0  0  0  0  0  0  0
   -0.8722    4.8368   -2.2767 H   0  0  0  0  0  0  0  0  0  0  0  0
   -1.8936    4.0632   -3.9629 N   0  3  0  0  0  0  0  0  0  0  0  0
   -1.7719    3.1298   -4.3536 H   0  0  0  0  0  0  0  0  0  0  0  0
   -2.1301    5.0647   -4.7609 C   0  0  0  0  0  0  0  0  0  0  0  0
   -2.2556    6.3521   -4.2895 N   0  0  0  0  0  0  0  0  0  0  0  0
   -1.9930    6.5316   -3.3222 H   0  0  0  0  0  0  0  0  0  0  0  0
   -2.1919    7.1224   -4.9520 H   0  0  0  0  0  0  0  0  0  0  0  0
   -2.2491    4.8441   -6.1123 N   0  0  0  0  0  0  0  0  0  0  0  0
   -2.3249    3.8866   -6.4505 H   0  0  0  0  0  0  0  0  0  0  0  0
   -2.6225    5.5896   -6.6973 H   0  0  0  0  0  0  0  0  0  0  0  0
   -0.6787    1.8794    1.8577 C   0  0  0  0  0  0  0  0  0  0  0  0
   -0.1294    2.9295    2.1671 O   0  0  0  0  0  0  0  0  0  0  0  0
   -0.8875    0.9404    2.8506 N   0  0  0  0  0  0  0  0  0  0  0  0
   -1.1401    0.0060    2.5226 H   0  0  0  0  0  0  0  0  0  0  0  0
   -0.3456    1.0716    4.1991 C   0  0  0  0  0  0  0  0  0  0  0  0
   -0.7160    1.9858    4.6752 H   0  0  0  0  0  0  0  0  0  0  0  0
   -0.6486    0.2181    4.8133 H   0  0  0  0  0  0  0  0  0  0  0  0
    0.7487    1.1077    4.1715 H   0  0  0  0  0  0  0  0  0  0  0  0
  1  2  1  0  0  0  0
  2  3  1  0  0  0  0
  2  4  1  0  0  0  0
  2  5  1  0  0  0  0
  5  6  2  0  0  0  0
  5  7  1  0  0  0  0
  7  8  1  0  0  0  0
  7  9  1  0  0  0  0
  9 10  1  0  0  0  0
  9 11  1  0  0  0  0
  9 29  1  0  0  0  0
 11 12  1  0  0  0  0
 11 13  1  0  0  0  0
 11 14  1  0  0  0  0
 14 15  1  0  0  0  0
 14 16  1  0  0  0  0
 14 17  1  0  0  0  0
 17 18  1  0  0  0  0
 17 19  1  0  0  0  0
 17 20  1  0  0  0  0
 20 21  1  0  0  0  0
 20 22  2  0  0  0  0
 22 23  1  0  0  0  0
 22 26  1  0  0  0  0
 23 24  1  0  0  0  0
 23 25  1  0  0  0  0
 26 27  1  0  0  0  0
 26 28  1  0  0  0  0
 29 30  2  0  0  0  0
 29 31  1  0  0  0  0
 31 32  1  0  0  0  0
 31 33  1  0  0  0  0
 33 34  1  0  0  0  0
 33 35  1  0  0  0  0
 33 36  1  0  0  0  0
M  CHG  1  20   1
M  END
$$$$

  -OEChem-02172215453D

 36 35  0     1  0  0  0  0  0999 V2000
   -3.8597   -2.0573    1.2411 H   0  0  0  0  0  0  0  0  0  0  0  0
   -3.9459   -1.0458    0.8337 C   0  0  0  0  0  0  0  0  0  0  0  0
   -4.5508   -0.4443    1.5166 H   0  0  0  0  0  0  0  0  0  0  0  0
   -4.4460   -1.0996   -0.1362 H   0  0  0  0  0  0  0  0  0  0  0  0
   -2.5692   -0.4300    0.6753 C   0  0  0  0  0  0  0  0  0  0  0  0
   -1.5716   -1.1005    0.8846 O   0  0  0  0  0  0  0  0  0  0  0  0
   -2.4393    0.8839    0.2657 N   0  0  0  0  0  0  0  0  0  0  0  0
   -3.3102    1.4070    0.2410 H   0  0  0  0  0  0  0  0  0  0  0  0
   -1.1947    1.6740    0.3879 C   0  0  1  0  0  0  0  0  0  0  0  0
   -0.3991    1.1288   -0.1314 H   0  0  0  0  0  0  0  0  0  0  0  0
   -1.3943    3.0195   -0.3444 C   0  0  0  0  0  0  0  0  0  0  0  0
   -2.2724    3.5302    0.0653 H   0  0  0  0  0  0  0  0  0  0  0  0
   -0.5253    3.6630   -0.1648 H   0  0  0  0  0  0  0  0  0  0  0  0
   -1.5385    2.8421   -1.8614 C   0  0  0  0  0  0  0  0  0  0  0  0
   -0.6406    2.3591   -2.2623 H   0  0  0  0  0  0  0  0  0  0  0  0
   -2.3987    2.2021   -2.0843 H   0  0  0  0  0  0  0  0  0  0  0  0
   -1.7301    4.2124   -2.5084 C   0  0  0  0  0  0  0  0  0  0  0  0
   -2.6158    4.6904   -2.0751 H   0  0  0  0  0  0  0  0  0  0  0  0
   -0.8570    4.8360   -2.2859 H   0  0  0  0  0  0  0  0  0  0  0  0
   -1.8948    4.0709   -3.9667 N   0  3  0  0  0  0  0  0  0  0  0  0
   -1.7850    3.1370   -4.3598 H   0  0  0  0  0  0  0  0  0  0  0  0
   -2.1314    5.0739   -4.7627 C   0  0  0  0  0  0  0  0  0  0  0  0
   -2.2462    6.3619   -4.2905 N   0  0  0  0  0  0  0  0  0  0  0  0
   -1.9739    6.5405   -3.3258 H   0  0  0  0  0  0  0  0  0  0  0  0
   -2.1896    7.1325   -4.9534 H   0  0  0  0  0  0  0  0  0  0  0  0
   -2.2652    4.8526   -6.1128 N   0  0  0  0  0  0  0  0  0  0  0  0
   -2.3532    3.8955   -6.4489 H   0  0  0  0  0  0  0  0  0  0  0  0
   -2.6389    5.6004   -6.6947 H   0  0  0  0  0  0  0  0  0  0  0  0
   -0.6655    1.8600    1.8421 C   0  0  0  0  0  0  0  0  0  0  0  0
   -0.3449    2.9730    2.2403 O   0  0  0  0  0  0  0  0  0  0  0  0
   -0.6071    0.8085    2.7367 N   0  0  0  0  0  0  0  0  0  0  0  0
   -0.7761   -0.1239    2.3517 H   0  0  0  0  0  0  0  0  0  0  0  0
   -0.0847    0.9241    4.0939 C   0  0  0  0  0  0  0  0  0  0  0  0
   -0.6654    1.6535    4.6685 H   0  0  0  0  0  0  0  0  0  0  0  0
   -0.1438   -0.0417    4.6050 H   0  0  0  0  0  0  0  0  0  0  0  0
    0.9625    1.2439    4.0769 H   0  0  0  0  0  0  0  0  0  0  0  0
  1  2  1  0  0  0  0
  2  3  1  0  0  0  0
  2  4  1  0  0  0  0
  2  5  1  0  0  0  0
  5  6  2  0  0  0  0
  5  7  1  0  0  0  0
  7  8  1  0  0  0  0
  7  9  1  0  0  0  0
  9 10  1  0  0  0  0
  9 11  1  0  0  0  0
  9 29  1  0  0  0  0
 11 12  1  0  0  0  0
 11 13  1  0  0  0  0
 11 14  1  0  0  0  0
 14 15  1  0  0  0  0
 14 16  1  0  0  0  0
 14 17  1  0  0  0  0
 17 18  1  0  0  0  0
 17 19  1  0  0  0  0
 17 20  1  0  0  0  0
 20 21  1  0  0  0  0
 20 22  2  0  0  0  0
 22 23  1  0  0  0  0
 22 26  1  0  0  0  0
 23 24  1  0  0  0  0
 23 25  1  0  0  0  0
 26 27  1  0  0  0  0
 26 28  1  0  0  0  0
 29 30  2  0  0  0  0
 29 31  1  0  0  0  0
 31 32  1  0  0  0  0
 31 33  1  0  0  0  0
 33 34  1  0  0  0  0
 33 35  1  0  0  0  0
 33 36  1  0  0  0  0
M  CHG  1  20   1
M  END
$$$$

  -OEChem-02172215453D

 36 35  0     1  0  0  0  0  0999 V2000
   -3.7927   -2.0542    1.3012 H   0  0  0  0  0  0  0  0  0  0  0  0
   -3.8943   -1.0372    0.9115 C   0  0  0  0  0  0  0  0  0  0  0  0
   -4.4547   -0.4399    1.6351 H   0  0  0  0  0  0  0  0  0  0  0  0
   -4.4491   -1.0748   -0.0289 H   0  0  0  0  0  0  0  0  0  0  0  0
   -2.5241   -0.4287    0.6835 C   0  0  0  0  0  0  0  0  0  0  0  0
   -1.5198   -1.1032    0.8464 O   0  0  0  0  0  0  0  0  0  0  0  0
   -2.4087    0.8813    0.2572 N   0  0  0  0  0  0  0  0  0  0  0  0
   -3.2779    1.4076    0.2757 H   0  0  0  0  0  0  0  0  0  0  0  0
   -1.1616    1.6665    0.3628 C   0  0  1  0  0  0  0  0  0  0  0  0
   -0.3684    1.1222   -0.1612 H   0  0  0  0  0  0  0  0  0  0  0  0
   -1.3622    3.0139   -0.3623 C   0  0  0  0  0  0  0  0  0  0  0  0
   -2.2352    3.5262    0.0572 H   0  0  0  0  0  0  0  0  0  0  0  0
   -0.4883    3.6510   -0.1835 H   0  0  0  0  0  0  0  0  0  0  0  0
   -1.5265    2.8415   -1.8781 C   0  0  0  0  0  0  0  0  0  0  0  0
   -0.6368    2.3541   -2.2917 H   0  0  0  0  0  0  0  0  0  0  0  0
   -2.3926    2.2063   -2.0918 H   0  0  0  0  0  0  0  0  0  0  0  0
   -1.7186    4.2139   -2.5199 C   0  0  0  0  0  0  0  0  0  0  0  0
   -2.5956    4.6967   -2.0743 H   0  0  0  0  0  0  0  0  0  0  0  0
   -0.8383    4.8311   -2.3083 H   0  0  0  0  0  0  0  0  0  0  0  0
   -1.9027    4.0767   -3.9763 N   0  3  0  0  0  0  0  0  0  0  0  0
   -1.8052    3.1425   -4.3721 H   0  0  0  0  0  0  0  0  0  0  0  0
   -2.1438    5.0834   -4.7661 C   0  0  0  0  0  0  0  0  0  0  0  0
   -2.2454    6.3707   -4.2891 N   0  0  0  0  0  0  0  0  0  0  0  0
   -1.9687    6.5443   -3.3247 H   0  0  0  0  0  0  0  0  0  0  0  0
   -2.1847    7.1427   -4.9500 H   0  0  0  0  0  0  0  0  0  0  0  0
   -2.2935    4.8688   -6.1155 N   0  0  0  0  0  0  0  0  0  0  0  0
   -2.3885    3.9136   -6.4549 H   0  0  0  0  0  0  0  0  0  0  0  0
   -2.6733    5.6203   -6.6886 H   0  0  0  0  0  0  0  0  0  0  0  0
   -0.6397    1.8489    1.8167 C   0  0  0  0  0  0  0  0  0  0  0  0
   -0.5436    2.9696    2.3012 O   0  0  0  0  0  0  0  0  0  0  0  0
   -0.3077    0.7604    2.5994 N   0  0  0  0  0  0  0  0  0  0  0  0
   -0.4424   -0.1642    2.1820 H   0  0  0  0  0  0  0  0  0  0  0  0
    0.1640    0.8557    3.9761 C   0  0  0  0  0  0  0  0  0  0  0  0
   -0.5942    1.3265    4.6105 H   0  0  0  0  0  0  0  0  0  0  0  0
    0.3758   -0.1420    4.3728 H   0  0  0  0  0  0  0  0  0  0  0  0
    1.0833    1.4486    4.0265 H   0  0  0  0  0  0  0  0  0  0  0  0
  1  2  1  0  0  0  0
  2  3  1  0  0  0  0
  2  4  1  0  0  0  0
  2  5  1  0  0  0  0
  5  6  2  0  0  0  0
  5  7  1  0  0  0  0
  7  8  1  0  0  0  0
  7  9  1  0  0  0  0
  9 10  1  0  0  0  0
  9 11  1  0  0  0  0
  9 29  1  0  0  0  0
 11 12  1  0  0  0  0
 11 13  1  0  0  0  0
 11 14  1  0  0  0  0
 14 15  1  0  0  0  0
 14 16  1  0  0  0  0
 14 17  1  0  0  0  0
 17 18  1  0  0  0  0
 17 19  1  0  0  0  0
 17 20  1  0  0  0  0
 20 21  1  0  0  0  0
 20 22  2  0  0  0  0
 22 23  1  0  0  0  0
 22 26  1  0  0  0  0
 23 24  1  0  0  0  0
 23 25  1  0  0  0  0
 26 27  1  0  0  0  0
 26 28  1  0  0  0  0
 29 30  2  0  0  0  0
 29 31  1  0  0  0  0
 31 32  1  0  0  0  0
 31 33  1  0  0  0  0
 33 34  1  0  0  0  0
 33 35  1  0  0  0  0
 33 36  1  0  0  0  0
M  CHG  1  20   1
M  END
$$$$

  -OEChem-02172215453D

 36 35  0     1  0  0  0  0  0999 V2000
   -3.7074   -2.0580    1.3682 H   0  0  0  0  0  0  0  0  0  0  0  0
   -3.8297   -1.0397    0.9877 C   0  0  0  0  0  0  0  0  0  0  0  0
   -4.3614   -0.4484    1.7372 H   0  0  0  0  0  0  0  0  0  0  0  0
   -4.4234   -1.0762    0.0714 H   0  0  0  0  0  0  0  0  0  0  0  0
   -2.4733   -0.4233    0.7054 C   0  0  0  0  0  0  0  0  0  0  0  0
   -1.4565   -1.0822    0.8589 O   0  0  0  0  0  0  0  0  0  0  0  0
   -2.3808    0.8789    0.2488 N   0  0  0  0  0  0  0  0  0  0  0  0
   -3.2494    1.4051    0.2931 H   0  0  0  0  0  0  0  0  0  0  0  0
   -1.1309    1.6588    0.3327 C   0  0  1  0  0  0  0  0  0  0  0  0
   -0.3408    1.1122   -0.1937 H   0  0  0  0  0  0  0  0  0  0  0  0
   -1.3290    3.0082   -0.3867 C   0  0  0  0  0  0  0  0  0  0  0  0
   -2.1941    3.5254    0.0432 H   0  0  0  0  0  0  0  0  0  0  0  0
   -0.4486    3.6372   -0.2110 H   0  0  0  0  0  0  0  0  0  0  0  0
   -1.5160    2.8409   -1.9001 C   0  0  0  0  0  0  0  0  0  0  0  0
   -0.6368    2.3461   -2.3274 H   0  0  0  0  0  0  0  0  0  0  0  0
   -2.3914    2.2146   -2.1020 H   0  0  0  0  0  0  0  0  0  0  0  0
   -1.7043    4.2171   -2.5351 C   0  0  0  0  0  0  0  0  0  0  0  0
   -2.5709    4.7054   -2.0754 H   0  0  0  0  0  0  0  0  0  0  0  0
   -0.8160    4.8260   -2.3328 H   0  0  0  0  0  0  0  0  0  0  0  0
   -1.9102    4.0881   -3.9894 N   0  3  0  0  0  0  0  0  0  0  0  0
   -1.8287    3.1546   -4.3901 H   0  0  0  0  0  0  0  0  0  0  0  0
   -2.1530    5.1000   -4.7722 C   0  0  0  0  0  0  0  0  0  0  0  0
   -2.2358    6.3864   -4.2891 N   0  0  0  0  0  0  0  0  0  0  0  0
   -1.9403    6.5543   -3.3292 H   0  0  0  0  0  0  0  0  0  0  0  0
   -2.1836    7.1607   -4.9482 H   0  0  0  0  0  0  0  0  0  0  0  0
   -2.3291    4.8900   -6.1192 N   0  0  0  0  0  0  0  0  0  0  0  0
   -2.4433    3.9364   -6.4572 H   0  0  0  0  0  0  0  0  0  0  0  0
   -2.7137    5.6461   -6.6830 H   0  0  0  0  0  0  0  0  0  0  0  0
   -0.6215    1.8467    1.7866 C   0  0  0  0  0  0  0  0  0  0  0  0
   -0.7425    2.9287    2.3479 O   0  0  0  0  0  0  0  0  0  0  0  0
   -0.0212    0.8004    2.4590 N   0  0  0  0  0  0  0  0  0  0  0  0
   -0.1065   -0.1206    2.0212 H   0  0  0  0  0  0  0  0  0  0  0  0
    0.3981    0.8747    3.8538 C   0  0  0  0  0  0  0  0  0  0  0  0
   -0.4643    1.0493    4.5056 H   0  0  0  0  0  0  0  0  0  0  0  0
    0.8764   -0.0628    4.1542 H   0  0  0  0  0  0  0  0  0  0  0  0
    1.1175    1.6881    3.9964 H   0  0  0  0  0  0  0  0  0  0  0  0
  1  2  1  0  0  0  0
  2  3  1  0  0  0  0
  2  4  1  0  0  0  0
  2  5  1  0  0  0  0
  5  6  2  0  0  0  0
  5  7  1  0  0  0  0
  7  8  1  0  0  0  0
  7  9  1  0  0  0  0
  9 10  1  0  0  0  0
  9 11  1  0  0  0  0
  9 29  1  0  0  0  0
 11 12  1  0  0  0  0
 11 13  1  0  0  0  0
 11 14  1  0  0  0  0
 14 15  1  0  0  0  0
 14 16  1  0  0  0  0
 14 17  1  0  0  0  0
 17 18  1  0  0  0  0
 17 19  1  0  0  0  0
 17 20  1  0  0  0  0
 20 21  1  0  0  0  0
 20 22  2  0  0  0  0
 22 23  1  0  0  0  0
 22 26  1  0  0  0  0
 23 24  1  0  0  0  0
 23 25  1  0  0  0  0
 26 27  1  0  0  0  0
 26 28  1  0  0  0  0
 29 30  2  0  0  0  0
 29 31  1  0  0  0  0
 31 32  1  0  0  0  0
 31 33  1  0  0  0  0
 33 34  1  0  0  0  0
 33 35  1  0  0  0  0
 33 36  1  0  0  0  0
M  CHG  1  20   1
M  END
$$$$

  -OEChem-02172215453D

 36 35  0     1  0  0  0  0  0999 V2000
   -3.6402   -2.0565    1.4227 H   0  0  0  0  0  0  0  0  0  0  0  0
   -3.7797   -1.0448    1.0308 C   0  0  0  0  0  0  0  0  0  0  0  0
   -4.3093   -0.4499    1.7789 H   0  0  0  0  0  0  0  0  0  0  0  0
   -4.3844   -1.1002    0.1228 H   0  0  0  0  0  0  0  0  0  0  0  0
   -2.4347   -0.4155    0.7233 C   0  0  0  0  0  0  0  0  0  0  0  0
   -1.4055   -1.0538    0.8856 O   0  0  0  0  0  0  0  0  0  0  0  0
   -2.3635    0.8778    0.2377 N   0  0  0  0  0  0  0  0  0  0  0  0
   -3.2308    1.4040    0.3037 H   0  0  0  0  0  0  0  0  0  0  0  0
   -1.1112    1.6513    0.3068 C   0  0  1  0  0  0  0  0  0  0  0  0
   -0.3222    1.1038   -0.2204 H   0  0  0  0  0  0  0  0  0  0  0  0
   -1.3053    3.0047   -0.4037 C   0  0  0  0  0  0  0  0  0  0  0  0
   -2.1628    3.5269    0.0357 H   0  0  0  0  0  0  0  0  0  0  0  0
   -0.4189    3.6254   -0.2304 H   0  0  0  0  0  0  0  0  0  0  0  0
   -1.5106    2.8444   -1.9153 C   0  0  0  0  0  0  0  0  0  0  0  0
   -0.6412    2.3423   -2.3541 H   0  0  0  0  0  0  0  0  0  0  0  0
   -2.3941    2.2269   -2.1088 H   0  0  0  0  0  0  0  0  0  0  0  0
   -1.6943    4.2234   -2.5454 C   0  0  0  0  0  0  0  0  0  0  0  0
   -2.5515    4.7184   -2.0753 H   0  0  0  0  0  0  0  0  0  0  0  0
   -0.7986    4.8248   -2.3531 H   0  0  0  0  0  0  0  0  0  0  0  0
   -1.9176    4.0974   -3.9973 N   0  3  0  0  0  0  0  0  0  0  0  0
   -1.8532    3.1628   -4.3989 H   0  0  0  0  0  0  0  0  0  0  0  0
   -2.1605    5.1123   -4.7763 C   0  0  0  0  0  0  0  0  0  0  0  0
   -2.2267    6.3987   -4.2906 N   0  0  0  0  0  0  0  0  0  0  0  0
   -1.9156    6.5639   -3.3352 H   0  0  0  0  0  0  0  0  0  0  0  0
   -2.1812    7.1736   -4.9493 H   0  0  0  0  0  0  0  0  0  0  0  0
   -2.3568    4.9056   -6.1210 N   0  0  0  0  0  0  0  0  0  0  0  0
   -2.4854    3.9536   -6.4584 H   0  0  0  0  0  0  0  0  0  0  0  0
   -2.7439    5.6655   -6.6779 H   0  0  0  0  0  0  0  0  0  0  0  0
   -0.6230    1.8433    1.7643 C   0  0  0  0  0  0  0  0  0  0  0  0
   -0.9529    2.8410    2.3937 O   0  0  0  0  0  0  0  0  0  0  0  0
    0.2236    0.9162    2.3398 N   0  0  0  0  0  0  0  0  0  0  0  0
    0.2481    0.0045    1.8788 H   0  0  0  0  0  0  0  0  0  0  0  0
    0.6393    0.9894    3.7362 C   0  0  0  0  0  0  0  0  0  0  0  0
   -0.2273    0.9020    4.4001 H   0  0  0  0  0  0  0  0  0  0  0  0
    1.3369    0.1779    3.9661 H   0  0  0  0  0  0  0  0  0  0  0  0
    1.1422    1.9411    3.9383 H   0  0  0  0  0  0  0  0  0  0  0  0
  1  2  1  0  0  0  0
  2  3  1  0  0  0  0
  2  4  1  0  0  0  0
  2  5  1  0  0  0  0
  5  6  2  0  0  0  0
  5  7  1  0  0  0  0
  7  8  1  0  0  0  0
  7  9  1  0  0  0  0
  9 10  1  0  0  0  0
  9 11  1  0  0  0  0
  9 29  1  0  0  0  0
 11 12  1  0  0  0  0
 11 13  1  0  0  0  0
 11 14  1  0  0  0  0
 14 15  1  0  0  0  0
 14 16  1  0  0  0  0
 14 17  1  0  0  0  0
 17 18  1  0  0  0  0
 17 19  1  0  0  0  0
 17 20  1  0  0  0  0
 20 21  1  0  0  0  0
 20 22  2  0  0  0  0
 22 23  1  0  0  0  0
 22 26  1  0  0  0  0
 23 24  1  0  0  0  0
 23 25  1  0  0  0  0
 26 27  1  0  0  0  0
 26 28  1  0  0  0  0
 29 30  2  0  0  0  0
 29 31  1  0  0  0  0
 31 32  1  0  0  0  0
 31 33  1  0  0  0  0
 33 34  1  0  0  0  0
 33 35  1  0  0  0  0
 33 36  1  0  0  0  0
M  CHG  1  20   1
M  END
$$$$

  -OEChem-02172215453D

 36 35  0     1  0  0  0  0  0999 V2000
   -3.5904   -2.0464    1.4903 H   0  0  0  0  0  0  0  0  0  0  0  0
   -3.7475   -1.0483    1.0713 C   0  0  0  0  0  0  0  0  0  0  0  0
   -4.2710   -0.4374    1.8106 H   0  0  0  0  0  0  0  0  0  0  0  0
   -4.3659   -1.1366    0.1752 H   0  0  0  0  0  0  0  0  0  0  0  0
   -2.4144   -0.4146    0.7238 C   0  0  0  0  0  0  0  0  0  0  0  0
   -1.3767   -1.0428    0.8718 O   0  0  0  0  0  0  0  0  0  0  0  0
   -2.3610    0.8738    0.2224 N   0  0  0  0  0  0  0  0  0  0  0  0
   -3.2257    1.3997    0.3195 H   0  0  0  0  0  0  0  0  0  0  0  0
   -1.1083    1.6447    0.2867 C   0  0  1  0  0  0  0  0  0  0  0  0
   -0.3196    1.0964   -0.2401 H   0  0  0  0  0  0  0  0  0  0  0  0
   -1.2975    3.0034   -0.4133 C   0  0  0  0  0  0  0  0  0  0  0  0
   -2.1511    3.5269    0.0322 H   0  0  0  0  0  0  0  0  0  0  0  0
   -0.4070    3.6180   -0.2387 H   0  0  0  0  0  0  0  0  0  0  0  0
   -1.5108    2.8524   -1.9249 C   0  0  0  0  0  0  0  0  0  0  0  0
   -0.6464    2.3477   -2.3698 H   0  0  0  0  0  0  0  0  0  0  0  0
   -2.3985    2.2402   -2.1162 H   0  0  0  0  0  0  0  0  0  0  0  0
   -1.6899    4.2343   -2.5509 C   0  0  0  0  0  0  0  0  0  0  0  0
   -2.5425    4.7336   -2.0768 H   0  0  0  0  0  0  0  0  0  0  0  0
   -0.7899    4.8302   -2.3624 H   0  0  0  0  0  0  0  0  0  0  0  0
   -1.9202    4.1093   -4.0016 N   0  3  0  0  0  0  0  0  0  0  0  0
   -1.8659    3.1736   -4.4020 H   0  0  0  0  0  0  0  0  0  0  0  0
   -2.1617    5.1236   -4.7816 C   0  0  0  0  0  0  0  0  0  0  0  0
   -2.2202    6.4122   -4.3006 N   0  0  0  0  0  0  0  0  0  0  0  0
   -1.9067    6.5800   -3.3466 H   0  0  0  0  0  0  0  0  0  0  0  0
   -2.1754    7.1845   -4.9625 H   0  0  0  0  0  0  0  0  0  0  0  0
   -2.3656    4.9133   -6.1247 N   0  0  0  0  0  0  0  0  0  0  0  0
   -2.5024    3.9607   -6.4572 H   0  0  0  0  0  0  0  0  0  0  0  0
   -2.7489    5.6738   -6.6832 H   0  0  0  0  0  0  0  0  0  0  0  0
   -0.6350    1.8378    1.7467 C   0  0  0  0  0  0  0  0  0  0  0  0
   -1.1654    2.6929    2.4452 O   0  0  0  0  0  0  0  0  0  0  0  0
    0.4274    1.1033    2.2361 N   0  0  0  0  0  0  0  0  0  0  0  0
    0.6441    0.2512    1.7202 H   0  0  0  0  0  0  0  0  0  0  0  0
    0.8594    1.1847    3.6269 C   0  0  0  0  0  0  0  0  0  0  0  0
    0.0568    0.8607    4.2978 H   0  0  0  0  0  0  0  0  0  0  0  0
    1.7298    0.5417    3.7906 H   0  0  0  0  0  0  0  0  0  0  0  0
    1.1391    2.2120    3.8836 H   0  0  0  0  0  0  0  0  0  0  0  0
  1  2  1  0  0  0  0
  2  3  1  0  0  0  0
  2  4  1  0  0  0  0
  2  5  1  0  0  0  0
  5  6  2  0  0  0  0
  5  7  1  0  0  0  0
  7  8  1  0  0  0  0
  7  9  1  0  0  0  0
  9 10  1  0  0  0  0
  9 11  1  0  0  0  0
  9 29  1  0  0  0  0
 11 12  1  0  0  0  0
 11 13  1  0  0  0  0
 11 14  1  0  0  0  0
 14 15  1  0  0  0  0
 14 16  1  0  0  0  0
 14 17  1  0  0  0  0
 17 18  1  0  0  0  0
 17 19  1  0  0  0  0
 17 20  1  0  0  0  0
 20 21  1  0  0  0  0
 20 22  2  0  0  0  0
 22 23  1  0  0  0  0
 22 26  1  0  0  0  0
 23 24  1  0  0  0  0
 23 25  1  0  0  0  0
 26 27  1  0  0  0  0
 26 28  1  0  0  0  0
 29 30  2  0  0  0  0
 29 31  1  0  0  0  0
 31 32  1  0  0  0  0
 31 33  1  0  0  0  0
 33 34  1  0  0  0  0
 33 35  1  0  0  0  0
 33 36  1  0  0  0  0
M  CHG  1  20   1
M  END
$$$$

  -OEChem-02172215453D

 36 35  0     1  0  0  0  0  0999 V2000
   -3.5567   -2.0369    1.5285 H   0  0  0  0  0  0  0  0  0  0  0  0
   -3.7206   -1.0335    1.1249 C   0  0  0  0  0  0  0  0  0  0  0  0
   -4.1888   -0.4183    1.8971 H   0  0  0  0  0  0  0  0  0  0  0  0
   -4.3914   -1.1052    0.2657 H   0  0  0  0  0  0  0  0  0  0  0  0
   -2.3990   -0.4196    0.7056 C   0  0  0  0  0  0  0  0  0  0  0  0
   -1.3619   -1.0562    0.8137 O   0  0  0  0  0  0  0  0  0  0  0  0
   -2.3551    0.8647    0.1936 N   0  0  0  0  0  0  0  0  0  0  0  0
   -3.2123    1.3927    0.3355 H   0  0  0  0  0  0  0  0  0  0  0  0
   -1.1014    1.6333    0.2611 C   0  0  1  0  0  0  0  0  0  0  0  0
   -0.3116    1.0847   -0.2637 H   0  0  0  0  0  0  0  0  0  0  0  0
   -1.2907    2.9964   -0.4282 C   0  0  0  0  0  0  0  0  0  0  0  0
   -2.1431    3.5169    0.0225 H   0  0  0  0  0  0  0  0  0  0  0  0
   -0.3996    3.6093   -0.2515 H   0  0  0  0  0  0  0  0  0  0  0  0
   -1.5074    2.8544   -1.9404 C   0  0  0  0  0  0  0  0  0  0  0  0
   -0.6451    2.3500   -2.3902 H   0  0  0  0  0  0  0  0  0  0  0  0
   -2.3965    2.2441   -2.1325 H   0  0  0  0  0  0  0  0  0  0  0  0
   -1.6872    4.2388   -2.5605 C   0  0  0  0  0  0  0  0  0  0  0  0
   -2.5392    4.7361   -2.0832 H   0  0  0  0  0  0  0  0  0  0  0  0
   -0.7873    4.8345   -2.3708 H   0  0  0  0  0  0  0  0  0  0  0  0
   -1.9202    4.1179   -4.0114 N   0  3  0  0  0  0  0  0  0  0  0  0
   -1.8633    3.1835   -4.4147 H   0  0  0  0  0  0  0  0  0  0  0  0
   -2.1631    5.1338   -4.7891 C   0  0  0  0  0  0  0  0  0  0  0  0
   -2.2209    6.4211   -4.3049 N   0  0  0  0  0  0  0  0  0  0  0  0
   -1.9074    6.5867   -3.3505 H   0  0  0  0  0  0  0  0  0  0  0  0
   -2.1779    7.1951   -4.9650 H   0  0  0  0  0  0  0  0  0  0  0  0
   -2.3691    4.9265   -6.1323 N   0  0  0  0  0  0  0  0  0  0  0  0
   -2.5074    3.9745   -6.4660 H   0  0  0  0  0  0  0  0  0  0  0  0
   -2.7584    5.6870   -6.6869 H   0  0  0  0  0  0  0  0  0  0  0  0
   -0.6419    1.8299    1.7241 C   0  0  0  0  0  0  0  0  0  0  0  0
   -1.3409    2.4925    2.4813 O   0  0  0  0  0  0  0  0  0  0  0  0
    0.5802    1.3477    2.1528 N   0  0  0  0  0  0  0  0  0  0  0  0
    1.0042    0.6267    1.5730 H   0  0  0  0  0  0  0  0  0  0  0  0
    1.0090    1.4427    3.5441 C   0  0  0  0  0  0  0  0  0  0  0  0
    0.3242    0.8887    4.1947 H   0  0  0  0  0  0  0  0  0  0  0  0
    2.0136    1.0245    3.6609 H   0  0  0  0  0  0  0  0  0  0  0  0
    1.0333    2.4885    3.8689 H   0  0  0  0  0  0  0  0  0  0  0  0
  1  2  1  0  0  0  0
  2  3  1  0  0  0  0
  2  4  1  0  0  0  0
  2  5  1  0  0  0  0
  5  6  2  0  0  0  0
  5  7  1  0  0  0  0
  7  8  1  0  0  0  0
  7  9  1  0  0  0  0
  9 10  1  0  0  0  0
  9 11  1  0  0  0  0
  9 29  1  0  0  0  0
 11 12  1  0  0  0  0
 11 13  1  0  0  0  0
 11 14  1  0  0  0  0
 14 15  1  0  0  0  0
 14 16  1  0  0  0  0
 14 17  1  0  0  0  0
 17 18  1  0  0  0  0
 17 19  1  0  0  0  0
 17 20  1  0  0  0  0
 20 21  1  0  0  0  0
 20 22  2  0  0  0  0
 22 23  1  0  0  0  0
 22 26  1  0  0  0  0
 23 24  1  0  0  0  0
 23 25  1  0  0  0  0
 26 27  1  0  0  0  0
 26 28  1  0  0  0  0
 29 30  2  0  0  0  0
 29 31  1  0  0  0  0
 31 32  1  0  0  0  0
 31 33  1  0  0  0  0
 33 34  1  0  0  0  0
 33 35  1  0  0  0  0
 33 36  1  0  0  0  0
M  CHG  1  20   1
M  END
$$$$

  -OEChem-02172215453D

 36 35  0     1  0  0  0  0  0999 V2000
   -3.5517   -2.0212    1.5522 H   0  0  0  0  0  0  0  0  0  0  0  0
   -3.7178   -1.0244    1.1336 C   0  0  0  0  0  0  0  0  0  0  0  0
   -4.1803   -0.3967    1.8992 H   0  0  0  0  0  0  0  0  0  0  0  0
   -4.3943   -1.1092    0.2800 H   0  0  0  0  0  0  0  0  0  0  0  0
   -2.3993   -0.4178    0.6949 C   0  0  0  0  0  0  0  0  0  0  0  0
   -1.3658   -1.0632    0.7801 O   0  0  0  0  0  0  0  0  0  0  0  0
   -2.3567    0.8659    0.1812 N   0  0  0  0  0  0  0  0  0  0  0  0
   -3.2094    1.3945    0.3451 H   0  0  0  0  0  0  0  0  0  0  0  0
   -1.1015    1.6325    0.2552 C   0  0  1  0  0  0  0  0  0  0  0  0
   -0.3114    1.0833   -0.2685 H   0  0  0  0  0  0  0  0  0  0  0  0
   -1.2915    2.9984   -0.4260 C   0  0  0  0  0  0  0  0  0  0  0  0
   -2.1453    3.5145    0.0273 H   0  0  0  0  0  0  0  0  0  0  0  0
   -0.4019    3.6124   -0.2467 H   0  0  0  0  0  0  0  0  0  0  0  0
   -1.5073    2.8591   -1.9385 C   0  0  0  0  0  0  0  0  0  0  0  0
   -0.6433    2.3569   -2.3875 H   0  0  0  0  0  0  0  0  0  0  0  0
   -2.3951    2.2472   -2.1315 H   0  0  0  0  0  0  0  0  0  0  0  0
   -1.6891    4.2426   -2.5599 C   0  0  0  0  0  0  0  0  0  0  0  0
   -2.5428    4.7384   -2.0837 H   0  0  0  0  0  0  0  0  0  0  0  0
   -0.7906    4.8407   -2.3706 H   0  0  0  0  0  0  0  0  0  0  0  0
   -1.9209    4.1181   -4.0108 N   0  3  0  0  0  0  0  0  0  0  0  0
   -1.8656    3.1824   -4.4113 H   0  0  0  0  0  0  0  0  0  0  0  0
   -2.1652    5.1315   -4.7912 C   0  0  0  0  0  0  0  0  0  0  0  0
   -2.2258    6.4203   -4.3108 N   0  0  0  0  0  0  0  0  0  0  0  0
   -1.9125    6.5900   -3.3571 H   0  0  0  0  0  0  0  0  0  0  0  0
   -2.1867    7.1928   -4.9731 H   0  0  0  0  0  0  0  0  0  0  0  0
   -2.3685    4.9198   -6.1341 N   0  0  0  0  0  0  0  0  0  0  0  0
   -2.5064    3.9670   -6.4660 H   0  0  0  0  0  0  0  0  0  0  0  0
   -2.7498    5.6801   -6.6946 H   0  0  0  0  0  0  0  0  0  0  0  0
   -0.6457    1.8309    1.7189 C   0  0  0  0  0  0  0  0  0  0  0  0
   -1.4440    2.2848    2.5302 O   0  0  0  0  0  0  0  0  0  0  0  0
    0.6726    1.6334    2.0846 N   0  0  0  0  0  0  0  0  0  0  0  0
    1.2461    1.0949    1.4408 H   0  0  0  0  0  0  0  0  0  0  0  0
    1.1223    1.7487    3.4678 C   0  0  0  0  0  0  0  0  0  0  0  0
    0.6040    1.0207    4.1011 H   0  0  0  0  0  0  0  0  0  0  0  0
    2.1986    1.5612    3.5335 H   0  0  0  0  0  0  0  0  0  0  0  0
    0.9253    2.7542    3.8546 H   0  0  0  0  0  0  0  0  0  0  0  0
  1  2  1  0  0  0  0
  2  3  1  0  0  0  0
  2  4  1  0  0  0  0
  2  5  1  0  0  0  0
  5  6  2  0  0  0  0
  5  7  1  0  0  0  0
  7  8  1  0  0  0  0
  7  9  1  0  0  0  0
  9 10  1  0  0  0  0
  9 11  1  0  0  0  0
  9 29  1  0  0  0  0
 11 12  1  0  0  0  0
 11 13  1  0  0  0  0
 11 14  1  0  0  0  0
 14 15  1  0  0  0  0
 14 16  1  0  0  0  0
 14 17  1  0  0  0  0
 17 18  1  0  0  0  0
 17 19  1  0  0  0  0
 17 20  1  0  0  0  0
 20 21  1  0  0  0  0
 20 22  2  0  0  0  0
 22 23  1  0  0  0  0
 22 26  1  0  0  0  0
 23 24  1  0  0  0  0
 23 25  1  0  0  0  0
 26 27  1  0  0  0  0
 26 28  1  0  0  0  0
 29 30  2  0  0  0  0
 29 31  1  0  0  0  0
 31 32  1  0  0  0  0
 31 33  1  0  0  0  0
 33 34  1  0  0  0  0
 33 35  1  0  0  0  0
 33 36  1  0  0  0  0
M  CHG  1  20   1
M  END
$$$$

  -OEChem-02172215453D

 36 35  0     1  0  0  0  0  0999 V2000
   -3.5632   -2.0196    1.5254 H   0  0  0  0  0  0  0  0  0  0  0  0
   -3.7229   -1.0105    1.1348 C   0  0  0  0  0  0  0  0  0  0  0  0
   -4.1526   -0.3928    1.9274 H   0  0  0  0  0  0  0  0  0  0  0  0
   -4.4244   -1.0632    0.2992 H   0  0  0  0  0  0  0  0  0  0  0  0
   -2.4061   -0.4160    0.6745 C   0  0  0  0  0  0  0  0  0  0  0  0
   -1.3798   -1.0762    0.7248 O   0  0  0  0  0  0  0  0  0  0  0  0
   -2.3603    0.8701    0.1674 N   0  0  0  0  0  0  0  0  0  0  0  0
   -3.2074    1.3999    0.3549 H   0  0  0  0  0  0  0  0  0  0  0  0
   -1.1024    1.6318    0.2552 C   0  0  1  0  0  0  0  0  0  0  0  0
   -0.3104    1.0825   -0.2655 H   0  0  0  0  0  0  0  0  0  0  0  0
   -1.2955    2.9990   -0.4215 C   0  0  0  0  0  0  0  0  0  0  0  0
   -2.1530    3.5102    0.0306 H   0  0  0  0  0  0  0  0  0  0  0  0
   -0.4093    3.6171   -0.2394 H   0  0  0  0  0  0  0  0  0  0  0  0
   -1.5051    2.8595   -1.9353 C   0  0  0  0  0  0  0  0  0  0  0  0
   -0.6379    2.3604   -2.3815 H   0  0  0  0  0  0  0  0  0  0  0  0
   -2.3891    2.2432   -2.1321 H   0  0  0  0  0  0  0  0  0  0  0  0
   -1.6913    4.2415   -2.5576 C   0  0  0  0  0  0  0  0  0  0  0  0
   -2.5491    4.7329   -2.0846 H   0  0  0  0  0  0  0  0  0  0  0  0
   -0.7962    4.8433   -2.3656 H   0  0  0  0  0  0  0  0  0  0  0  0
   -1.9172    4.1147   -4.0090 N   0  3  0  0  0  0  0  0  0  0  0  0
   -1.8567    3.1789   -4.4086 H   0  0  0  0  0  0  0  0  0  0  0  0
   -2.1638    5.1262   -4.7912 C   0  0  0  0  0  0  0  0  0  0  0  0
   -2.2328    6.4150   -4.3120 N   0  0  0  0  0  0  0  0  0  0  0  0
   -1.9281    6.5867   -3.3560 H   0  0  0  0  0  0  0  0  0  0  0  0
   -2.1952    7.1878   -4.9738 H   0  0  0  0  0  0  0  0  0  0  0  0
   -2.3612    4.9120   -6.1346 N   0  0  0  0  0  0  0  0  0  0  0  0
   -2.4852    3.9574   -6.4668 H   0  0  0  0  0  0  0  0  0  0  0  0
   -2.7507    5.6674   -6.6960 H   0  0  0  0  0  0  0  0  0  0  0  0
   -0.6487    1.8255    1.7212 C   0  0  0  0  0  0  0  0  0  0  0  0
   -1.4924    2.0604    2.5785 O   0  0  0  0  0  0  0  0  0  0  0  0
    0.6935    1.9268    2.0385 N   0  0  0  0  0  0  0  0  0  0  0  0
    1.3568    1.5961    1.3437 H   0  0  0  0  0  0  0  0  0  0  0  0
    1.1609    2.0902    3.4114 C   0  0  0  0  0  0  0  0  0  0  0  0
    0.8549    1.2356    4.0245 H   0  0  0  0  0  0  0  0  0  0  0  0
    2.2528    2.1606    3.4352 H   0  0  0  0  0  0  0  0  0  0  0  0
    0.7487    3.0039    3.8528 H   0  0  0  0  0  0  0  0  0  0  0  0
  1  2  1  0  0  0  0
  2  3  1  0  0  0  0
  2  4  1  0  0  0  0
  2  5  1  0  0  0  0
  5  6  2  0  0  0  0
  5  7  1  0  0  0  0
  7  8  1  0  0  0  0
  7  9  1  0  0  0  0
  9 10  1  0  0  0  0
  9 11  1  0  0  0  0
  9 29  1  0  0  0  0
 11 12  1  0  0  0  0
 11 13  1  0  0  0  0
 11 14  1  0  0  0  0
 14 15  1  0  0  0  0
 14 16  1  0  0  0  0
 14 17  1  0  0  0  0
 17 18  1  0  0  0  0
 17 19  1  0  0  0  0
 17 20  1  0  0  0  0
 20 21  1  0  0  0  0
 20 22  2  0  0  0  0
 22 23  1  0  0  0  0
 22 26  1  0  0  0  0
 23 24  1  0  0  0  0
 23 25  1  0  0  0  0
 26 27  1  0  0  0  0
 26 28  1  0  0  0  0
 29 30  2  0  0  0  0
 29 31  1  0  0  0  0
 31 32  1  0  0  0  0
 31 33  1  0  0  0  0
 33 34  1  0  0  0  0
 33 35  1  0  0  0  0
 33 36  1  0  0  0  0
M  CHG  1  20   1
M  END
$$$$

  -OEChem-02172215453D

 36 35  0     1  0  0  0  0  0999 V2000
   -3.5645   -2.0217    1.4961 H   0  0  0  0  0  0  0  0  0  0  0  0
   -3.7206   -0.9981    1.1441 C   0  0  0  0  0  0  0  0  0  0  0  0
   -4.0978   -0.3964    1.9750 H   0  0  0  0  0  0  0  0  0  0  0  0
   -4.4615   -1.0097    0.3416 H   0  0  0  0  0  0  0  0  0  0  0  0
   -2.4142   -0.4165    0.6410 C   0  0  0  0  0  0  0  0  0  0  0  0
   -1.3970   -1.0927    0.6374 O   0  0  0  0  0  0  0  0  0  0  0  0
   -2.3691    0.8766    0.1517 N   0  0  0  0  0  0  0  0  0  0  0  0
   -3.2123    1.4026    0.3643 H   0  0  0  0  0  0  0  0  0  0  0  0
   -1.1092    1.6343    0.2592 C   0  0  1  0  0  0  0  0  0  0  0  0
   -0.3155    1.0898   -0.2639 H   0  0  0  0  0  0  0  0  0  0  0  0
   -1.3064    3.0043   -0.4117 C   0  0  0  0  0  0  0  0  0  0  0  0
   -2.1704    3.5077    0.0364 H   0  0  0  0  0  0  0  0  0  0  0  0
   -0.4265    3.6292   -0.2236 H   0  0  0  0  0  0  0  0  0  0  0  0
   -1.5047    2.8666   -1.9276 C   0  0  0  0  0  0  0  0  0  0  0  0
   -0.6311    2.3736   -2.3682 H   0  0  0  0  0  0  0  0  0  0  0  0
   -2.3834    2.2451   -2.1320 H   0  0  0  0  0  0  0  0  0  0  0  0
   -1.6964    4.2467   -2.5523 C   0  0  0  0  0  0  0  0  0  0  0  0
   -2.5619    4.7321   -2.0874 H   0  0  0  0  0  0  0  0  0  0  0  0
   -0.8079    4.8564   -2.3545 H   0  0  0  0  0  0  0  0  0  0  0  0
   -1.9106    4.1134   -4.0051 N   0  3  0  0  0  0  0  0  0  0  0  0
   -1.8406    3.1762   -4.4004 H   0  0  0  0  0  0  0  0  0  0  0  0
   -2.1592    5.1194   -4.7935 C   0  0  0  0  0  0  0  0  0  0  0  0
   -2.2421    6.4095   -4.3203 N   0  0  0  0  0  0  0  0  0  0  0  0
   -1.9468    6.5889   -3.3628 H   0  0  0  0  0  0  0  0  0  0  0  0
   -2.2106    7.1796   -4.9855 H   0  0  0  0  0  0  0  0  0  0  0  0
   -2.3436    4.8976   -6.1376 N   0  0  0  0  0  0  0  0  0  0  0  0
   -2.4529    3.9403   -6.4674 H   0  0  0  0  0  0  0  0  0  0  0  0
   -2.7364    5.6462   -6.7057 H   0  0  0  0  0  0  0  0  0  0  0  0
   -0.6503    1.8148    1.7279 C   0  0  0  0  0  0  0  0  0  0  0  0
   -1.4875    1.8248    2.6230 O   0  0  0  0  0  0  0  0  0  0  0  0
    0.6430    2.2151    2.0139 N   0  0  0  0  0  0  0  0  0  0  0  0
    1.3362    2.0967    1.2811 H   0  0  0  0  0  0  0  0  0  0  0  0
    1.1134    2.4293    3.3790 C   0  0  0  0  0  0  0  0  0  0  0  0
    1.0330    1.5051    3.9614 H   0  0  0  0  0  0  0  0  0  0  0  0
    2.1609    2.7465    3.3748 H   0  0  0  0  0  0  0  0  0  0  0  0
    0.5213    3.2073    3.8730 H   0  0  0  0  0  0  0  0  0  0  0  0
  1  2  1  0  0  0  0
  2  3  1  0  0  0  0
  2  4  1  0  0  0  0
  2  5  1  0  0  0  0
  5  6  2  0  0  0  0
  5  7  1  0  0  0  0
  7  8  1  0  0  0  0
  7  9  1  0  0  0  0
  9 10  1  0  0  0  0
  9 11  1  0  0  0  0
  9 29  1  0  0  0  0
 11 12  1  0  0  0  0
 11 13  1  0  0  0  0
 11 14  1  0  0  0  0
 14 15  1  0  0  0  0
 14 16  1  0  0  0  0
 14 17  1  0  0  0  0
 17 18  1  0  0  0  0
 17 19  1  0  0  0  0
 17 20  1  0  0  0  0
 20 21  1  0  0  0  0
 20 22  2  0  0  0  0
 22 23  1  0  0  0  0
 22 26  1  0  0  0  0
 23 24  1  0  0  0  0
 23 25  1  0  0  0  0
 26 27  1  0  0  0  0
 26 28  1  0  0  0  0
 29 30  2  0  0  0  0
 29 31  1  0  0  0  0
 31 32  1  0  0  0  0
 31 33  1  0  0  0  0
 33 34  1  0  0  0  0
 33 35  1  0  0  0  0
 33 36  1  0  0  0  0
M  CHG  1  20   1
M  END
$$$$

  -OEChem-02172215453D

 36 35  0     1  0  0  0  0  0999 V2000
   -3.6026   -2.0576    1.3569 H   0  0  0  0  0  0  0  0  0  0  0  0
   -3.7423   -1.0078    1.0833 C   0  0  0  0  0  0  0  0  0  0  0  0
   -4.0666   -0.4570    1.9695 H   0  0  0  0  0  0  0  0  0  0  0  0
   -4.5152   -0.9435    0.3144 H   0  0  0  0  0  0  0  0  0  0  0  0
   -2.4387   -0.4303    0.5673 C   0  0  0  0  0  0  0  0  0  0  0  0
   -1.4549   -1.1423    0.4381 O   0  0  0  0  0  0  0  0  0  0  0  0
   -2.3711    0.8820    0.1307 N   0  0  0  0  0  0  0  0  0  0  0  0
   -3.2145    1.4008    0.3541 H   0  0  0  0  0  0  0  0  0  0  0  0
   -1.1100    1.6372    0.2864 C   0  0  1  0  0  0  0  0  0  0  0  0
   -0.3892    1.2534   -0.4434 H   0  0  0  0  0  0  0  0  0  0  0  0
   -1.4105    3.1172   -0.0264 C   0  0  0  0  0  0  0  0  0  0  0  0
   -2.2273    3.4650    0.6161 H   0  0  0  0  0  0  0  0  0  0  0  0
   -0.5305    3.7269    0.2030 H   0  0  0  0  0  0  0  0  0  0  0  0
   -1.7735    3.3238   -1.5049 C   0  0  0  0  0  0  0  0  0  0  0  0
   -0.9440    2.9867   -2.1365 H   0  0  0  0  0  0  0  0  0  0  0  0
   -2.6559    2.7265   -1.7591 H   0  0  0  0  0  0  0  0  0  0  0  0
   -2.0624    4.8005   -1.7681 C   0  0  0  0  0  0  0  0  0  0  0  0
   -2.8798    5.1272   -1.1154 H   0  0  0  0  0  0  0  0  0  0  0  0
   -1.1689    5.3879   -1.5280 H   0  0  0  0  0  0  0  0  0  0  0  0
   -2.4340    4.9962   -3.1819 N   0  3  0  0  0  0  0  0  0  0  0  0
   -2.3869    4.1803   -3.7915 H   0  0  0  0  0  0  0  0  0  0  0  0
   -2.7896    6.1445   -3.6831 C   0  0  0  0  0  0  0  0  0  0  0  0
   -2.8461    7.2858   -2.9153 N   0  0  0  0  0  0  0  0  0  0  0  0
   -2.4505    7.2539   -1.9779 H   0  0  0  0  0  0  0  0  0  0  0  0
   -2.9099    8.1891   -3.3806 H   0  0  0  0  0  0  0  0  0  0  0  0
   -3.1179    6.2313   -5.0154 N   0  0  0  0  0  0  0  0  0  0  0  0
   -3.2469    5.3733   -5.5485 H   0  0  0  0  0  0  0  0  0  0  0  0
   -3.5795    7.0753   -5.3501 H   0  0  0  0  0  0  0  0  0  0  0  0
   -0.4300    1.4981    1.6800 C   0  0  0  0  0  0  0  0  0  0  0  0
   -1.0891    1.1335    2.6468 O   0  0  0  0  0  0  0  0  0  0  0  0
    0.7612    2.1569    1.9375 N   0  0  0  0  0  0  0  0  0  0  0  0
    1.3320    2.4074    1.1362 H   0  0  0  0  0  0  0  0  0  0  0  0
    1.3866    2.1680    3.2576 C   0  0  0  0  0  0  0  0  0  0  0  0
    1.5956    1.1459    3.5920 H   0  0  0  0  0  0  0  0  0  0  0  0
    2.3304    2.7208    3.2261 H   0  0  0  0  0  0  0  0  0  0  0  0
    0.7310    2.6497    3.9912 H   0  0  0  0  0  0  0  0  0  0  0  0
  1  2  1  0  0  0  0
  2  3  1  0  0  0  0
  2  4  1  0  0  0  0
  2  5  1  0  0  0  0
  5  6  2  0  0  0  0
  5  7  1  0  0  0  0
  7  8  1  0  0  0  0
  7  9  1  0  0  0  0
  9 10  1  0  0  0  0
  9 11  1  0  0  0  0
  9 29  1  0  0  0  0
 11 12  1  0  0  0  0
 11 13  1  0  0  0  0
 11 14  1  0  0  0  0
 14 15  1  0  0  0  0
 14 16  1  0  0  0  0
 14 17  1  0  0  0  0
 17 18  1  0  0  0  0
 17 19  1  0  0  0  0
 17 20  1  0  0  0  0
 20 21  1  0  0  0  0
 20 22  2  0  0  0  0
 22 23  1  0  0  0  0
 22 26  1  0  0  0  0
 23 24  1  0  0  0  0
 23 25  1  0  0  0  0
 26 27  1  0  0  0  0
 26 28  1  0  0  0  0
 29 30  2  0  0  0  0
 29 31  1  0  0  0  0
 31 32  1  0  0  0  0
 31 33  1  0  0  0  0
 33 34  1  0  0  0  0
 33 35  1  0  0  0  0
 33 36  1  0  0  0  0
M  CHG  1  20   1
M  END
$$$$

  -OEChem-02172215453D

 36 35  0     1  0  0  0  0  0999 V2000
   -3.6162   -2.0638    1.2605 H   0  0  0  0  0  0  0  0  0  0  0  0
   -3.7364   -0.9916    1.0814 C   0  0  0  0  0  0  0  0  0  0  0  0
   -3.9845   -0.5060    2.0285 H   0  0  0  0  0  0  0  0  0  0  0  0
   -4.5533   -0.8418    0.3723 H   0  0  0  0  0  0  0  0  0  0  0  0
   -2.4485   -0.4116    0.5302 C   0  0  0  0  0  0  0  0  0  0  0  0
   -1.4903   -1.1341    0.3043 O   0  0  0  0  0  0  0  0  0  0  0  0
   -2.3779    0.9151    0.1401 N   0  0  0  0  0  0  0  0  0  0  0  0
   -3.2168    1.4266    0.3947 H   0  0  0  0  0  0  0  0  0  0  0  0
   -1.1157    1.6676    0.3135 C   0  0  1  0  0  0  0  0  0  0  0  0
   -0.3989    1.2934   -0.4256 H   0  0  0  0  0  0  0  0  0  0  0  0
   -1.4262    3.1474   -0.0024 C   0  0  0  0  0  0  0  0  0  0  0  0
   -2.2517    3.4901    0.6315 H   0  0  0  0  0  0  0  0  0  0  0  0
   -0.5562    3.7704    0.2267 H   0  0  0  0  0  0  0  0  0  0  0  0
   -1.7752    3.3435   -1.4863 C   0  0  0  0  0  0  0  0  0  0  0  0
   -0.9355    3.0099   -2.1062 H   0  0  0  0  0  0  0  0  0  0  0  0
   -2.6484    2.7360   -1.7475 H   0  0  0  0  0  0  0  0  0  0  0  0
   -2.0763    4.8147   -1.7662 C   0  0  0  0  0  0  0  0  0  0  0  0
   -2.9057    5.1387   -1.1272 H   0  0  0  0  0  0  0  0  0  0  0  0
   -1.1927    5.4147   -1.5219 H   0  0  0  0  0  0  0  0  0  0  0  0
   -2.4329    4.9895   -3.1867 N   0  3  0  0  0  0  0  0  0  0  0  0
   -2.3712    4.1664   -3.7853 H   0  0  0  0  0  0  0  0  0  0  0  0
   -2.7950    6.1271   -3.7071 C   0  0  0  0  0  0  0  0  0  0  0  0
   -2.8737    7.2778   -2.9556 N   0  0  0  0  0  0  0  0  0  0  0  0
   -2.4833    7.2639   -2.0158 H   0  0  0  0  0  0  0  0  0  0  0  0
   -2.9391    8.1737   -3.4350 H   0  0  0  0  0  0  0  0  0  0  0  0
   -3.1095    6.1927   -5.0437 N   0  0  0  0  0  0  0  0  0  0  0  0
   -3.2245    5.3257   -5.5656 H   0  0  0  0  0  0  0  0  0  0  0  0
   -3.5789    7.0262   -5.3937 H   0  0  0  0  0  0  0  0  0  0  0  0
   -0.4049    1.5011    1.6949 C   0  0  0  0  0  0  0  0  0  0  0  0
   -0.9371    0.8740    2.6023 O   0  0  0  0  0  0  0  0  0  0  0  0
    0.5998    2.3810    2.0684 N   0  0  0  0  0  0  0  0  0  0  0  0
    1.0762    2.8827    1.3260 H   0  0  0  0  0  0  0  0  0  0  0  0
    1.2089    2.3766    3.3966 C   0  0  0  0  0  0  0  0  0  0  0  0
    1.6411    1.3945    3.6175 H   0  0  0  0  0  0  0  0  0  0  0  0
    2.0054    3.1248    3.4521 H   0  0  0  0  0  0  0  0  0  0  0  0
    0.4627    2.6118    4.1631 H   0  0  0  0  0  0  0  0  0  0  0  0
  1  2  1  0  0  0  0
  2  3  1  0  0  0  0
  2  4  1  0  0  0  0
  2  5  1  0  0  0  0
  5  6  2  0  0  0  0
  5  7  1  0  0  0  0
  7  8  1  0  0  0  0
  7  9  1  0  0  0  0
  9 10  1  0  0  0  0
  9 11  1  0  0  0  0
  9 29  1  0  0  0  0
 11 12  1  0  0  0  0
 11 13  1  0  0  0  0
 11 14  1  0  0  0  0
 14 15  1  0  0  0  0
 14 16  1  0  0  0  0
 14 17  1  0  0  0  0
 17 18  1  0  0  0  0
 17 19  1  0  0  0  0
 17 20  1  0  0  0  0
 20 21  1  0  0  0  0
 20 22  2  0  0  0  0
 22 23  1  0  0  0  0
 22 26  1  0  0  0  0
 23 24  1  0  0  0  0
 23 25  1  0  0  0  0
 26 27  1  0  0  0  0
 26 28  1  0  0  0  0
 29 30  2  0  0  0  0
 29 31  1  0  0  0  0
 31 32  1  0  0  0  0
 31 33  1  0  0  0  0
 33 34  1  0  0  0  0
 33 35  1  0  0  0  0
 33 36  1  0  0  0  0
M  CHG  1  20   1
M  END
$$$$

  -OEChem-02172215453D

 36 35  0     1  0  0  0  0  0999 V2000
   -3.5876   -2.0545    1.2278 H   0  0  0  0  0  0  0  0  0  0  0  0
   -3.7081   -0.9743    1.1040 C   0  0  0  0  0  0  0  0  0  0  0  0
   -3.8815   -0.5288    2.0864 H   0  0  0  0  0  0  0  0  0  0  0  0
   -4.5719   -0.7865    0.4625 H   0  0  0  0  0  0  0  0  0  0  0  0
   -2.4556   -0.3826    0.4876 C   0  0  0  0  0  0  0  0  0  0  0  0
   -1.5390   -1.1052    0.1311 O   0  0  0  0  0  0  0  0  0  0  0  0
   -2.3922    0.9589    0.1537 N   0  0  0  0  0  0  0  0  0  0  0  0
   -3.2291    1.4523    0.4470 H   0  0  0  0  0  0  0  0  0  0  0  0
   -1.1373    1.7201    0.3460 C   0  0  1  0  0  0  0  0  0  0  0  0
   -0.4209    1.3598   -0.4005 H   0  0  0  0  0  0  0  0  0  0  0  0
   -1.4566    3.1985    0.0252 C   0  0  0  0  0  0  0  0  0  0  0  0
   -2.2929    3.5375    0.6466 H   0  0  0  0  0  0  0  0  0  0  0  0
   -0.5935    3.8293    0.2564 H   0  0  0  0  0  0  0  0  0  0  0  0
   -1.7853    3.3808   -1.4666 C   0  0  0  0  0  0  0  0  0  0  0  0
   -0.9325    3.0503   -2.0702 H   0  0  0  0  0  0  0  0  0  0  0  0
   -2.6473    2.7608   -1.7367 H   0  0  0  0  0  0  0  0  0  0  0  0
   -2.0986    4.8445   -1.7722 C   0  0  0  0  0  0  0  0  0  0  0  0
   -2.9416    5.1699   -1.1524 H   0  0  0  0  0  0  0  0  0  0  0  0
   -1.2258    5.4589   -1.5242 H   0  0  0  0  0  0  0  0  0  0  0  0
   -2.4331    4.9884   -3.2016 N   0  3  0  0  0  0  0  0  0  0  0  0
   -2.3513    4.1545   -3.7828 H   0  0  0  0  0  0  0  0  0  0  0  0
   -2.8004    6.1100   -3.7517 C   0  0  0  0  0  0  0  0  0  0  0  0
   -2.9072    7.2750   -3.0268 N   0  0  0  0  0  0  0  0  0  0  0  0
   -2.5330    7.2856   -2.0805 H   0  0  0  0  0  0  0  0  0  0  0  0
   -2.9688    8.1591   -3.5281 H   0  0  0  0  0  0  0  0  0  0  0  0
   -3.0896    6.1435   -5.0949 N   0  0  0  0  0  0  0  0  0  0  0  0
   -3.1831    5.2645   -5.6006 H   0  0  0  0  0  0  0  0  0  0  0  0
   -3.5626    6.9633   -5.4713 H   0  0  0  0  0  0  0  0  0  0  0  0
   -0.3975    1.5214    1.7121 C   0  0  0  0  0  0  0  0  0  0  0  0
   -0.6934    0.6173    2.4803 O   0  0  0  0  0  0  0  0  0  0  0  0
    0.3656    2.5447    2.2550 N   0  0  0  0  0  0  0  0  0  0  0  0
    0.6472    3.2975    1.6369 H   0  0  0  0  0  0  0  0  0  0  0  0
    0.9910    2.4646    3.5735 C   0  0  0  0  0  0  0  0  0  0  0  0
    1.6589    1.5980    3.6291 H   0  0  0  0  0  0  0  0  0  0  0  0
    1.5785    3.3661    3.7723 H   0  0  0  0  0  0  0  0  0  0  0  0
    0.2295    2.3716    4.3553 H   0  0  0  0  0  0  0  0  0  0  0  0
  1  2  1  0  0  0  0
  2  3  1  0  0  0  0
  2  4  1  0  0  0  0
  2  5  1  0  0  0  0
  5  6  2  0  0  0  0
  5  7  1  0  0  0  0
  7  8  1  0  0  0  0
  7  9  1  0  0  0  0
  9 10  1  0  0  0  0
  9 11  1  0  0  0  0
  9 29  1  0  0  0  0
 11 12  1  0  0  0  0
 11 13  1  0  0  0  0
 11 14  1  0  0  0  0
 14 15  1  0  0  0  0
 14 16  1  0  0  0  0
 14 17  1  0  0  0  0
 17 18  1  0  0  0  0
 17 19  1  0  0  0  0
 17 20  1  0  0  0  0
 20 21  1  0  0  0  0
 20 22  2  0  0  0  0
 22 23  1  0  0  0  0
 22 26  1  0  0  0  0
 23 24  1  0  0  0  0
 23 25  1  0  0  0  0
 26 27  1  0  0  0  0
 26 28  1  0  0  0  0
 29 30  2  0  0  0  0
 29 31  1  0  0  0  0
 31 32  1  0  0  0  0
 31 33  1  0  0  0  0
 33 34  1  0  0  0  0
 33 35  1  0  0  0  0
 33 36  1  0  0  0  0
M  CHG  1  20   1
M  END
$$$$

  -OEChem-02172215453D

 36 35  0     1  0  0  0  0  0999 V2000
   -3.5403   -2.0489    1.2526 H   0  0  0  0  0  0  0  0  0  0  0  0
   -3.6791   -0.9705    1.1338 C   0  0  0  0  0  0  0  0  0  0  0  0
   -3.8236   -0.5278    2.1222 H   0  0  0  0  0  0  0  0  0  0  0  0
   -4.5665   -0.7932    0.5229 H   0  0  0  0  0  0  0  0  0  0  0  0
   -2.4574   -0.3638    0.4724 C   0  0  0  0  0  0  0  0  0  0  0  0
   -1.5798   -1.0801    0.0209 O   0  0  0  0  0  0  0  0  0  0  0  0
   -2.4111    0.9855    0.1701 N   0  0  0  0  0  0  0  0  0  0  0  0
   -3.2514    1.4604    0.4829 H   0  0  0  0  0  0  0  0  0  0  0  0
   -1.1679    1.7643    0.3679 C   0  0  1  0  0  0  0  0  0  0  0  0
   -0.4498    1.4112   -0.3810 H   0  0  0  0  0  0  0  0  0  0  0  0
   -1.4838    3.2419    0.0435 C   0  0  0  0  0  0  0  0  0  0  0  0
   -2.3253    3.5849    0.6554 H   0  0  0  0  0  0  0  0  0  0  0  0
   -0.6183    3.8694    0.2779 H   0  0  0  0  0  0  0  0  0  0  0  0
   -1.7975    3.4142   -1.4526 C   0  0  0  0  0  0  0  0  0  0  0  0
   -0.9387    3.0787   -2.0451 H   0  0  0  0  0  0  0  0  0  0  0  0
   -2.6563    2.7909   -1.7254 H   0  0  0  0  0  0  0  0  0  0  0  0
   -2.1100    4.8734   -1.7789 C   0  0  0  0  0  0  0  0  0  0  0  0
   -2.9621    5.2036   -1.1745 H   0  0  0  0  0  0  0  0  0  0  0  0
   -1.2423    5.4942   -1.5289 H   0  0  0  0  0  0  0  0  0  0  0  0
   -2.4278    4.9925   -3.2144 N   0  3  0  0  0  0  0  0  0  0  0  0
   -2.3330    4.1494   -3.7803 H   0  0  0  0  0  0  0  0  0  0  0  0
   -2.7917    6.1019   -3.7904 C   0  0  0  0  0  0  0  0  0  0  0  0
   -2.9114    7.2808   -3.0900 N   0  0  0  0  0  0  0  0  0  0  0  0
   -2.5561    7.3087   -2.1367 H   0  0  0  0  0  0  0  0  0  0  0  0
   -2.9604    8.1554   -3.6093 H   0  0  0  0  0  0  0  0  0  0  0  0
   -3.0654    6.1056   -5.1374 N   0  0  0  0  0  0  0  0  0  0  0  0
   -3.1497    5.2152   -5.6245 H   0  0  0  0  0  0  0  0  0  0  0  0
   -3.5393    6.9142   -5.5361 H   0  0  0  0  0  0  0  0  0  0  0  0
   -0.4146    1.5475    1.7221 C   0  0  0  0  0  0  0  0  0  0  0  0
   -0.3679    0.4611    2.2766 O   0  0  0  0  0  0  0  0  0  0  0  0
    0.0725    2.6252    2.4466 N   0  0  0  0  0  0  0  0  0  0  0  0
    0.0349    3.5428    2.0176 H   0  0  0  0  0  0  0  0  0  0  0  0
    0.7260    2.4904    3.7468 C   0  0  0  0  0  0  0  0  0  0  0  0
    1.6077    1.8451    3.6683 H   0  0  0  0  0  0  0  0  0  0  0  0
    1.0470    3.4695    4.1151 H   0  0  0  0  0  0  0  0  0  0  0  0
    0.0377    2.0555    4.4798 H   0  0  0  0  0  0  0  0  0  0  0  0
  1  2  1  0  0  0  0
  2  3  1  0  0  0  0
  2  4  1  0  0  0  0
  2  5  1  0  0  0  0
  5  6  2  0  0  0  0
  5  7  1  0  0  0  0
  7  8  1  0  0  0  0
  7  9  1  0  0  0  0
  9 10  1  0  0  0  0
  9 11  1  0  0  0  0
  9 29  1  0  0  0  0
 11 12  1  0  0  0  0
 11 13  1  0  0  0  0
 11 14  1  0  0  0  0
 14 15  1  0  0  0  0
 14 16  1  0  0  0  0
 14 17  1  0  0  0  0
 17 18  1  0  0  0  0
 17 19  1  0  0  0  0
 17 20  1  0  0  0  0
 20 21  1  0  0  0  0
 20 22  2  0  0  0  0
 22 23  1  0  0  0  0
 22 26  1  0  0  0  0
 23 24  1  0  0  0  0
 23 25  1  0  0  0  0
 26 27  1  0  0  0  0
 26 28  1  0  0  0  0
 29 30  2  0  0  0  0
 29 31  1  0  0  0  0
 31 32  1  0  0  0  0
 31 33  1  0  0  0  0
 33 34  1  0  0  0  0
 33 35  1  0  0  0  0
 33 36  1  0  0  0  0
M  CHG  1  20   1
M  END
$$$$

  -OEChem-02172215453D

 36 35  0     1  0  0  0  0  0999 V2000
   -3.5366   -2.0424    1.2950 H   0  0  0  0  0  0  0  0  0  0  0  0
   -3.6927   -0.9732    1.1239 C   0  0  0  0  0  0  0  0  0  0  0  0
   -3.9014   -0.4943    2.0832 H   0  0  0  0  0  0  0  0  0  0  0  0
   -4.5504   -0.8438    0.4601 H   0  0  0  0  0  0  0  0  0  0  0  0
   -2.4517   -0.3641    0.5009 C   0  0  0  0  0  0  0  0  0  0  0  0
   -1.5636   -1.0831    0.0797 O   0  0  0  0  0  0  0  0  0  0  0  0
   -2.4119    0.9830    0.1897 N   0  0  0  0  0  0  0  0  0  0  0  0
   -3.2645    1.4562    0.4699 H   0  0  0  0  0  0  0  0  0  0  0  0
   -1.1796    1.7787    0.3794 C   0  0  1  0  0  0  0  0  0  0  0  0
   -0.4559    1.4249   -0.3642 H   0  0  0  0  0  0  0  0  0  0  0  0
   -1.4913    3.2535    0.0470 C   0  0  0  0  0  0  0  0  0  0  0  0
   -2.3353    3.6016    0.6523 H   0  0  0  0  0  0  0  0  0  0  0  0
   -0.6225    3.8756    0.2874 H   0  0  0  0  0  0  0  0  0  0  0  0
   -1.8009    3.4185   -1.4510 C   0  0  0  0  0  0  0  0  0  0  0  0
   -0.9402    3.0793   -2.0388 H   0  0  0  0  0  0  0  0  0  0  0  0
   -2.6592    2.7944   -1.7228 H   0  0  0  0  0  0  0  0  0  0  0  0
   -2.1095    4.8769   -1.7859 C   0  0  0  0  0  0  0  0  0  0  0  0
   -2.9623    5.2121   -1.1852 H   0  0  0  0  0  0  0  0  0  0  0  0
   -1.2409    5.4962   -1.5363 H   0  0  0  0  0  0  0  0  0  0  0  0
   -2.4240    4.9934   -3.2223 N   0  3  0  0  0  0  0  0  0  0  0  0
   -2.3313    4.1486   -3.7860 H   0  0  0  0  0  0  0  0  0  0  0  0
   -2.7836    6.1035   -3.8002 C   0  0  0  0  0  0  0  0  0  0  0  0
   -2.9005    7.2828   -3.0998 N   0  0  0  0  0  0  0  0  0  0  0  0
   -2.5284    7.3127   -2.1531 H   0  0  0  0  0  0  0  0  0  0  0  0
   -2.9501    8.1559   -3.6215 H   0  0  0  0  0  0  0  0  0  0  0  0
   -3.0569    6.1089   -5.1477 N   0  0  0  0  0  0  0  0  0  0  0  0
   -3.1375    5.2197   -5.6379 H   0  0  0  0  0  0  0  0  0  0  0  0
   -3.5276    6.9190   -5.5476 H   0  0  0  0  0  0  0  0  0  0  0  0
   -0.4356    1.5718    1.7347 C   0  0  0  0  0  0  0  0  0  0  0  0
   -0.0310    0.4775    2.0884 O   0  0  0  0  0  0  0  0  0  0  0  0
   -0.2375    2.6303    2.6082 N   0  0  0  0  0  0  0  0  0  0  0  0
   -0.5873    3.5428    2.3382 H   0  0  0  0  0  0  0  0  0  0  0  0
    0.4285    2.4895    3.9013 C   0  0  0  0  0  0  0  0  0  0  0  0
    1.4536    2.1269    3.7682 H   0  0  0  0  0  0  0  0  0  0  0  0
    0.4686    3.4541    4.4164 H   0  0  0  0  0  0  0  0  0  0  0  0
   -0.1131    1.7812    4.5376 H   0  0  0  0  0  0  0  0  0  0  0  0
  1  2  1  0  0  0  0
  2  3  1  0  0  0  0
  2  4  1  0  0  0  0
  2  5  1  0  0  0  0
  5  6  2  0  0  0  0
  5  7  1  0  0  0  0
  7  8  1  0  0  0  0
  7  9  1  0  0  0  0
  9 10  1  0  0  0  0
  9 11  1  0  0  0  0
  9 29  1  0  0  0  0
 11 12  1  0  0  0  0
 11 13  1  0  0  0  0
 11 14  1  0  0  0  0
 14 15  1  0  0  0  0
 14 16  1  0  0  0  0
 14 17  1  0  0  0  0
 17 18  1  0  0  0  0
 17 19  1  0  0  0  0
 17 20  1  0  0  0  0
 20 21  1  0  0  0  0
 20 22  2  0  0  0  0
 22 23  1  0  0  0  0
 22 26  1  0  0  0  0
 23 24  1  0  0  0  0
 23 25  1  0  0  0  0
 26 27  1  0  0  0  0
 26 28  1  0  0  0  0
 29 30  2  0  0  0  0
 29 31  1  0  0  0  0
 31 32  1  0  0  0  0
 31 33  1  0  0  0  0
 33 34  1  0  0  0  0
 33 35  1  0  0  0  0
 33 36  1  0  0  0  0
M  CHG  1  20   1
M  END
$$$$

  -OEChem-02172215453D

 36 35  0     1  0  0  0  0  0999 V2000
   -3.7010   -2.0428    1.2337 H   0  0  0  0  0  0  0  0  0  0  0  0
   -3.8395   -1.0007    0.9308 C   0  0  0  0  0  0  0  0  0  0  0  0
   -4.3074   -0.4576    1.7549 H   0  0  0  0  0  0  0  0  0  0  0  0
   -4.4981   -0.9724    0.0599 H   0  0  0  0  0  0  0  0  0  0  0  0
   -2.4984   -0.3802    0.5894 C   0  0  0  0  0  0  0  0  0  0  0  0
   -1.5216   -1.0931    0.4705 O   0  0  0  0  0  0  0  0  0  0  0  0
   -2.4239    0.9621    0.2608 N   0  0  0  0  0  0  0  0  0  0  0  0
   -3.3017    1.4538    0.3915 H   0  0  0  0  0  0  0  0  0  0  0  0
   -1.1959    1.7692    0.4258 C   0  0  1  0  0  0  0  0  0  0  0  0
   -0.4795    1.4022   -0.3188 H   0  0  0  0  0  0  0  0  0  0  0  0
   -1.4928    3.2422    0.0810 C   0  0  0  0  0  0  0  0  0  0  0  0
   -2.3295    3.6051    0.6873 H   0  0  0  0  0  0  0  0  0  0  0  0
   -0.6139    3.8524    0.3182 H   0  0  0  0  0  0  0  0  0  0  0  0
   -1.8102    3.3999   -1.4149 C   0  0  0  0  0  0  0  0  0  0  0  0
   -0.9569    3.0471   -2.0057 H   0  0  0  0  0  0  0  0  0  0  0  0
   -2.6773    2.7839   -1.6767 H   0  0  0  0  0  0  0  0  0  0  0  0
   -2.1030    4.8605   -1.7549 C   0  0  0  0  0  0  0  0  0  0  0  0
   -2.9463    5.2109   -1.1491 H   0  0  0  0  0  0  0  0  0  0  0  0
   -1.2239    5.4693   -1.5150 H   0  0  0  0  0  0  0  0  0  0  0  0
   -2.4258    4.9735   -3.1898 N   0  3  0  0  0  0  0  0  0  0  0  0
   -2.3368    4.1275   -3.7522 H   0  0  0  0  0  0  0  0  0  0  0  0
   -2.7757    6.0849   -3.7710 C   0  0  0  0  0  0  0  0  0  0  0  0
   -2.8736    7.2691   -3.0767 N   0  0  0  0  0  0  0  0  0  0  0  0
   -2.4931    7.3006   -2.1333 H   0  0  0  0  0  0  0  0  0  0  0  0
   -2.9184    8.1394   -3.6032 H   0  0  0  0  0  0  0  0  0  0  0  0
   -3.0536    6.0865   -5.1171 N   0  0  0  0  0  0  0  0  0  0  0  0
   -3.1415    5.1969   -5.6051 H   0  0  0  0  0  0  0  0  0  0  0  0
   -3.5090    6.9025   -5.5223 H   0  0  0  0  0  0  0  0  0  0  0  0
   -0.4447    1.5936    1.7757 C   0  0  0  0  0  0  0  0  0  0  0  0
    0.3815    0.7086    1.9225 O   0  0  0  0  0  0  0  0  0  0  0  0
   -0.5169    2.5704    2.7567 N   0  0  0  0  0  0  0  0  0  0  0  0
   -1.1991    3.3113    2.6394 H   0  0  0  0  0  0  0  0  0  0  0  0
    0.2433    2.5082    4.0025 C   0  0  0  0  0  0  0  0  0  0  0  0
    1.3188    2.5450    3.7976 H   0  0  0  0  0  0  0  0  0  0  0  0
   -0.0139    3.3531    4.6486 H   0  0  0  0  0  0  0  0  0  0  0  0
    0.0212    1.5812    4.5426 H   0  0  0  0  0  0  0  0  0  0  0  0
  1  2  1  0  0  0  0
  2  3  1  0  0  0  0
  2  4  1  0  0  0  0
  2  5  1  0  0  0  0
  5  6  2  0  0  0  0
  5  7  1  0  0  0  0
  7  8  1  0  0  0  0
  7  9  1  0  0  0  0
  9 10  1  0  0  0  0
  9 11  1  0  0  0  0
  9 29  1  0  0  0  0
 11 12  1  0  0  0  0
 11 13  1  0  0  0  0
 11 14  1  0  0  0  0
 14 15  1  0  0  0  0
 14 16  1  0  0  0  0
 14 17  1  0  0  0  0
 17 18  1  0  0  0  0
 17 19  1  0  0  0  0
 17 20  1  0  0  0  0
 20 21  1  0  0  0  0
 20 22  2  0  0  0  0
 22 23  1  0  0  0  0
 22 26  1  0  0  0  0
 23 24  1  0  0  0  0
 23 25  1  0  0  0  0
 26 27  1  0  0  0  0
 26 28  1  0  0  0  0
 29 30  2  0  0  0  0
 29 31  1  0  0  0  0
 31 32  1  0  0  0  0
 31 33  1  0  0  0  0
 33 34  1  0  0  0  0
 33 35  1  0  0  0  0
 33 36  1  0  0  0  0
M  CHG  1  20   1
M  END
$$$$

  -OEChem-02172215453D

 36 35  0     1  0  0  0  0  0999 V2000
   -3.8055   -2.0717    1.1513 H   0  0  0  0  0  0  0  0  0  0  0  0
   -3.9056   -1.0402    0.8006 C   0  0  0  0  0  0  0  0  0  0  0  0
   -4.5220   -0.4872    1.5132 H   0  0  0  0  0  0  0  0  0  0  0  0
   -4.3992   -1.0479   -0.1740 H   0  0  0  0  0  0  0  0  0  0  0  0
   -2.5370   -0.3968    0.6852 C   0  0  0  0  0  0  0  0  0  0  0  0
   -1.5423   -1.0687    0.8709 O   0  0  0  0  0  0  0  0  0  0  0  0
   -2.4337    0.9327    0.3140 N   0  0  0  0  0  0  0  0  0  0  0  0
   -3.3171    1.4272    0.2483 H   0  0  0  0  0  0  0  0  0  0  0  0
   -1.2027    1.7409    0.4432 C   0  0  1  0  0  0  0  0  0  0  0  0
   -0.4969    1.3523   -0.3008 H   0  0  0  0  0  0  0  0  0  0  0  0
   -1.4840    3.2117    0.0800 C   0  0  0  0  0  0  0  0  0  0  0  0
   -2.3082    3.5927    0.6924 H   0  0  0  0  0  0  0  0  0  0  0  0
   -0.5943    3.8120    0.3036 H   0  0  0  0  0  0  0  0  0  0  0  0
   -1.8210    3.3638   -1.4111 C   0  0  0  0  0  0  0  0  0  0  0  0
   -0.9808    2.9972   -2.0120 H   0  0  0  0  0  0  0  0  0  0  0  0
   -2.7007    2.7602   -1.6583 H   0  0  0  0  0  0  0  0  0  0  0  0
   -2.0937    4.8297   -1.7448 C   0  0  0  0  0  0  0  0  0  0  0  0
   -2.9202    5.1920   -1.1233 H   0  0  0  0  0  0  0  0  0  0  0  0
   -1.2001    5.4212   -1.5155 H   0  0  0  0  0  0  0  0  0  0  0  0
   -2.4382    4.9611   -3.1731 N   0  3  0  0  0  0  0  0  0  0  0  0
   -2.3721    4.1201   -3.7458 H   0  0  0  0  0  0  0  0  0  0  0  0
   -2.7759    6.0863   -3.7355 C   0  0  0  0  0  0  0  0  0  0  0  0
   -2.8379    7.2638   -3.0251 N   0  0  0  0  0  0  0  0  0  0  0  0
   -2.4397    7.2747   -2.0885 H   0  0  0  0  0  0  0  0  0  0  0  0
   -2.8675    8.1416   -3.5404 H   0  0  0  0  0  0  0  0  0  0  0  0
   -3.0700    6.1127   -5.0781 N   0  0  0  0  0  0  0  0  0  0  0  0
   -3.1778    5.2333   -5.5799 H   0  0  0  0  0  0  0  0  0  0  0  0
   -3.5060    6.9459   -5.4695 H   0  0  0  0  0  0  0  0  0  0  0  0
   -0.4458    1.6095    1.7912 C   0  0  0  0  0  0  0  0  0  0  0  0
    0.6149    1.0053    1.8294 O   0  0  0  0  0  0  0  0  0  0  0  0
   -0.7469    2.4498    2.8514 N   0  0  0  0  0  0  0  0  0  0  0  0
   -1.6419    2.9260    2.8300 H   0  0  0  0  0  0  0  0  0  0  0  0
    0.0150    2.4521    4.0973 C   0  0  0  0  0  0  0  0  0  0  0  0
    1.0546    2.7419    3.9105 H   0  0  0  0  0  0  0  0  0  0  0  0
   -0.4179    3.1629    4.8078 H   0  0  0  0  0  0  0  0  0  0  0  0
    0.0057    1.4567    4.5548 H   0  0  0  0  0  0  0  0  0  0  0  0
  1  2  1  0  0  0  0
  2  3  1  0  0  0  0
  2  4  1  0  0  0  0
  2  5  1  0  0  0  0
  5  6  2  0  0  0  0
  5  7  1  0  0  0  0
  7  8  1  0  0  0  0
  7  9  1  0  0  0  0
  9 10  1  0  0  0  0
  9 11  1  0  0  0  0
  9 29  1  0  0  0  0
 11 12  1  0  0  0  0
 11 13  1  0  0  0  0
 11 14  1  0  0  0  0
 14 15  1  0  0  0  0
 14 16  1  0  0  0  0
 14 17  1  0  0  0  0
 17 18  1  0  0  0  0
 17 19  1  0  0  0  0
 17 20  1  0  0  0  0
 20 21  1  0  0  0  0
 20 22  2  0  0  0  0
 22 23  1  0  0  0  0
 22 26  1  0  0  0  0
 23 24  1  0  0  0  0
 23 25  1  0  0  0  0
 26 27  1  0  0  0  0
 26 28  1  0  0  0  0
 29 30  2  0  0  0  0
 29 31  1  0  0  0  0
 31 32  1  0  0  0  0
 31 33  1  0  0  0  0
 33 34  1  0  0  0  0
 33 35  1  0  0  0  0
 33 36  1  0  0  0  0
M  CHG  1  20   1
M  END
$$$$

  -OEChem-02172215453D

 36 35  0     1  0  0  0  0  0999 V2000
   -3.8338   -2.0906    1.1728 H   0  0  0  0  0  0  0  0  0  0  0  0
   -3.9172   -1.0828    0.7550 C   0  0  0  0  0  0  0  0  0  0  0  0
   -4.6173   -0.5087    1.3662 H   0  0  0  0  0  0  0  0  0  0  0  0
   -4.3040   -1.1573   -0.2639 H   0  0  0  0  0  0  0  0  0  0  0  0
   -2.5573   -0.4111    0.7463 C   0  0  0  0  0  0  0  0  0  0  0  0
   -1.5741   -1.0433    1.0792 O   0  0  0  0  0  0  0  0  0  0  0  0
   -2.4428    0.9056    0.3343 N   0  0  0  0  0  0  0  0  0  0  0  0
   -3.3143    1.3820    0.1289 H   0  0  0  0  0  0  0  0  0  0  0  0
   -1.2079    1.7110    0.4370 C   0  0  1  0  0  0  0  0  0  0  0  0
   -0.5079    1.3039   -0.3022 H   0  0  0  0  0  0  0  0  0  0  0  0
   -1.4734    3.1815    0.0648 C   0  0  0  0  0  0  0  0  0  0  0  0
   -2.2826    3.5770    0.6876 H   0  0  0  0  0  0  0  0  0  0  0  0
   -0.5728    3.7696    0.2780 H   0  0  0  0  0  0  0  0  0  0  0  0
   -1.8276    3.3408   -1.4208 C   0  0  0  0  0  0  0  0  0  0  0  0
   -1.0016    2.9629   -2.0347 H   0  0  0  0  0  0  0  0  0  0  0  0
   -2.7209    2.7532   -1.6571 H   0  0  0  0  0  0  0  0  0  0  0  0
   -2.0798    4.8142   -1.7403 C   0  0  0  0  0  0  0  0  0  0  0  0
   -2.8898    5.1868   -1.1034 H   0  0  0  0  0  0  0  0  0  0  0  0
   -1.1725    5.3880   -1.5193 H   0  0  0  0  0  0  0  0  0  0  0  0
   -2.4427    4.9667   -3.1616 N   0  3  0  0  0  0  0  0  0  0  0  0
   -2.3965    4.1319   -3.7448 H   0  0  0  0  0  0  0  0  0  0  0  0
   -2.7683    6.1037   -3.7069 C   0  0  0  0  0  0  0  0  0  0  0  0
   -2.7992    7.2751   -2.9847 N   0  0  0  0  0  0  0  0  0  0  0  0
   -2.3870    7.2705   -2.0540 H   0  0  0  0  0  0  0  0  0  0  0  0
   -2.8224    8.1581   -3.4914 H   0  0  0  0  0  0  0  0  0  0  0  0
   -3.0873    6.1485   -5.0431 N   0  0  0  0  0  0  0  0  0  0  0  0
   -3.2322    5.2746   -5.5453 H   0  0  0  0  0  0  0  0  0  0  0  0
   -3.5252    6.9908   -5.4124 H   0  0  0  0  0  0  0  0  0  0  0  0
   -0.4533    1.6158    1.7863 C   0  0  0  0  0  0  0  0  0  0  0  0
    0.7209    1.2765    1.7838 O   0  0  0  0  0  0  0  0  0  0  0  0
   -0.9470    2.2628    2.9073 N   0  0  0  0  0  0  0  0  0  0  0  0
   -1.9385    2.4760    2.9123 H   0  0  0  0  0  0  0  0  0  0  0  0
   -0.2256    2.2925    4.1766 C   0  0  0  0  0  0  0  0  0  0  0  0
    0.7565    2.7611    4.0505 H   0  0  0  0  0  0  0  0  0  0  0  0
   -0.7862    2.8675    4.9199 H   0  0  0  0  0  0  0  0  0  0  0  0
   -0.0818    1.2762    4.5593 H   0  0  0  0  0  0  0  0  0  0  0  0
  1  2  1  0  0  0  0
  2  3  1  0  0  0  0
  2  4  1  0  0  0  0
  2  5  1  0  0  0  0
  5  6  2  0  0  0  0
  5  7  1  0  0  0  0
  7  8  1  0  0  0  0
  7  9  1  0  0  0  0
  9 10  1  0  0  0  0
  9 11  1  0  0  0  0
  9 29  1  0  0  0  0
 11 12  1  0  0  0  0
 11 13  1  0  0  0  0
 11 14  1  0  0  0  0
 14 15  1  0  0  0  0
 14 16  1  0  0  0  0
 14 17  1  0  0  0  0
 17 18  1  0  0  0  0
 17 19  1  0  0  0  0
 17 20  1  0  0  0  0
 20 21  1  0  0  0  0
 20 22  2  0  0  0  0
 22 23  1  0  0  0  0
 22 26  1  0  0  0  0
 23 24  1  0  0  0  0
 23 25  1  0  0  0  0
 26 27  1  0  0  0  0
 26 28  1  0  0  0  0
 29 30  2  0  0  0  0
 29 31  1  0  0  0  0
 31 32  1  0  0  0  0
 31 33  1  0  0  0  0
 33 34  1  0  0  0  0
 33 35  1  0  0  0  0
 33 36  1  0  0  0  0
M  CHG  1  20   1
M  END
$$$$

  -OEChem-02172215453D

 36 35  0     1  0  0  0  0  0999 V2000
   -3.8465   -2.0945    1.1815 H   0  0  0  0  0  0  0  0  0  0  0  0
   -3.9213   -1.0948    0.7430 C   0  0  0  0  0  0  0  0  0  0  0  0
   -4.6472   -0.5152    1.3177 H   0  0  0  0  0  0  0  0  0  0  0  0
   -4.2708   -1.1905   -0.2875 H   0  0  0  0  0  0  0  0  0  0  0  0
   -2.5668   -0.4126    0.7712 C   0  0  0  0  0  0  0  0  0  0  0  0
   -1.5941   -1.0249    1.1680 O   0  0  0  0  0  0  0  0  0  0  0  0
   -2.4424    0.8952    0.3345 N   0  0  0  0  0  0  0  0  0  0  0  0
   -3.3010    1.3589    0.0572 H   0  0  0  0  0  0  0  0  0  0  0  0
   -1.2038    1.6963    0.4278 C   0  0  1  0  0  0  0  0  0  0  0  0
   -0.5017    1.2821   -0.3054 H   0  0  0  0  0  0  0  0  0  0  0  0
   -1.4663    3.1661    0.0544 C   0  0  0  0  0  0  0  0  0  0  0  0
   -2.2693    3.5645    0.6838 H   0  0  0  0  0  0  0  0  0  0  0  0
   -0.5624    3.7512    0.2609 H   0  0  0  0  0  0  0  0  0  0  0  0
   -1.8295    3.3269   -1.4284 C   0  0  0  0  0  0  0  0  0  0  0  0
   -1.0087    2.9470   -2.0473 H   0  0  0  0  0  0  0  0  0  0  0  0
   -2.7270    2.7445   -1.6601 H   0  0  0  0  0  0  0  0  0  0  0  0
   -2.0765    4.8023   -1.7409 C   0  0  0  0  0  0  0  0  0  0  0  0
   -2.8799    5.1758   -1.0961 H   0  0  0  0  0  0  0  0  0  0  0  0
   -1.1645    5.3694   -1.5229 H   0  0  0  0  0  0  0  0  0  0  0  0
   -2.4489    4.9665   -3.1588 N   0  3  0  0  0  0  0  0  0  0  0  0
   -2.4140    4.1356   -3.7485 H   0  0  0  0  0  0  0  0  0  0  0  0
   -2.7714    6.1105   -3.6914 C   0  0  0  0  0  0  0  0  0  0  0  0
   -2.7885    7.2742   -2.9565 N   0  0  0  0  0  0  0  0  0  0  0  0
   -2.3683    7.2558   -2.0294 H   0  0  0  0  0  0  0  0  0  0  0  0
   -2.8080    8.1631   -3.4528 H   0  0  0  0  0  0  0  0  0  0  0  0
   -3.0987    6.1713   -5.0251 N   0  0  0  0  0  0  0  0  0  0  0  0
   -3.2463    5.3046   -5.5389 H   0  0  0  0  0  0  0  0  0  0  0  0
   -3.5262    7.0224   -5.3866 H   0  0  0  0  0  0  0  0  0  0  0  0
   -0.4562    1.6245    1.7803 C   0  0  0  0  0  0  0  0  0  0  0  0
    0.7637    1.5390    1.7732 O   0  0  0  0  0  0  0  0  0  0  0  0
   -1.0906    2.0227    2.9445 N   0  0  0  0  0  0  0  0  0  0  0  0
   -2.1048    2.0014    2.9343 H   0  0  0  0  0  0  0  0  0  0  0  0
   -0.4140    2.0272    4.2379 C   0  0  0  0  0  0  0  0  0  0  0  0
    0.4688    2.6749    4.2101 H   0  0  0  0  0  0  0  0  0  0  0  0
   -1.0863    2.3986    5.0171 H   0  0  0  0  0  0  0  0  0  0  0  0
   -0.0965    1.0138    4.5068 H   0  0  0  0  0  0  0  0  0  0  0  0
  1  2  1  0  0  0  0
  2  3  1  0  0  0  0
  2  4  1  0  0  0  0
  2  5  1  0  0  0  0
  5  6  2  0  0  0  0
  5  7  1  0  0  0  0
  7  8  1  0  0  0  0
  7  9  1  0  0  0  0
  9 10  1  0  0  0  0
  9 11  1  0  0  0  0
  9 29  1  0  0  0  0
 11 12  1  0  0  0  0
 11 13  1  0  0  0  0
 11 14  1  0  0  0  0
 14 15  1  0  0  0  0
 14 16  1  0  0  0  0
 14 17  1  0  0  0  0
 17 18  1  0  0  0  0
 17 19  1  0  0  0  0
 17 20  1  0  0  0  0
 20 21  1  0  0  0  0
 20 22  2  0  0  0  0
 22 23  1  0  0  0  0
 22 26  1  0  0  0  0
 23 24  1  0  0  0  0
 23 25  1  0  0  0  0
 26 27  1  0  0  0  0
 26 28  1  0  0  0  0
 29 30  2  0  0  0  0
 29 31  1  0  0  0  0
 31 32  1  0  0  0  0
 31 33  1  0  0  0  0
 33 34  1  0  0  0  0
 33 35  1  0  0  0  0
 33 36  1  0  0  0  0
M  CHG  1  20   1
M  END
$$$$

  -OEChem-02172215453D

 36 35  0     1  0  0  0  0  0999 V2000
   -3.8699   -2.0978    1.1611 H   0  0  0  0  0  0  0  0  0  0  0  0
   -3.9378   -1.0976    0.7229 C   0  0  0  0  0  0  0  0  0  0  0  0
   -4.6724   -0.5186    1.2872 H   0  0  0  0  0  0  0  0  0  0  0  0
   -4.2715   -1.1919   -0.3130 H   0  0  0  0  0  0  0  0  0  0  0  0
   -2.5838   -0.4157    0.7735 C   0  0  0  0  0  0  0  0  0  0  0  0
   -1.6216   -1.0194    1.2082 O   0  0  0  0  0  0  0  0  0  0  0  0
   -2.4477    0.8875    0.3270 N   0  0  0  0  0  0  0  0  0  0  0  0
   -3.2976    1.3492    0.0203 H   0  0  0  0  0  0  0  0  0  0  0  0
   -1.2067    1.6858    0.4264 C   0  0  1  0  0  0  0  0  0  0  0  0
   -0.4982    1.2696   -0.2991 H   0  0  0  0  0  0  0  0  0  0  0  0
   -1.4720    3.1547    0.0504 C   0  0  0  0  0  0  0  0  0  0  0  0
   -2.2772    3.5504    0.6792 H   0  0  0  0  0  0  0  0  0  0  0  0
   -0.5711    3.7438    0.2589 H   0  0  0  0  0  0  0  0  0  0  0  0
   -1.8307    3.3176   -1.4327 C   0  0  0  0  0  0  0  0  0  0  0  0
   -1.0071    2.9411   -2.0501 H   0  0  0  0  0  0  0  0  0  0  0  0
   -2.7271    2.7351   -1.6688 H   0  0  0  0  0  0  0  0  0  0  0  0
   -2.0788    4.7938   -1.7386 C   0  0  0  0  0  0  0  0  0  0  0  0
   -2.8839    5.1635   -1.0940 H   0  0  0  0  0  0  0  0  0  0  0  0
   -1.1680    5.3605   -1.5152 H   0  0  0  0  0  0  0  0  0  0  0  0
   -2.4474    4.9659   -3.1562 N   0  3  0  0  0  0  0  0  0  0  0  0
   -2.4089    4.1389   -3.7509 H   0  0  0  0  0  0  0  0  0  0  0  0
   -2.7696    6.1129   -3.6824 C   0  0  0  0  0  0  0  0  0  0  0  0
   -2.7898    7.2719   -2.9396 N   0  0  0  0  0  0  0  0  0  0  0  0
   -2.3716    7.2485   -2.0117 H   0  0  0  0  0  0  0  0  0  0  0  0
   -2.8131    8.1642   -3.4294 H   0  0  0  0  0  0  0  0  0  0  0  0
   -3.0912    6.1817   -5.0173 N   0  0  0  0  0  0  0  0  0  0  0  0
   -3.2353    5.3183   -5.5374 H   0  0  0  0  0  0  0  0  0  0  0  0
   -3.5166    7.0349   -5.3759 H   0  0  0  0  0  0  0  0  0  0  0  0
   -0.4652    1.6319    1.7830 C   0  0  0  0  0  0  0  0  0  0  0  0
    0.7472    1.7951    1.7913 O   0  0  0  0  0  0  0  0  0  0  0  0
   -1.1678    1.7433    2.9698 N   0  0  0  0  0  0  0  0  0  0  0  0
   -2.1468    1.4804    2.9298 H   0  0  0  0  0  0  0  0  0  0  0  0
   -0.5043    1.7169    4.2692 C   0  0  0  0  0  0  0  0  0  0  0  0
    0.2275    2.5284    4.3453 H   0  0  0  0  0  0  0  0  0  0  0  0
   -1.2371    1.8401    5.0725 H   0  0  0  0  0  0  0  0  0  0  0  0
    0.0140    0.7628    4.4138 H   0  0  0  0  0  0  0  0  0  0  0  0
  1  2  1  0  0  0  0
  2  3  1  0  0  0  0
  2  4  1  0  0  0  0
  2  5  1  0  0  0  0
  5  6  2  0  0  0  0
  5  7  1  0  0  0  0
  7  8  1  0  0  0  0
  7  9  1  0  0  0  0
  9 10  1  0  0  0  0
  9 11  1  0  0  0  0
  9 29  1  0  0  0  0
 11 12  1  0  0  0  0
 11 13  1  0  0  0  0
 11 14  1  0  0  0  0
 14 15  1  0  0  0  0
 14 16  1  0  0  0  0
 14 17  1  0  0  0  0
 17 18  1  0  0  0  0
 17 19  1  0  0  0  0
 17 20  1  0  0  0  0
 20 21  1  0  0  0  0
 20 22  2  0  0  0  0
 22 23  1  0  0  0  0
 22 26  1  0  0  0  0
 23 24  1  0  0  0  0
 23 25  1  0  0  0  0
 26 27  1  0  0  0  0
 26 28  1  0  0  0  0
 29 30  2  0  0  0  0
 29 31  1  0  0  0  0
 31 32  1  0  0  0  0
 31 33  1  0  0  0  0
 33 34  1  0  0  0  0
 33 35  1  0  0  0  0
 33 36  1  0  0  0  0
M  CHG  1  20   1
M  END
$$$$

  -OEChem-02172215453D

 36 35  0     1  0  0  0  0  0999 V2000
   -3.9269   -2.1020    1.0830 H   0  0  0  0  0  0  0  0  0  0  0  0
   -3.9789   -1.0916    0.6668 C   0  0  0  0  0  0  0  0  0  0  0  0
   -4.7208   -0.5196    1.2288 H   0  0  0  0  0  0  0  0  0  0  0  0
   -4.2919   -1.1603   -0.3777 H   0  0  0  0  0  0  0  0  0  0  0  0
   -2.6221   -0.4204    0.7600 C   0  0  0  0  0  0  0  0  0  0  0  0
   -1.6787   -1.0285    1.2286 O   0  0  0  0  0  0  0  0  0  0  0  0
   -2.4628    0.8819    0.3210 N   0  0  0  0  0  0  0  0  0  0  0  0
   -3.3047    1.3537    0.0077 H   0  0  0  0  0  0  0  0  0  0  0  0
   -1.2186    1.6748    0.4395 C   0  0  1  0  0  0  0  0  0  0  0  0
   -0.5036    1.2588   -0.2792 H   0  0  0  0  0  0  0  0  0  0  0  0
   -1.4915    3.1419    0.0547 C   0  0  0  0  0  0  0  0  0  0  0  0
   -2.3068    3.5310    0.6744 H   0  0  0  0  0  0  0  0  0  0  0  0
   -0.6002    3.7422    0.2713 H   0  0  0  0  0  0  0  0  0  0  0  0
   -1.8335    3.3045   -1.4331 C   0  0  0  0  0  0  0  0  0  0  0  0
   -0.9992    2.9372   -2.0417 H   0  0  0  0  0  0  0  0  0  0  0  0
   -2.7224    2.7162   -1.6824 H   0  0  0  0  0  0  0  0  0  0  0  0
   -2.0878    4.7811   -1.7342 C   0  0  0  0  0  0  0  0  0  0  0  0
   -2.9024    5.1410   -1.0957 H   0  0  0  0  0  0  0  0  0  0  0  0
   -1.1834    5.3525   -1.4960 H   0  0  0  0  0  0  0  0  0  0  0  0
   -2.4413    4.9612   -3.1546 N   0  3  0  0  0  0  0  0  0  0  0  0
   -2.3879    4.1397   -3.7555 H   0  0  0  0  0  0  0  0  0  0  0  0
   -2.7645    6.1099   -3.6761 C   0  0  0  0  0  0  0  0  0  0  0  0
   -2.8007    7.2638   -2.9267 N   0  0  0  0  0  0  0  0  0  0  0  0
   -2.3971    7.2355   -1.9924 H   0  0  0  0  0  0  0  0  0  0  0  0
   -2.8145    8.1585   -3.4126 H   0  0  0  0  0  0  0  0  0  0  0  0
   -3.0705    6.1862   -5.0141 N   0  0  0  0  0  0  0  0  0  0  0  0
   -3.2053    5.3252   -5.5406 H   0  0  0  0  0  0  0  0  0  0  0  0
   -3.5018    7.0380   -5.3688 H   0  0  0  0  0  0  0  0  0  0  0  0
   -0.4763    1.6335    1.7995 C   0  0  0  0  0  0  0  0  0  0  0  0
    0.6835    2.0232    1.8354 O   0  0  0  0  0  0  0  0  0  0  0  0
   -1.1599    1.4459    2.9878 N   0  0  0  0  0  0  0  0  0  0  0  0
   -2.0347    0.9377    2.9051 H   0  0  0  0  0  0  0  0  0  0  0  0
   -0.4740    1.4054    4.2752 C   0  0  0  0  0  0  0  0  0  0  0  0
    0.0632    2.3426    4.4555 H   0  0  0  0  0  0  0  0  0  0  0  0
   -1.1953    1.2628    5.0858 H   0  0  0  0  0  0  0  0  0  0  0  0
    0.2445    0.5789    4.2997 H   0  0  0  0  0  0  0  0  0  0  0  0
  1  2  1  0  0  0  0
  2  3  1  0  0  0  0
  2  4  1  0  0  0  0
  2  5  1  0  0  0  0
  5  6  2  0  0  0  0
  5  7  1  0  0  0  0
  7  8  1  0  0  0  0
  7  9  1  0  0  0  0
  9 10  1  0  0  0  0
  9 11  1  0  0  0  0
  9 29  1  0  0  0  0
 11 12  1  0  0  0  0
 11 13  1  0  0  0  0
 11 14  1  0  0  0  0
 14 15  1  0  0  0  0
 14 16  1  0  0  0  0
 14 17  1  0  0  0  0
 17 18  1  0  0  0  0
 17 19  1  0  0  0  0
 17 20  1  0  0  0  0
 20 21  1  0  0  0  0
 20 22  2  0  0  0  0
 22 23  1  0  0  0  0
 22 26  1  0  0  0  0
 23 24  1  0  0  0  0
 23 25  1  0  0  0  0
 26 27  1  0  0  0  0
 26 28  1  0  0  0  0
 29 30  2  0  0  0  0
 29 31  1  0  0  0  0
 31 32  1  0  0  0  0
 31 33  1  0  0  0  0
 33 34  1  0  0  0  0
 33 35  1  0  0  0  0
 33 36  1  0  0  0  0
M  CHG  1  20   1
M  END
$$$$

  -OEChem-02172215453D

 36 35  0     1  0  0  0  0  0999 V2000
   -4.0066   -2.0810    1.0147 H   0  0  0  0  0  0  0  0  0  0  0  0
   -4.0324   -1.0623    0.6165 C   0  0  0  0  0  0  0  0  0  0  0  0
   -4.7606   -0.4822    1.1881 H   0  0  0  0  0  0  0  0  0  0  0  0
   -4.3460   -1.1040   -0.4291 H   0  0  0  0  0  0  0  0  0  0  0  0
   -2.6593   -0.4268    0.7222 C   0  0  0  0  0  0  0  0  0  0  0  0
   -1.7339   -1.0629    1.1910 O   0  0  0  0  0  0  0  0  0  0  0  0
   -2.4682    0.8775    0.3045 N   0  0  0  0  0  0  0  0  0  0  0  0
   -3.3052    1.3719    0.0133 H   0  0  0  0  0  0  0  0  0  0  0  0
   -1.2197    1.6621    0.4500 C   0  0  1  0  0  0  0  0  0  0  0  0
   -0.4982    1.2513   -0.2647 H   0  0  0  0  0  0  0  0  0  0  0  0
   -1.5054    3.1288    0.0620 C   0  0  0  0  0  0  0  0  0  0  0  0
   -2.3327    3.5069    0.6723 H   0  0  0  0  0  0  0  0  0  0  0  0
   -0.6267    3.7445    0.2858 H   0  0  0  0  0  0  0  0  0  0  0  0
   -1.8292    3.2911   -1.4299 C   0  0  0  0  0  0  0  0  0  0  0  0
   -0.9827    2.9356   -2.0282 H   0  0  0  0  0  0  0  0  0  0  0  0
   -2.7083    2.6941   -1.6935 H   0  0  0  0  0  0  0  0  0  0  0  0
   -2.0960    4.7662   -1.7276 C   0  0  0  0  0  0  0  0  0  0  0  0
   -2.9232    5.1136   -1.0985 H   0  0  0  0  0  0  0  0  0  0  0  0
   -1.2016    5.3467   -1.4743 H   0  0  0  0  0  0  0  0  0  0  0  0
   -2.4331    4.9517   -3.1513 N   0  3  0  0  0  0  0  0  0  0  0  0
   -2.3638    4.1347   -3.7566 H   0  0  0  0  0  0  0  0  0  0  0  0
   -2.7617    6.1010   -3.6684 C   0  0  0  0  0  0  0  0  0  0  0  0
   -2.8191    7.2485   -2.9102 N   0  0  0  0  0  0  0  0  0  0  0  0
   -2.4264    7.2159   -1.9714 H   0  0  0  0  0  0  0  0  0  0  0  0
   -2.8346    8.1473   -3.3885 H   0  0  0  0  0  0  0  0  0  0  0  0
   -3.0531    6.1853   -5.0090 N   0  0  0  0  0  0  0  0  0  0  0  0
   -3.1758    5.3270   -5.5428 H   0  0  0  0  0  0  0  0  0  0  0  0
   -3.4925    7.0347   -5.3602 H   0  0  0  0  0  0  0  0  0  0  0  0
   -0.4779    1.6203    1.8157 C   0  0  0  0  0  0  0  0  0  0  0  0
    0.5916    2.2097    1.9087 O   0  0  0  0  0  0  0  0  0  0  0  0
   -1.0755    1.1417    2.9677 N   0  0  0  0  0  0  0  0  0  0  0  0
   -1.7746    0.4212    2.8020 H   0  0  0  0  0  0  0  0  0  0  0  0
   -0.3699    1.0999    4.2446 C   0  0  0  0  0  0  0  0  0  0  0  0
   -0.0560    2.1051    4.5454 H   0  0  0  0  0  0  0  0  0  0  0  0
   -1.0231    0.6974    5.0249 H   0  0  0  0  0  0  0  0  0  0  0  0
    0.5175    0.4620    4.1715 H   0  0  0  0  0  0  0  0  0  0  0  0
  1  2  1  0  0  0  0
  2  3  1  0  0  0  0
  2  4  1  0  0  0  0
  2  5  1  0  0  0  0
  5  6  2  0  0  0  0
  5  7  1  0  0  0  0
  7  8  1  0  0  0  0
  7  9  1  0  0  0  0
  9 10  1  0  0  0  0
  9 11  1  0  0  0  0
  9 29  1  0  0  0  0
 11 12  1  0  0  0  0
 11 13  1  0  0  0  0
 11 14  1  0  0  0  0
 14 15  1  0  0  0  0
 14 16  1  0  0  0  0
 14 17  1  0  0  0  0
 17 18  1  0  0  0  0
 17 19  1  0  0  0  0
 17 20  1  0  0  0  0
 20 21  1  0  0  0  0
 20 22  2  0  0  0  0
 22 23  1  0  0  0  0
 22 26  1  0  0  0  0
 23 24  1  0  0  0  0
 23 25  1  0  0  0  0
 26 27  1  0  0  0  0
 26 28  1  0  0  0  0
 29 30  2  0  0  0  0
 29 31  1  0  0  0  0
 31 32  1  0  0  0  0
 31 33  1  0  0  0  0
 33 34  1  0  0  0  0
 33 35  1  0  0  0  0
 33 36  1  0  0  0  0
M  CHG  1  20   1
M  END
$$$$

  -OEChem-02172215453D

 36 35  0     1  0  0  0  0  0999 V2000
   -4.0508   -2.0544    1.0146 H   0  0  0  0  0  0  0  0  0  0  0  0
   -4.0664   -1.0334    0.6216 C   0  0  0  0  0  0  0  0  0  0  0  0
   -4.7538   -0.4371    1.2264 H   0  0  0  0  0  0  0  0  0  0  0  0
   -4.4258   -1.0612   -0.4096 H   0  0  0  0  0  0  0  0  0  0  0  0
   -2.6733   -0.4356    0.6700 C   0  0  0  0  0  0  0  0  0  0  0  0
   -1.7371   -1.1180    1.0443 O   0  0  0  0  0  0  0  0  0  0  0  0
   -2.4691    0.8756    0.2808 N   0  0  0  0  0  0  0  0  0  0  0  0
   -3.3155    1.3975    0.0779 H   0  0  0  0  0  0  0  0  0  0  0  0
   -1.2209    1.6575    0.4545 C   0  0  1  0  0  0  0  0  0  0  0  0
   -0.4916    1.2559   -0.2571 H   0  0  0  0  0  0  0  0  0  0  0  0
   -1.5193    3.1236    0.0647 C   0  0  0  0  0  0  0  0  0  0  0  0
   -2.3598    3.4908    0.6635 H   0  0  0  0  0  0  0  0  0  0  0  0
   -0.6541    3.7542    0.2976 H   0  0  0  0  0  0  0  0  0  0  0  0
   -1.8222    3.2852   -1.4314 C   0  0  0  0  0  0  0  0  0  0  0  0
   -0.9629    2.9413   -2.0182 H   0  0  0  0  0  0  0  0  0  0  0  0
   -2.6904    2.6793   -1.7099 H   0  0  0  0  0  0  0  0  0  0  0  0
   -2.1021    4.7580   -1.7264 C   0  0  0  0  0  0  0  0  0  0  0  0
   -2.9424    5.0928   -1.1081 H   0  0  0  0  0  0  0  0  0  0  0  0
   -1.2178    5.3469   -1.4578 H   0  0  0  0  0  0  0  0  0  0  0  0
   -2.4203    4.9477   -3.1533 N   0  3  0  0  0  0  0  0  0  0  0  0
   -2.3322    4.1353   -3.7623 H   0  0  0  0  0  0  0  0  0  0  0  0
   -2.7547    6.0968   -3.6669 C   0  0  0  0  0  0  0  0  0  0  0  0
   -2.8361    7.2378   -2.9005 N   0  0  0  0  0  0  0  0  0  0  0  0
   -2.4535    7.2046   -1.9575 H   0  0  0  0  0  0  0  0  0  0  0  0
   -2.8660    8.1403   -3.3708 H   0  0  0  0  0  0  0  0  0  0  0  0
   -3.0316    6.1855   -5.0104 N   0  0  0  0  0  0  0  0  0  0  0  0
   -3.1391    5.3283   -5.5491 H   0  0  0  0  0  0  0  0  0  0  0  0
   -3.4795    7.0303   -5.3613 H   0  0  0  0  0  0  0  0  0  0  0  0
   -0.4823    1.6019    1.8268 C   0  0  0  0  0  0  0  0  0  0  0  0
    0.4677    2.3539    2.0076 O   0  0  0  0  0  0  0  0  0  0  0  0
   -0.9341    0.8542    2.8987 N   0  0  0  0  0  0  0  0  0  0  0  0
   -1.4800    0.0348    2.6329 H   0  0  0  0  0  0  0  0  0  0  0  0
   -0.2122    0.7903    4.1655 C   0  0  0  0  0  0  0  0  0  0  0  0
   -0.1163    1.7888    4.6048 H   0  0  0  0  0  0  0  0  0  0  0  0
   -0.7496    0.1538    4.8751 H   0  0  0  0  0  0  0  0  0  0  0  0
    0.7900    0.3749    4.0158 H   0  0  0  0  0  0  0  0  0  0  0  0
  1  2  1  0  0  0  0
  2  3  1  0  0  0  0
  2  4  1  0  0  0  0
  2  5  1  0  0  0  0
  5  6  2  0  0  0  0
  5  7  1  0  0  0  0
  7  8  1  0  0  0  0
  7  9  1  0  0  0  0
  9 10  1  0  0  0  0
  9 11  1  0  0  0  0
  9 29  1  0  0  0  0
 11 12  1  0  0  0  0
 11 13  1  0  0  0  0
 11 14  1  0  0  0  0
 14 15  1  0  0  0  0
 14 16  1  0  0  0  0
 14 17  1  0  0  0  0
 17 18  1  0  0  0  0
 17 19  1  0  0  0  0
 17 20  1  0  0  0  0
 20 21  1  0  0  0  0
 20 22  2  0  0  0  0
 22 23  1  0  0  0  0
 22 26  1  0  0  0  0
 23 24  1  0  0  0  0
 23 25  1  0  0  0  0
 26 27  1  0  0  0  0
 26 28  1  0  0  0  0
 29 30  2  0  0  0  0
 29 31  1  0  0  0  0
 31 32  1  0  0  0  0
 31 33  1  0  0  0  0
 33 34  1  0  0  0  0
 33 35  1  0  0  0  0
 33 36  1  0  0  0  0
M  CHG  1  20   1
M  END
$$$$

  -OEChem-02172215453D

 36 35  0     1  0  0  0  0  0999 V2000
   -4.0546   -2.0390    1.0264 H   0  0  0  0  0  0  0  0  0  0  0  0
   -4.0752   -1.0075    0.6625 C   0  0  0  0  0  0  0  0  0  0  0  0
   -4.7006   -0.4135    1.3334 H   0  0  0  0  0  0  0  0  0  0  0  0
   -4.5119   -0.9983   -0.3390 H   0  0  0  0  0  0  0  0  0  0  0  0
   -2.6688   -0.4414    0.6230 C   0  0  0  0  0  0  0  0  0  0  0  0
   -1.7190   -1.1649    0.8656 O   0  0  0  0  0  0  0  0  0  0  0  0
   -2.4662    0.8781    0.2632 N   0  0  0  0  0  0  0  0  0  0  0  0
   -3.3214    1.4147    0.1574 H   0  0  0  0  0  0  0  0  0  0  0  0
   -1.2218    1.6609    0.4595 C   0  0  1  0  0  0  0  0  0  0  0  0
   -0.4860    1.2703   -0.2514 H   0  0  0  0  0  0  0  0  0  0  0  0
   -1.5314    3.1262    0.0694 C   0  0  0  0  0  0  0  0  0  0  0  0
   -2.3810    3.4850    0.6602 H   0  0  0  0  0  0  0  0  0  0  0  0
   -0.6751    3.7662    0.3080 H   0  0  0  0  0  0  0  0  0  0  0  0
   -1.8174    3.2867   -1.4306 C   0  0  0  0  0  0  0  0  0  0  0  0
   -0.9483    2.9518   -2.0075 H   0  0  0  0  0  0  0  0  0  0  0  0
   -2.6757    2.6722   -1.7205 H   0  0  0  0  0  0  0  0  0  0  0  0
   -2.1098    4.7566   -1.7276 C   0  0  0  0  0  0  0  0  0  0  0  0
   -2.9624    5.0797   -1.1199 H   0  0  0  0  0  0  0  0  0  0  0  0
   -1.2368    5.3559   -1.4452 H   0  0  0  0  0  0  0  0  0  0  0  0
   -2.4121    4.9453   -3.1585 N   0  3  0  0  0  0  0  0  0  0  0  0
   -2.3089    4.1346   -3.7677 H   0  0  0  0  0  0  0  0  0  0  0  0
   -2.7524    6.0921   -3.6732 C   0  0  0  0  0  0  0  0  0  0  0  0
   -2.8551    7.2290   -2.9038 N   0  0  0  0  0  0  0  0  0  0  0  0
   -2.4895    7.1925   -1.9542 H   0  0  0  0  0  0  0  0  0  0  0  0
   -2.8770    8.1332   -3.3713 H   0  0  0  0  0  0  0  0  0  0  0  0
   -3.0086    6.1847   -5.0206 N   0  0  0  0  0  0  0  0  0  0  0  0
   -3.0968    5.3292   -5.5656 H   0  0  0  0  0  0  0  0  0  0  0  0
   -3.4585    7.0268   -5.3754 H   0  0  0  0  0  0  0  0  0  0  0  0
   -0.4869    1.5819    1.8368 C   0  0  0  0  0  0  0  0  0  0  0  0
    0.3034    2.4688    2.1354 O   0  0  0  0  0  0  0  0  0  0  0  0
   -0.7427    0.6101    2.7863 N   0  0  0  0  0  0  0  0  0  0  0  0
   -1.1713   -0.2426    2.4229 H   0  0  0  0  0  0  0  0  0  0  0  0
   -0.0003    0.5091    4.0388 C   0  0  0  0  0  0  0  0  0  0  0  0
   -0.1026    1.4300    4.6226 H   0  0  0  0  0  0  0  0  0  0  0  0
   -0.3844   -0.3215    4.6390 H   0  0  0  0  0  0  0  0  0  0  0  0
    1.0628    0.3333    3.8419 H   0  0  0  0  0  0  0  0  0  0  0  0
  1  2  1  0  0  0  0
  2  3  1  0  0  0  0
  2  4  1  0  0  0  0
  2  5  1  0  0  0  0
  5  6  2  0  0  0  0
  5  7  1  0  0  0  0
  7  8  1  0  0  0  0
  7  9  1  0  0  0  0
  9 10  1  0  0  0  0
  9 11  1  0  0  0  0
  9 29  1  0  0  0  0
 11 12  1  0  0  0  0
 11 13  1  0  0  0  0
 11 14  1  0  0  0  0
 14 15  1  0  0  0  0
 14 16  1  0  0  0  0
 14 17  1  0  0  0  0
 17 18  1  0  0  0  0
 17 19  1  0  0  0  0
 17 20  1  0  0  0  0
 20 21  1  0  0  0  0
 20 22  2  0  0  0  0
 22 23  1  0  0  0  0
 22 26  1  0  0  0  0
 23 24  1  0  0  0  0
 23 25  1  0  0  0  0
 26 27  1  0  0  0  0
 26 28  1  0  0  0  0
 29 30  2  0  0  0  0
 29 31  1  0  0  0  0
 31 32  1  0  0  0  0
 31 33  1  0  0  0  0
 33 34  1  0  0  0  0
 33 35  1  0  0  0  0
 33 36  1  0  0  0  0
M  CHG  1  20   1
M  END
$$$$

  -OEChem-02172215453D

 36 35  0     1  0  0  0  0  0999 V2000
   -4.0488   -2.0183    1.1123 H   0  0  0  0  0  0  0  0  0  0  0  0
   -4.0835   -0.9756    0.7826 C   0  0  0  0  0  0  0  0  0  0  0  0
   -4.6226   -0.3910    1.5319 H   0  0  0  0  0  0  0  0  0  0  0  0
   -4.6211   -0.9258   -0.1672 H   0  0  0  0  0  0  0  0  0  0  0  0
   -2.6760   -0.4362    0.6133 C   0  0  0  0  0  0  0  0  0  0  0  0
   -1.7232   -1.1904    0.7102 O   0  0  0  0  0  0  0  0  0  0  0  0
   -2.4792    0.8873    0.2648 N   0  0  0  0  0  0  0  0  0  0  0  0
   -3.3340    1.4354    0.2611 H   0  0  0  0  0  0  0  0  0  0  0  0
   -1.2253    1.6582    0.4473 C   0  0  1  0  0  0  0  0  0  0  0  0
   -0.5045    1.2629   -0.2764 H   0  0  0  0  0  0  0  0  0  0  0  0
   -1.5199    3.1281    0.0605 C   0  0  0  0  0  0  0  0  0  0  0  0
   -2.3574    3.4997    0.6608 H   0  0  0  0  0  0  0  0  0  0  0  0
   -0.6502    3.7545    0.2870 H   0  0  0  0  0  0  0  0  0  0  0  0
   -1.8192    3.2904   -1.4366 C   0  0  0  0  0  0  0  0  0  0  0  0
   -0.9601    2.9440   -2.0216 H   0  0  0  0  0  0  0  0  0  0  0  0
   -2.6877    2.6851   -1.7159 H   0  0  0  0  0  0  0  0  0  0  0  0
   -2.0963    4.7627   -1.7364 C   0  0  0  0  0  0  0  0  0  0  0  0
   -2.9382    5.0996   -1.1215 H   0  0  0  0  0  0  0  0  0  0  0  0
   -1.2129    5.3522   -1.4664 H   0  0  0  0  0  0  0  0  0  0  0  0
   -2.4102    4.9460   -3.1654 N   0  3  0  0  0  0  0  0  0  0  0  0
   -2.3291    4.1286   -3.7688 H   0  0  0  0  0  0  0  0  0  0  0  0
   -2.7419    6.0929   -3.6858 C   0  0  0  0  0  0  0  0  0  0  0  0
   -2.8243    7.2377   -2.9257 N   0  0  0  0  0  0  0  0  0  0  0  0
   -2.4517    7.2069   -1.9785 H   0  0  0  0  0  0  0  0  0  0  0  0
   -2.8433    8.1377   -3.4014 H   0  0  0  0  0  0  0  0  0  0  0  0
   -3.0150    6.1765   -5.0305 N   0  0  0  0  0  0  0  0  0  0  0  0
   -3.1217    5.3173   -5.5667 H   0  0  0  0  0  0  0  0  0  0  0  0
   -3.4605    7.0207   -5.3859 H   0  0  0  0  0  0  0  0  0  0  0  0
   -0.4746    1.5459    1.8157 C   0  0  0  0  0  0  0  0  0  0  0  0
    0.1276    2.5203    2.2497 O   0  0  0  0  0  0  0  0  0  0  0  0
   -0.5032    0.4171    2.6131 N   0  0  0  0  0  0  0  0  0  0  0  0
   -0.8426   -0.4361    2.1641 H   0  0  0  0  0  0  0  0  0  0  0  0
    0.2508    0.2864    3.8559 C   0  0  0  0  0  0  0  0  0  0  0  0
   -0.0257    1.0789    4.5593 H   0  0  0  0  0  0  0  0  0  0  0  0
    0.0386   -0.6785    4.3262 H   0  0  0  0  0  0  0  0  0  0  0  0
    1.3266    0.3488    3.6611 H   0  0  0  0  0  0  0  0  0  0  0  0
  1  2  1  0  0  0  0
  2  3  1  0  0  0  0
  2  4  1  0  0  0  0
  2  5  1  0  0  0  0
  5  6  2  0  0  0  0
  5  7  1  0  0  0  0
  7  8  1  0  0  0  0
  7  9  1  0  0  0  0
  9 10  1  0  0  0  0
  9 11  1  0  0  0  0
  9 29  1  0  0  0  0
 11 12  1  0  0  0  0
 11 13  1  0  0  0  0
 11 14  1  0  0  0  0
 14 15  1  0  0  0  0
 14 16  1  0  0  0  0
 14 17  1  0  0  0  0
 17 18  1  0  0  0  0
 17 19  1  0  0  0  0
 17 20  1  0  0  0  0
 20 21  1  0  0  0  0
 20 22  2  0  0  0  0
 22 23  1  0  0  0  0
 22 26  1  0  0  0  0
 23 24  1  0  0  0  0
 23 25  1  0  0  0  0
 26 27  1  0  0  0  0
 26 28  1  0  0  0  0
 29 30  2  0  0  0  0
 29 31  1  0  0  0  0
 31 32  1  0  0  0  0
 31 33  1  0  0  0  0
 33 34  1  0  0  0  0
 33 35  1  0  0  0  0
 33 36  1  0  0  0  0
M  CHG  1  20   1
M  END
$$$$

  -OEChem-02172215453D

 36 35  0     1  0  0  0  0  0999 V2000
   -3.9506   -2.0374    1.2006 H   0  0  0  0  0  0  0  0  0  0  0  0
   -4.0115   -1.0151    0.8160 C   0  0  0  0  0  0  0  0  0  0  0  0
   -4.5502   -0.4015    1.5422 H   0  0  0  0  0  0  0  0  0  0  0  0
   -4.5648   -1.0262   -0.1258 H   0  0  0  0  0  0  0  0  0  0  0  0
   -2.6177   -0.4602    0.5927 C   0  0  0  0  0  0  0  0  0  0  0  0
   -1.6553   -1.2080    0.6290 O   0  0  0  0  0  0  0  0  0  0  0  0
   -2.4481    0.8656    0.2391 N   0  0  0  0  0  0  0  0  0  0  0  0
   -3.3100    1.4021    0.2676 H   0  0  0  0  0  0  0  0  0  0  0  0
   -1.2046    1.6510    0.4211 C   0  0  1  0  0  0  0  0  0  0  0  0
   -0.4770    1.2664   -0.3016 H   0  0  0  0  0  0  0  0  0  0  0  0
   -1.5086    3.1186    0.0406 C   0  0  0  0  0  0  0  0  0  0  0  0
   -2.3469    3.4839    0.6438 H   0  0  0  0  0  0  0  0  0  0  0  0
   -0.6394    3.7445    0.2714 H   0  0  0  0  0  0  0  0  0  0  0  0
   -1.8099    3.2874   -1.4548 C   0  0  0  0  0  0  0  0  0  0  0  0
   -0.9499    2.9498   -2.0436 H   0  0  0  0  0  0  0  0  0  0  0  0
   -2.6756    2.6794   -1.7366 H   0  0  0  0  0  0  0  0  0  0  0  0
   -2.0956    4.7606   -1.7399 C   0  0  0  0  0  0  0  0  0  0  0  0
   -2.9383    5.0867   -1.1200 H   0  0  0  0  0  0  0  0  0  0  0  0
   -1.2149    5.3523   -1.4653 H   0  0  0  0  0  0  0  0  0  0  0  0
   -2.4125    4.9578   -3.1659 N   0  3  0  0  0  0  0  0  0  0  0  0
   -2.3263    4.1482   -3.7789 H   0  0  0  0  0  0  0  0  0  0  0  0
   -2.7509    6.1091   -3.6713 C   0  0  0  0  0  0  0  0  0  0  0  0
   -2.8377    7.2433   -2.8958 N   0  0  0  0  0  0  0  0  0  0  0  0
   -2.4695    7.2006   -1.9474 H   0  0  0  0  0  0  0  0  0  0  0  0
   -2.8653    8.1504   -3.3574 H   0  0  0  0  0  0  0  0  0  0  0  0
   -3.0228    6.2088   -5.0151 N   0  0  0  0  0  0  0  0  0  0  0  0
   -3.1271    5.3561   -5.5618 H   0  0  0  0  0  0  0  0  0  0  0  0
   -3.4665    7.0577   -5.3617 H   0  0  0  0  0  0  0  0  0  0  0  0
   -0.4668    1.5371    1.7949 C   0  0  0  0  0  0  0  0  0  0  0  0
   -0.0989    2.5546    2.3698 O   0  0  0  0  0  0  0  0  0  0  0  0
   -0.2421    0.3341    2.4351 N   0  0  0  0  0  0  0  0  0  0  0  0
   -0.5094   -0.5132    1.9280 H   0  0  0  0  0  0  0  0  0  0  0  0
    0.4643    0.2011    3.7044 C   0  0  0  0  0  0  0  0  0  0  0  0
   -0.0582    0.7517    4.4938 H   0  0  0  0  0  0  0  0  0  0  0  0
    0.5204   -0.8520    3.9970 H   0  0  0  0  0  0  0  0  0  0  0  0
    1.4841    0.5910    3.6191 H   0  0  0  0  0  0  0  0  0  0  0  0
  1  2  1  0  0  0  0
  2  3  1  0  0  0  0
  2  4  1  0  0  0  0
  2  5  1  0  0  0  0
  5  6  2  0  0  0  0
  5  7  1  0  0  0  0
  7  8  1  0  0  0  0
  7  9  1  0  0  0  0
  9 10  1  0  0  0  0
  9 11  1  0  0  0  0
  9 29  1  0  0  0  0
 11 12  1  0  0  0  0
 11 13  1  0  0  0  0
 11 14  1  0  0  0  0
 14 15  1  0  0  0  0
 14 16  1  0  0  0  0
 14 17  1  0  0  0  0
 17 18  1  0  0  0  0
 17 19  1  0  0  0  0
 17 20  1  0  0  0  0
 20 21  1  0  0  0  0
 20 22  2  0  0  0  0
 22 23  1  0  0  0  0
 22 26  1  0  0  0  0
 23 24  1  0  0  0  0
 23 25  1  0  0  0  0
 26 27  1  0  0  0  0
 26 28  1  0  0  0  0
 29 30  2  0  0  0  0
 29 31  1  0  0  0  0
 31 32  1  0  0  0  0
 31 33  1  0  0  0  0
 33 34  1  0  0  0  0
 33 35  1  0  0  0  0
 33 36  1  0  0  0  0
M  CHG  1  20   1
M  END
$$$$

  -OEChem-02172215453D

 36 35  0     1  0  0  0  0  0999 V2000
   -3.8701   -2.0616    1.1936 H   0  0  0  0  0  0  0  0  0  0  0  0
   -3.9412   -1.0099    0.9014 C   0  0  0  0  0  0  0  0  0  0  0  0
   -4.3972   -0.4506    1.7218 H   0  0  0  0  0  0  0  0  0  0  0  0
   -4.5772   -0.9335    0.0165 H   0  0  0  0  0  0  0  0  0  0  0  0
   -2.5609   -0.4586    0.6003 C   0  0  0  0  0  0  0  0  0  0  0  0
   -1.5942   -1.2025    0.6044 O   0  0  0  0  0  0  0  0  0  0  0  0
   -2.4112    0.8632    0.2238 N   0  0  0  0  0  0  0  0  0  0  0  0
   -3.2722    1.3980    0.2900 H   0  0  0  0  0  0  0  0  0  0  0  0
   -1.1650    1.6467    0.3825 C   0  0  1  0  0  0  0  0  0  0  0  0
   -0.4436    1.2631   -0.3467 H   0  0  0  0  0  0  0  0  0  0  0  0
   -1.4680    3.1163    0.0139 C   0  0  0  0  0  0  0  0  0  0  0  0
   -2.2947    3.4828    0.6324 H   0  0  0  0  0  0  0  0  0  0  0  0
   -0.5901    3.7328    0.2390 H   0  0  0  0  0  0  0  0  0  0  0  0
   -1.7968    3.2928   -1.4749 C   0  0  0  0  0  0  0  0  0  0  0  0
   -0.9501    2.9517   -2.0812 H   0  0  0  0  0  0  0  0  0  0  0  0
   -2.6713    2.6896   -1.7405 H   0  0  0  0  0  0  0  0  0  0  0  0
   -2.0814    4.7679   -1.7535 C   0  0  0  0  0  0  0  0  0  0  0  0
   -2.9114    5.0979   -1.1188 H   0  0  0  0  0  0  0  0  0  0  0  0
   -1.1934    5.3559   -1.4951 H   0  0  0  0  0  0  0  0  0  0  0  0
   -2.4238    4.9670   -3.1736 N   0  3  0  0  0  0  0  0  0  0  0  0
   -2.3529    4.1569   -3.7880 H   0  0  0  0  0  0  0  0  0  0  0  0
   -2.7672    6.1195   -3.6731 C   0  0  0  0  0  0  0  0  0  0  0  0
   -2.8356    7.2539   -2.8962 N   0  0  0  0  0  0  0  0  0  0  0  0
   -2.4529    7.2094   -1.9536 H   0  0  0  0  0  0  0  0  0  0  0  0
   -2.8684    8.1613   -3.3565 H   0  0  0  0  0  0  0  0  0  0  0  0
   -3.0630    6.2201   -5.0117 N   0  0  0  0  0  0  0  0  0  0  0  0
   -3.1764    5.3677   -5.5572 H   0  0  0  0  0  0  0  0  0  0  0  0
   -3.5153    7.0682   -5.3490 H   0  0  0  0  0  0  0  0  0  0  0  0
   -0.4333    1.5272    1.7555 C   0  0  0  0  0  0  0  0  0  0  0  0
   -0.2775    2.5245    2.4499 O   0  0  0  0  0  0  0  0  0  0  0  0
    0.0384    0.3230    2.2396 N   0  0  0  0  0  0  0  0  0  0  0  0
   -0.2027   -0.5118    1.6991 H   0  0  0  0  0  0  0  0  0  0  0  0
    0.6697    0.1568    3.5441 C   0  0  0  0  0  0  0  0  0  0  0  0
   -0.0304    0.4152    4.3453 H   0  0  0  0  0  0  0  0  0  0  0  0
    0.9851   -0.8822    3.6810 H   0  0  0  0  0  0  0  0  0  0  0  0
    1.5537    0.7978    3.6275 H   0  0  0  0  0  0  0  0  0  0  0  0
  1  2  1  0  0  0  0
  2  3  1  0  0  0  0
  2  4  1  0  0  0  0
  2  5  1  0  0  0  0
  5  6  2  0  0  0  0
  5  7  1  0  0  0  0
  7  8  1  0  0  0  0
  7  9  1  0  0  0  0
  9 10  1  0  0  0  0
  9 11  1  0  0  0  0
  9 29  1  0  0  0  0
 11 12  1  0  0  0  0
 11 13  1  0  0  0  0
 11 14  1  0  0  0  0
 14 15  1  0  0  0  0
 14 16  1  0  0  0  0
 14 17  1  0  0  0  0
 17 18  1  0  0  0  0
 17 19  1  0  0  0  0
 17 20  1  0  0  0  0
 20 21  1  0  0  0  0
 20 22  2  0  0  0  0
 22 23  1  0  0  0  0
 22 26  1  0  0  0  0
 23 24  1  0  0  0  0
 23 25  1  0  0  0  0
 26 27  1  0  0  0  0
 26 28  1  0  0  0  0
 29 30  2  0  0  0  0
 29 31  1  0  0  0  0
 31 32  1  0  0  0  0
 31 33  1  0  0  0  0
 33 34  1  0  0  0  0
 33 35  1  0  0  0  0
 33 36  1  0  0  0  0
M  CHG  1  20   1
M  END
$$$$

  -OEChem-02172215453D

 36 35  0     1  0  0  0  0  0999 V2000
   -3.7758   -2.0574    1.3048 H   0  0  0  0  0  0  0  0  0  0  0  0
   -3.8757   -1.0281    0.9483 C   0  0  0  0  0  0  0  0  0  0  0  0
   -4.3581   -0.4341    1.7283 H   0  0  0  0  0  0  0  0  0  0  0  0
   -4.5034   -1.0250    0.0543 H   0  0  0  0  0  0  0  0  0  0  0  0
   -2.5092   -0.4544    0.6274 C   0  0  0  0  0  0  0  0  0  0  0  0
   -1.5245   -1.1745    0.6500 O   0  0  0  0  0  0  0  0  0  0  0  0
   -2.3874    0.8608    0.2174 N   0  0  0  0  0  0  0  0  0  0  0  0
   -3.2510    1.3900    0.2937 H   0  0  0  0  0  0  0  0  0  0  0  0
   -1.1420    1.6454    0.3534 C   0  0  1  0  0  0  0  0  0  0  0  0
   -0.4228    1.2600   -0.3774 H   0  0  0  0  0  0  0  0  0  0  0  0
   -1.4407    3.1156   -0.0087 C   0  0  0  0  0  0  0  0  0  0  0  0
   -2.2591    3.4849    0.6196 H   0  0  0  0  0  0  0  0  0  0  0  0
   -0.5560    3.7236    0.2123 H   0  0  0  0  0  0  0  0  0  0  0  0
   -1.7912    3.2967   -1.4916 C   0  0  0  0  0  0  0  0  0  0  0  0
   -0.9571    2.9505   -2.1120 H   0  0  0  0  0  0  0  0  0  0  0  0
   -2.6735    2.6999   -1.7447 H   0  0  0  0  0  0  0  0  0  0  0  0
   -2.0700    4.7744   -1.7621 C   0  0  0  0  0  0  0  0  0  0  0  0
   -2.8892    5.1059   -1.1143 H   0  0  0  0  0  0  0  0  0  0  0  0
   -1.1755    5.3570   -1.5139 H   0  0  0  0  0  0  0  0  0  0  0  0
   -2.4329    4.9786   -3.1767 N   0  3  0  0  0  0  0  0  0  0  0  0
   -2.3833    4.1676   -3.7921 H   0  0  0  0  0  0  0  0  0  0  0  0
   -2.7762    6.1340   -3.6699 C   0  0  0  0  0  0  0  0  0  0  0  0
   -2.8256    7.2690   -2.8924 N   0  0  0  0  0  0  0  0  0  0  0  0
   -2.4295    7.2230   -1.9555 H   0  0  0  0  0  0  0  0  0  0  0  0
   -2.8620    8.1765   -3.3527 H   0  0  0  0  0  0  0  0  0  0  0  0
   -3.0936    6.2367   -5.0034 N   0  0  0  0  0  0  0  0  0  0  0  0
   -3.2177    5.3858   -5.5486 H   0  0  0  0  0  0  0  0  0  0  0  0
   -3.5477    7.0869   -5.3324 H   0  0  0  0  0  0  0  0  0  0  0  0
   -0.4256    1.5309    1.7301 C   0  0  0  0  0  0  0  0  0  0  0  0
   -0.4661    2.4690    2.5171 O   0  0  0  0  0  0  0  0  0  0  0  0
    0.2889    0.4009    2.0764 N   0  0  0  0  0  0  0  0  0  0  0  0
    0.0969   -0.4297    1.5100 H   0  0  0  0  0  0  0  0  0  0  0  0
    0.9004    0.2135    3.3872 C   0  0  0  0  0  0  0  0  0  0  0  0
    0.1351    0.2063    4.1703 H   0  0  0  0  0  0  0  0  0  0  0  0
    1.4403   -0.7380    3.4196 H   0  0  0  0  0  0  0  0  0  0  0  0
    1.6122    1.0186    3.5982 H   0  0  0  0  0  0  0  0  0  0  0  0
  1  2  1  0  0  0  0
  2  3  1  0  0  0  0
  2  4  1  0  0  0  0
  2  5  1  0  0  0  0
  5  6  2  0  0  0  0
  5  7  1  0  0  0  0
  7  8  1  0  0  0  0
  7  9  1  0  0  0  0
  9 10  1  0  0  0  0
  9 11  1  0  0  0  0
  9 29  1  0  0  0  0
 11 12  1  0  0  0  0
 11 13  1  0  0  0  0
 11 14  1  0  0  0  0
 14 15  1  0  0  0  0
 14 16  1  0  0  0  0
 14 17  1  0  0  0  0
 17 18  1  0  0  0  0
 17 19  1  0  0  0  0
 17 20  1  0  0  0  0
 20 21  1  0  0  0  0
 20 22  2  0  0  0  0
 22 23  1  0  0  0  0
 22 26  1  0  0  0  0
 23 24  1  0  0  0  0
 23 25  1  0  0  0  0
 26 27  1  0  0  0  0
 26 28  1  0  0  0  0
 29 30  2  0  0  0  0
 29 31  1  0  0  0  0
 31 32  1  0  0  0  0
 31 33  1  0  0  0  0
 33 34  1  0  0  0  0
 33 35  1  0  0  0  0
 33 36  1  0  0  0  0
M  CHG  1  20   1
M  END
$$$$

  -OEChem-02172215453D

 36 35  0     1  0  0  0  0  0999 V2000
   -3.6873   -2.0647    1.3634 H   0  0  0  0  0  0  0  0  0  0  0  0
   -3.8123   -1.0424    0.9948 C   0  0  0  0  0  0  0  0  0  0  0  0
   -4.2932   -0.4469    1.7745 H   0  0  0  0  0  0  0  0  0  0  0  0
   -4.4535   -1.0636    0.1105 H   0  0  0  0  0  0  0  0  0  0  0  0
   -2.4628   -0.4464    0.6447 C   0  0  0  0  0  0  0  0  0  0  0  0
   -1.4571   -1.1376    0.6869 O   0  0  0  0  0  0  0  0  0  0  0  0
   -2.3726    0.8609    0.2013 N   0  0  0  0  0  0  0  0  0  0  0  0
   -3.2384    1.3838    0.2956 H   0  0  0  0  0  0  0  0  0  0  0  0
   -1.1280    1.6449    0.3234 C   0  0  1  0  0  0  0  0  0  0  0  0
   -0.4074    1.2582   -0.4051 H   0  0  0  0  0  0  0  0  0  0  0  0
   -1.4231    3.1162   -0.0303 C   0  0  0  0  0  0  0  0  0  0  0  0
   -2.2357    3.4863    0.6050 H   0  0  0  0  0  0  0  0  0  0  0  0
   -0.5342    3.7187    0.1896 H   0  0  0  0  0  0  0  0  0  0  0  0
   -1.7884    3.3016   -1.5085 C   0  0  0  0  0  0  0  0  0  0  0  0
   -0.9618    2.9545   -2.1381 H   0  0  0  0  0  0  0  0  0  0  0  0
   -2.6757    2.7079   -1.7525 H   0  0  0  0  0  0  0  0  0  0  0  0
   -2.0637    4.7804   -1.7738 C   0  0  0  0  0  0  0  0  0  0  0  0
   -2.8737    5.1151   -1.1159 H   0  0  0  0  0  0  0  0  0  0  0  0
   -1.1633    5.3578   -1.5361 H   0  0  0  0  0  0  0  0  0  0  0  0
   -2.4408    4.9886   -3.1841 N   0  3  0  0  0  0  0  0  0  0  0  0
   -2.3993    4.1795   -3.8027 H   0  0  0  0  0  0  0  0  0  0  0  0
   -2.7842    6.1469   -3.6704 C   0  0  0  0  0  0  0  0  0  0  0  0
   -2.8194    7.2788   -2.8876 N   0  0  0  0  0  0  0  0  0  0  0  0
   -2.4170    7.2252   -1.9539 H   0  0  0  0  0  0  0  0  0  0  0  0
   -2.8534    8.1887   -3.3430 H   0  0  0  0  0  0  0  0  0  0  0  0
   -3.1126    6.2568   -5.0008 N   0  0  0  0  0  0  0  0  0  0  0  0
   -3.2531    5.4082   -5.5455 H   0  0  0  0  0  0  0  0  0  0  0  0
   -3.5619    7.1122   -5.3228 H   0  0  0  0  0  0  0  0  0  0  0  0
   -0.4377    1.5316    1.7099 C   0  0  0  0  0  0  0  0  0  0  0  0
   -0.6707    2.3692    2.5733 O   0  0  0  0  0  0  0  0  0  0  0  0
    0.5003    0.5465    1.9509 N   0  0  0  0  0  0  0  0  0  0  0  0
    0.4274   -0.2695    1.3402 H   0  0  0  0  0  0  0  0  0  0  0  0
    1.1170    0.3568    3.2592 C   0  0  0  0  0  0  0  0  0  0  0  0
    0.3598    0.0987    4.0069 H   0  0  0  0  0  0  0  0  0  0  0  0
    1.8527   -0.4523    3.2157 H   0  0  0  0  0  0  0  0  0  0  0  0
    1.6304    1.2696    3.5797 H   0  0  0  0  0  0  0  0  0  0  0  0
  1  2  1  0  0  0  0
  2  3  1  0  0  0  0
  2  4  1  0  0  0  0
  2  5  1  0  0  0  0
  5  6  2  0  0  0  0
  5  7  1  0  0  0  0
  7  8  1  0  0  0  0
  7  9  1  0  0  0  0
  9 10  1  0  0  0  0
  9 11  1  0  0  0  0
  9 29  1  0  0  0  0
 11 12  1  0  0  0  0
 11 13  1  0  0  0  0
 11 14  1  0  0  0  0
 14 15  1  0  0  0  0
 14 16  1  0  0  0  0
 14 17  1  0  0  0  0
 17 18  1  0  0  0  0
 17 19  1  0  0  0  0
 17 20  1  0  0  0  0
 20 21  1  0  0  0  0
 20 22  2  0  0  0  0
 22 23  1  0  0  0  0
 22 26  1  0  0  0  0
 23 24  1  0  0  0  0
 23 25  1  0  0  0  0
 26 27  1  0  0  0  0
 26 28  1  0  0  0  0
 29 30  2  0  0  0  0
 29 31  1  0  0  0  0
 31 32  1  0  0  0  0
 31 33  1  0  0  0  0
 33 34  1  0  0  0  0
 33 35  1  0  0  0  0
 33 36  1  0  0  0  0
M  CHG  1  20   1
M  END
$$$$

  -OEChem-02172215453D

 36 35  0     1  0  0  0  0  0999 V2000
   -3.6140   -2.0623    1.4340 H   0  0  0  0  0  0  0  0  0  0  0  0
   -3.7644   -1.0543    1.0365 C   0  0  0  0  0  0  0  0  0  0  0  0
   -4.2485   -0.4454    1.8039 H   0  0  0  0  0  0  0  0  0  0  0  0
   -4.4153   -1.1149    0.1613 H   0  0  0  0  0  0  0  0  0  0  0  0
   -2.4313   -0.4424    0.6523 C   0  0  0  0  0  0  0  0  0  0  0  0
   -1.4118   -1.1135    0.6966 O   0  0  0  0  0  0  0  0  0  0  0  0
   -2.3667    0.8582    0.1841 N   0  0  0  0  0  0  0  0  0  0  0  0
   -3.2322    1.3766    0.3033 H   0  0  0  0  0  0  0  0  0  0  0  0
   -1.1226    1.6421    0.2963 C   0  0  1  0  0  0  0  0  0  0  0  0
   -0.4018    1.2539   -0.4312 H   0  0  0  0  0  0  0  0  0  0  0  0
   -1.4107    3.1162   -0.0470 C   0  0  0  0  0  0  0  0  0  0  0  0
   -2.2171    3.4879    0.5953 H   0  0  0  0  0  0  0  0  0  0  0  0
   -0.5161    3.7111    0.1710 H   0  0  0  0  0  0  0  0  0  0  0  0
   -1.7873    3.3094   -1.5215 C   0  0  0  0  0  0  0  0  0  0  0  0
   -0.9688    2.9578   -2.1592 H   0  0  0  0  0  0  0  0  0  0  0  0
   -2.6803    2.7219   -1.7591 H   0  0  0  0  0  0  0  0  0  0  0  0
   -2.0562    4.7904   -1.7815 C   0  0  0  0  0  0  0  0  0  0  0  0
   -2.8589    5.1283   -1.1163 H   0  0  0  0  0  0  0  0  0  0  0  0
   -1.1506    5.3625   -1.5500 H   0  0  0  0  0  0  0  0  0  0  0  0
   -2.4438    5.0018   -3.1884 N   0  3  0  0  0  0  0  0  0  0  0  0
   -2.4133    4.1919   -3.8064 H   0  0  0  0  0  0  0  0  0  0  0  0
   -2.7853    6.1615   -3.6728 C   0  0  0  0  0  0  0  0  0  0  0  0
   -2.8090    7.2949   -2.8918 N   0  0  0  0  0  0  0  0  0  0  0  0
   -2.3993    7.2433   -1.9612 H   0  0  0  0  0  0  0  0  0  0  0  0
   -2.8526    8.2044   -3.3471 H   0  0  0  0  0  0  0  0  0  0  0  0
   -3.1285    6.2692   -4.9995 N   0  0  0  0  0  0  0  0  0  0  0  0
   -3.2856    5.4189   -5.5371 H   0  0  0  0  0  0  0  0  0  0  0  0
   -3.5785    7.1256   -5.3180 H   0  0  0  0  0  0  0  0  0  0  0  0
   -0.4519    1.5302    1.6893 C   0  0  0  0  0  0  0  0  0  0  0  0
   -0.8786    2.2086    2.6158 O   0  0  0  0  0  0  0  0  0  0  0  0
    0.6808    0.7587    1.8632 N   0  0  0  0  0  0  0  0  0  0  0  0
    0.8073    0.0184    1.1744 H   0  0  0  0  0  0  0  0  0  0  0  0
    1.3010    0.5731    3.1703 C   0  0  0  0  0  0  0  0  0  0  0  0
    0.6059    0.0812    3.8589 H   0  0  0  0  0  0  0  0  0  0  0  0
    2.1966   -0.0489    3.0785 H   0  0  0  0  0  0  0  0  0  0  0  0
    1.5961    1.5376    3.5968 H   0  0  0  0  0  0  0  0  0  0  0  0
  1  2  1  0  0  0  0
  2  3  1  0  0  0  0
  2  4  1  0  0  0  0
  2  5  1  0  0  0  0
  5  6  2  0  0  0  0
  5  7  1  0  0  0  0
  7  8  1  0  0  0  0
  7  9  1  0  0  0  0
  9 10  1  0  0  0  0
  9 11  1  0  0  0  0
  9 29  1  0  0  0  0
 11 12  1  0  0  0  0
 11 13  1  0  0  0  0
 11 14  1  0  0  0  0
 14 15  1  0  0  0  0
 14 16  1  0  0  0  0
 14 17  1  0  0  0  0
 17 18  1  0  0  0  0
 17 19  1  0  0  0  0
 17 20  1  0  0  0  0
 20 21  1  0  0  0  0
 20 22  2  0  0  0  0
 22 23  1  0  0  0  0
 22 26  1  0  0  0  0
 23 24  1  0  0  0  0
 23 25  1  0  0  0  0
 26 27  1  0  0  0  0
 26 28  1  0  0  0  0
 29 30  2  0  0  0  0
 29 31  1  0  0  0  0
 31 32  1  0  0  0  0
 31 33  1  0  0  0  0
 33 34  1  0  0  0  0
 33 35  1  0  0  0  0
 33 36  1  0  0  0  0
M  CHG  1  20   1
M  END
$$$$

  -OEChem-02172215453D

 36 35  0     1  0  0  0  0  0999 V2000
   -3.5851   -2.0538    1.4555 H   0  0  0  0  0  0  0  0  0  0  0  0
   -3.7393   -1.0420    1.0694 C   0  0  0  0  0  0  0  0  0  0  0  0
   -4.1911   -0.4334    1.8566 H   0  0  0  0  0  0  0  0  0  0  0  0
   -4.4195   -1.0910    0.2160 H   0  0  0  0  0  0  0  0  0  0  0  0
   -2.4139   -0.4391    0.6460 C   0  0  0  0  0  0  0  0  0  0  0  0
   -1.3937   -1.1097    0.6780 O   0  0  0  0  0  0  0  0  0  0  0  0
   -2.3573    0.8561    0.1617 N   0  0  0  0  0  0  0  0  0  0  0  0
   -3.2190    1.3751    0.3024 H   0  0  0  0  0  0  0  0  0  0  0  0
   -1.1117    1.6375    0.2715 C   0  0  1  0  0  0  0  0  0  0  0  0
   -0.3910    1.2469   -0.4546 H   0  0  0  0  0  0  0  0  0  0  0  0
   -1.3994    3.1123   -0.0620 C   0  0  0  0  0  0  0  0  0  0  0  0
   -2.2023    3.4814    0.5864 H   0  0  0  0  0  0  0  0  0  0  0  0
   -0.5034    3.7053    0.1542 H   0  0  0  0  0  0  0  0  0  0  0  0
   -1.7836    3.3103   -1.5338 C   0  0  0  0  0  0  0  0  0  0  0  0
   -0.9692    2.9600   -2.1772 H   0  0  0  0  0  0  0  0  0  0  0  0
   -2.6791    2.7250   -1.7682 H   0  0  0  0  0  0  0  0  0  0  0  0
   -2.0531    4.7916   -1.7892 C   0  0  0  0  0  0  0  0  0  0  0  0
   -2.8523    5.1286   -1.1195 H   0  0  0  0  0  0  0  0  0  0  0  0
   -1.1466    5.3634   -1.5620 H   0  0  0  0  0  0  0  0  0  0  0  0
   -2.4478    5.0052   -3.1936 N   0  3  0  0  0  0  0  0  0  0  0  0
   -2.4234    4.1962   -3.8132 H   0  0  0  0  0  0  0  0  0  0  0  0
   -2.7913    6.1658   -3.6738 C   0  0  0  0  0  0  0  0  0  0  0  0
   -2.8104    7.2976   -2.8902 N   0  0  0  0  0  0  0  0  0  0  0  0
   -2.3994    7.2425   -1.9604 H   0  0  0  0  0  0  0  0  0  0  0  0
   -2.8520    8.2083   -3.3435 H   0  0  0  0  0  0  0  0  0  0  0  0
   -3.1432    6.2765   -4.9981 N   0  0  0  0  0  0  0  0  0  0  0  0
   -3.3033    5.4271   -5.5366 H   0  0  0  0  0  0  0  0  0  0  0  0
   -3.5993    7.1322   -5.3102 H   0  0  0  0  0  0  0  0  0  0  0  0
   -0.4540    1.5315    1.6700 C   0  0  0  0  0  0  0  0  0  0  0  0
   -1.0375    2.0118    2.6346 O   0  0  0  0  0  0  0  0  0  0  0  0
    0.8234    1.0247    1.8170 N   0  0  0  0  0  0  0  0  0  0  0  0
    1.1583    0.4401    1.0550 H   0  0  0  0  0  0  0  0  0  0  0  0
    1.4397    0.8470    3.1276 C   0  0  0  0  0  0  0  0  0  0  0  0
    0.8604    0.1397    3.7309 H   0  0  0  0  0  0  0  0  0  0  0  0
    2.4567    0.4581    3.0180 H   0  0  0  0  0  0  0  0  0  0  0  0
    1.4933    1.8021    3.6611 H   0  0  0  0  0  0  0  0  0  0  0  0
  1  2  1  0  0  0  0
  2  3  1  0  0  0  0
  2  4  1  0  0  0  0
  2  5  1  0  0  0  0
  5  6  2  0  0  0  0
  5  7  1  0  0  0  0
  7  8  1  0  0  0  0
  7  9  1  0  0  0  0
  9 10  1  0  0  0  0
  9 11  1  0  0  0  0
  9 29  1  0  0  0  0
 11 12  1  0  0  0  0
 11 13  1  0  0  0  0
 11 14  1  0  0  0  0
 14 15  1  0  0  0  0
 14 16  1  0  0  0  0
 14 17  1  0  0  0  0
 17 18  1  0  0  0  0
 17 19  1  0  0  0  0
 17 20  1  0  0  0  0
 20 21  1  0  0  0  0
 20 22  2  0  0  0  0
 22 23  1  0  0  0  0
 22 26  1  0  0  0  0
 23 24  1  0  0  0  0
 23 25  1  0  0  0  0
 26 27  1  0  0  0  0
 26 28  1  0  0  0  0
 29 30  2  0  0  0  0
 29 31  1  0  0  0  0
 31 32  1  0  0  0  0
 31 33  1  0  0  0  0
 33 34  1  0  0  0  0
 33 35  1  0  0  0  0
 33 36  1  0  0  0  0
M  CHG  1  20   1
M  END
$$$$

  -OEChem-02172215453D

 36 35  0     1  0  0  0  0  0999 V2000
   -3.5638   -2.0484    1.4773 H   0  0  0  0  0  0  0  0  0  0  0  0
   -3.7257   -1.0376    1.0922 C   0  0  0  0  0  0  0  0  0  0  0  0
   -4.1538   -0.4250    1.8893 H   0  0  0  0  0  0  0  0  0  0  0  0
   -4.4284   -1.0868    0.2576 H   0  0  0  0  0  0  0  0  0  0  0  0
   -2.4100   -0.4408    0.6325 C   0  0  0  0  0  0  0  0  0  0  0  0
   -1.3918   -1.1151    0.6385 O   0  0  0  0  0  0  0  0  0  0  0  0
   -2.3592    0.8536    0.1452 N   0  0  0  0  0  0  0  0  0  0  0  0
   -3.2178    1.3708    0.3087 H   0  0  0  0  0  0  0  0  0  0  0  0
   -1.1125    1.6332    0.2609 C   0  0  1  0  0  0  0  0  0  0  0  0
   -0.3902    1.2418   -0.4631 H   0  0  0  0  0  0  0  0  0  0  0  0
   -1.3998    3.1092   -0.0639 C   0  0  0  0  0  0  0  0  0  0  0  0
   -2.2031    3.4737    0.5865 H   0  0  0  0  0  0  0  0  0  0  0  0
   -0.5047    3.7020    0.1560 H   0  0  0  0  0  0  0  0  0  0  0  0
   -1.7831    3.3130   -1.5358 C   0  0  0  0  0  0  0  0  0  0  0  0
   -0.9682    2.9643   -2.1798 H   0  0  0  0  0  0  0  0  0  0  0  0
   -2.6781    2.7277   -1.7729 H   0  0  0  0  0  0  0  0  0  0  0  0
   -2.0537    4.7948   -1.7897 C   0  0  0  0  0  0  0  0  0  0  0  0
   -2.8541    5.1313   -1.1211 H   0  0  0  0  0  0  0  0  0  0  0  0
   -1.1477    5.3673   -1.5618 H   0  0  0  0  0  0  0  0  0  0  0  0
   -2.4470    5.0079   -3.1945 N   0  3  0  0  0  0  0  0  0  0  0  0
   -2.4236    4.1978   -3.8127 H   0  0  0  0  0  0  0  0  0  0  0  0
   -2.7913    6.1679   -3.6755 C   0  0  0  0  0  0  0  0  0  0  0  0
   -2.8129    7.3001   -2.8925 N   0  0  0  0  0  0  0  0  0  0  0  0
   -2.3999    7.2469   -1.9634 H   0  0  0  0  0  0  0  0  0  0  0  0
   -2.8540    8.2101   -3.3472 H   0  0  0  0  0  0  0  0  0  0  0  0
   -3.1415    6.2780   -5.0001 N   0  0  0  0  0  0  0  0  0  0  0  0
   -3.2995    5.4288   -5.5395 H   0  0  0  0  0  0  0  0  0  0  0  0
   -3.5965    7.1338   -5.3133 H   0  0  0  0  0  0  0  0  0  0  0  0
   -0.4611    1.5275    1.6619 C   0  0  0  0  0  0  0  0  0  0  0  0
   -1.1388    1.7998    2.6461 O   0  0  0  0  0  0  0  0  0  0  0  0
    0.8983    1.3165    1.8004 N   0  0  0  0  0  0  0  0  0  0  0  0
    1.3800    0.9280    0.9942 H   0  0  0  0  0  0  0  0  0  0  0  0
    1.5306    1.1700    3.1076 C   0  0  0  0  0  0  0  0  0  0  0  0
    1.1143    0.3078    3.6399 H   0  0  0  0  0  0  0  0  0  0  0  0
    2.6084    1.0196    2.9932 H   0  0  0  0  0  0  0  0  0  0  0  0
    1.3725    2.0677    3.7149 H   0  0  0  0  0  0  0  0  0  0  0  0
  1  2  1  0  0  0  0
  2  3  1  0  0  0  0
  2  4  1  0  0  0  0
  2  5  1  0  0  0  0
  5  6  2  0  0  0  0
  5  7  1  0  0  0  0
  7  8  1  0  0  0  0
  7  9  1  0  0  0  0
  9 10  1  0  0  0  0
  9 11  1  0  0  0  0
  9 29  1  0  0  0  0
 11 12  1  0  0  0  0
 11 13  1  0  0  0  0
 11 14  1  0  0  0  0
 14 15  1  0  0  0  0
 14 16  1  0  0  0  0
 14 17  1  0  0  0  0
 17 18  1  0  0  0  0
 17 19  1  0  0  0  0
 17 20  1  0  0  0  0
 20 21  1  0  0  0  0
 20 22  2  0  0  0  0
 22 23  1  0  0  0  0
 22 26  1  0  0  0  0
 23 24  1  0  0  0  0
 23 25  1  0  0  0  0
 26 27  1  0  0  0  0
 26 28  1  0  0  0  0
 29 30  2  0  0  0  0
 29 31  1  0  0  0  0
 31 32  1  0  0  0  0
 31 33  1  0  0  0  0
 33 34  1  0  0  0  0
 33 35  1  0  0  0  0
 33 36  1  0  0  0  0
M  CHG  1  20   1
M  END
$$$$

  -OEChem-02172215453D

 36 35  0     1  0  0  0  0  0999 V2000
   -3.5686   -2.0399    1.4762 H   0  0  0  0  0  0  0  0  0  0  0  0
   -3.7290   -1.0269    1.0964 C   0  0  0  0  0  0  0  0  0  0  0  0
   -4.1331   -0.4115    1.9041 H   0  0  0  0  0  0  0  0  0  0  0  0
   -4.4502   -1.0673    0.2771 H   0  0  0  0  0  0  0  0  0  0  0  0
   -2.4175   -0.4423    0.6102 C   0  0  0  0  0  0  0  0  0  0  0  0
   -1.4074   -1.1282    0.5840 O   0  0  0  0  0  0  0  0  0  0  0  0
   -2.3634    0.8546    0.1302 N   0  0  0  0  0  0  0  0  0  0  0  0
   -3.2177    1.3731    0.3102 H   0  0  0  0  0  0  0  0  0  0  0  0
   -1.1134    1.6272    0.2602 C   0  0  1  0  0  0  0  0  0  0  0  0
   -0.3894    1.2373   -0.4630 H   0  0  0  0  0  0  0  0  0  0  0  0
   -1.4030    3.1047   -0.0552 C   0  0  0  0  0  0  0  0  0  0  0  0
   -2.2100    3.4626    0.5944 H   0  0  0  0  0  0  0  0  0  0  0  0
   -0.5105    3.6990    0.1704 H   0  0  0  0  0  0  0  0  0  0  0  0
   -1.7799    3.3150   -1.5281 C   0  0  0  0  0  0  0  0  0  0  0  0
   -0.9606    2.9716   -2.1692 H   0  0  0  0  0  0  0  0  0  0  0  0
   -2.6712    2.7272   -1.7730 H   0  0  0  0  0  0  0  0  0  0  0  0
   -2.0549    4.7961   -1.7797 C   0  0  0  0  0  0  0  0  0  0  0  0
   -2.8608    5.1277   -1.1152 H   0  0  0  0  0  0  0  0  0  0  0  0
   -1.1530    5.3723   -1.5451 H   0  0  0  0  0  0  0  0  0  0  0  0
   -2.4412    5.0066   -3.1872 N   0  3  0  0  0  0  0  0  0  0  0  0
   -2.4102    4.1957   -3.8043 H   0  0  0  0  0  0  0  0  0  0  0  0
   -2.7885    6.1636   -3.6735 C   0  0  0  0  0  0  0  0  0  0  0  0
   -2.8208    7.2979   -2.8940 N   0  0  0  0  0  0  0  0  0  0  0  0
   -2.4152    7.2491   -1.9615 H   0  0  0  0  0  0  0  0  0  0  0  0
   -2.8647    8.2065   -3.3515 H   0  0  0  0  0  0  0  0  0  0  0  0
   -3.1302    6.2672   -5.0010 N   0  0  0  0  0  0  0  0  0  0  0  0
   -3.2773    5.4151   -5.5387 H   0  0  0  0  0  0  0  0  0  0  0  0
   -3.5893    7.1184   -5.3208 H   0  0  0  0  0  0  0  0  0  0  0  0
   -0.4627    1.5166    1.6627 C   0  0  0  0  0  0  0  0  0  0  0  0
   -1.1800    1.5827    2.6547 O   0  0  0  0  0  0  0  0  0  0  0  0
    0.9095    1.6105    1.8117 N   0  0  0  0  0  0  0  0  0  0  0  0
    1.4730    1.4296    0.9861 H   0  0  0  0  0  0  0  0  0  0  0  0
    1.5591    1.5243    3.1160 C   0  0  0  0  0  0  0  0  0  0  0  0
    1.3409    0.5610    3.5899 H   0  0  0  0  0  0  0  0  0  0  0  0
    2.6442    1.6186    3.0071 H   0  0  0  0  0  0  0  0  0  0  0  0
    1.2090    2.3266    3.7743 H   0  0  0  0  0  0  0  0  0  0  0  0
  1  2  1  0  0  0  0
  2  3  1  0  0  0  0
  2  4  1  0  0  0  0
  2  5  1  0  0  0  0
  5  6  2  0  0  0  0
  5  7  1  0  0  0  0
  7  8  1  0  0  0  0
  7  9  1  0  0  0  0
  9 10  1  0  0  0  0
  9 11  1  0  0  0  0
  9 29  1  0  0  0  0
 11 12  1  0  0  0  0
 11 13  1  0  0  0  0
 11 14  1  0  0  0  0
 14 15  1  0  0  0  0
 14 16  1  0  0  0  0
 14 17  1  0  0  0  0
 17 18  1  0  0  0  0
 17 19  1  0  0  0  0
 17 20  1  0  0  0  0
 20 21  1  0  0  0  0
 20 22  2  0  0  0  0
 22 23  1  0  0  0  0
 22 26  1  0  0  0  0
 23 24  1  0  0  0  0
 23 25  1  0  0  0  0
 26 27  1  0  0  0  0
 26 28  1  0  0  0  0
 29 30  2  0  0  0  0
 29 31  1  0  0  0  0
 31 32  1  0  0  0  0
 31 33  1  0  0  0  0
 33 34  1  0  0  0  0
 33 35  1  0  0  0  0
 33 36  1  0  0  0  0
M  CHG  1  20   1
M  END
$$$$

  -OEChem-02172215453D

 36 35  0     1  0  0  0  0  0999 V2000
   -3.5834   -2.0597    1.4102 H   0  0  0  0  0  0  0  0  0  0  0  0
   -3.7314   -1.0209    1.1015 C   0  0  0  0  0  0  0  0  0  0  0  0
   -4.0781   -0.4467    1.9644 H   0  0  0  0  0  0  0  0  0  0  0  0
   -4.4913   -0.9905    0.3176 H   0  0  0  0  0  0  0  0  0  0  0  0
   -2.4273   -0.4424    0.5884 C   0  0  0  0  0  0  0  0  0  0  0  0
   -1.4287   -1.1413    0.5119 O   0  0  0  0  0  0  0  0  0  0  0  0
   -2.3690    0.8604    0.1236 N   0  0  0  0  0  0  0  0  0  0  0  0
   -3.2169    1.3795    0.3285 H   0  0  0  0  0  0  0  0  0  0  0  0
   -1.1134    1.6245    0.2665 C   0  0  1  0  0  0  0  0  0  0  0  0
   -0.3890    1.2365   -0.4575 H   0  0  0  0  0  0  0  0  0  0  0  0
   -1.4065    3.1035   -0.0461 C   0  0  0  0  0  0  0  0  0  0  0  0
   -2.2176    3.4574    0.6003 H   0  0  0  0  0  0  0  0  0  0  0  0
   -0.5190    3.7030    0.1840 H   0  0  0  0  0  0  0  0  0  0  0  0
   -1.7762    3.3151   -1.5217 C   0  0  0  0  0  0  0  0  0  0  0  0
   -0.9521    2.9754   -2.1588 H   0  0  0  0  0  0  0  0  0  0  0  0
   -2.6639    2.7243   -1.7726 H   0  0  0  0  0  0  0  0  0  0  0  0
   -2.0560    4.7953   -1.7754 C   0  0  0  0  0  0  0  0  0  0  0  0
   -2.8674    5.1238   -1.1163 H   0  0  0  0  0  0  0  0  0  0  0  0
   -1.1579    5.3758   -1.5363 H   0  0  0  0  0  0  0  0  0  0  0  0
   -2.4348    5.0035   -3.1852 N   0  3  0  0  0  0  0  0  0  0  0  0
   -2.3984    4.1918   -3.8007 H   0  0  0  0  0  0  0  0  0  0  0  0
   -2.7845    6.1583   -3.6751 C   0  0  0  0  0  0  0  0  0  0  0  0
   -2.8271    7.2937   -2.8978 N   0  0  0  0  0  0  0  0  0  0  0  0
   -2.4254    7.2505   -1.9635 H   0  0  0  0  0  0  0  0  0  0  0  0
   -2.8840    8.2013   -3.3556 H   0  0  0  0  0  0  0  0  0  0  0  0
   -3.1196    6.2587   -5.0045 N   0  0  0  0  0  0  0  0  0  0  0  0
   -3.2588    5.4056   -5.5429 H   0  0  0  0  0  0  0  0  0  0  0  0
   -3.5802    7.1077   -5.3275 H   0  0  0  0  0  0  0  0  0  0  0  0
   -0.4543    1.5029    1.6667 C   0  0  0  0  0  0  0  0  0  0  0  0
   -1.1674    1.3633    2.6538 O   0  0  0  0  0  0  0  0  0  0  0  0
    0.8606    1.8931    1.8540 N   0  0  0  0  0  0  0  0  0  0  0  0
    1.4547    1.9205    1.0307 H   0  0  0  0  0  0  0  0  0  0  0  0
    1.5030    1.8745    3.1655 C   0  0  0  0  0  0  0  0  0  0  0  0
    1.4962    0.8612    3.5817 H   0  0  0  0  0  0  0  0  0  0  0  0
    2.5418    2.2091    3.0853 H   0  0  0  0  0  0  0  0  0  0  0  0
    0.9803    2.5416    3.8596 H   0  0  0  0  0  0  0  0  0  0  0  0
  1  2  1  0  0  0  0
  2  3  1  0  0  0  0
  2  4  1  0  0  0  0
  2  5  1  0  0  0  0
  5  6  2  0  0  0  0
  5  7  1  0  0  0  0
  7  8  1  0  0  0  0
  7  9  1  0  0  0  0
  9 10  1  0  0  0  0
  9 11  1  0  0  0  0
  9 29  1  0  0  0  0
 11 12  1  0  0  0  0
 11 13  1  0  0  0  0
 11 14  1  0  0  0  0
 14 15  1  0  0  0  0
 14 16  1  0  0  0  0
 14 17  1  0  0  0  0
 17 18  1  0  0  0  0
 17 19  1  0  0  0  0
 17 20  1  0  0  0  0
 20 21  1  0  0  0  0
 20 22  2  0  0  0  0
 22 23  1  0  0  0  0
 22 26  1  0  0  0  0
 23 24  1  0  0  0  0
 23 25  1  0  0  0  0
 26 27  1  0  0  0  0
 26 28  1  0  0  0  0
 29 30  2  0  0  0  0
 29 31  1  0  0  0  0
 31 32  1  0  0  0  0
 31 33  1  0  0  0  0
 33 34  1  0  0  0  0
 33 35  1  0  0  0  0
 33 36  1  0  0  0  0
M  CHG  1  20   1
M  END
$$$$

  -OEChem-02172215453D

 36 35  0     1  0  0  0  0  0999 V2000
   -3.7134   -2.0341    1.2628 H   0  0  0  0  0  0  0  0  0  0  0  0
   -3.8020   -0.9675    1.0374 C   0  0  0  0  0  0  0  0  0  0  0  0
   -4.0660   -0.4384    1.9562 H   0  0  0  0  0  0  0  0  0  0  0  0
   -4.5935   -0.8282    0.2980 H   0  0  0  0  0  0  0  0  0  0  0  0
   -2.4846   -0.4421    0.5014 C   0  0  0  0  0  0  0  0  0  0  0  0
   -1.5630   -1.2084    0.2703 O   0  0  0  0  0  0  0  0  0  0  0  0
   -2.3594    0.8770    0.0997 N   0  0  0  0  0  0  0  0  0  0  0  0
   -3.1953    1.4114    0.3090 H   0  0  0  0  0  0  0  0  0  0  0  0
   -1.0898    1.6151    0.2928 C   0  0  1  0  0  0  0  0  0  0  0  0
   -0.4638    1.4326   -0.5867 H   0  0  0  0  0  0  0  0  0  0  0  0
   -1.4448    3.1159    0.3648 C   0  0  0  0  0  0  0  0  0  0  0  0
   -2.1883    3.2736    1.1542 H   0  0  0  0  0  0  0  0  0  0  0  0
   -0.5546    3.6930    0.6357 H   0  0  0  0  0  0  0  0  0  0  0  0
   -1.9742    3.6495   -0.9759 C   0  0  0  0  0  0  0  0  0  0  0  0
   -1.2158    3.5044   -1.7530 H   0  0  0  0  0  0  0  0  0  0  0  0
   -2.8716    3.0966   -1.2731 H   0  0  0  0  0  0  0  0  0  0  0  0
   -2.3079    5.1351   -0.8444 C   0  0  0  0  0  0  0  0  0  0  0  0
   -3.0502    5.2654   -0.0487 H   0  0  0  0  0  0  0  0  0  0  0  0
   -1.4003    5.6821   -0.5654 H   0  0  0  0  0  0  0  0  0  0  0  0
   -2.8391    5.6507   -2.1205 N   0  3  0  0  0  0  0  0  0  0  0  0
   -2.8530    5.0085   -2.9122 H   0  0  0  0  0  0  0  0  0  0  0  0
   -3.2608    6.8722   -2.2858 C   0  0  0  0  0  0  0  0  0  0  0  0
   -3.2416    7.7920   -1.2615 N   0  0  0  0  0  0  0  0  0  0  0  0
   -2.7427    7.5501   -0.4080 H   0  0  0  0  0  0  0  0  0  0  0  0
   -3.3666    8.7780   -1.4829 H   0  0  0  0  0  0  0  0  0  0  0  0
   -3.7345    7.2675   -3.5145 N   0  0  0  0  0  0  0  0  0  0  0  0
   -3.9134    6.5603   -4.2250 H   0  0  0  0  0  0  0  0  0  0  0  0
   -4.2357    8.1516   -3.5834 H   0  0  0  0  0  0  0  0  0  0  0  0
   -0.2165    1.2110    1.5205 C   0  0  0  0  0  0  0  0  0  0  0  0
   -0.7447    0.7018    2.5020 O   0  0  0  0  0  0  0  0  0  0  0  0
    0.9863    1.8634    1.7442 N   0  0  0  0  0  0  0  0  0  0  0  0
    1.4521    2.2581    0.9333 H   0  0  0  0  0  0  0  0  0  0  0  0
    1.7722    1.6791    2.9621 C   0  0  0  0  0  0  0  0  0  0  0  0
    2.0204    0.6215    3.1028 H   0  0  0  0  0  0  0  0  0  0  0  0
    2.7052    2.2483    2.9027 H   0  0  0  0  0  0  0  0  0  0  0  0
    1.2137    2.0275    3.8374 H   0  0  0  0  0  0  0  0  0  0  0  0
  1  2  1  0  0  0  0
  2  3  1  0  0  0  0
  2  4  1  0  0  0  0
  2  5  1  0  0  0  0
  5  6  2  0  0  0  0
  5  7  1  0  0  0  0
  7  8  1  0  0  0  0
  7  9  1  0  0  0  0
  9 10  1  0  0  0  0
  9 11  1  0  0  0  0
  9 29  1  0  0  0  0
 11 12  1  0  0  0  0
 11 13  1  0  0  0  0
 11 14  1  0  0  0  0
 14 15  1  0  0  0  0
 14 16  1  0  0  0  0
 14 17  1  0  0  0  0
 17 18  1  0  0  0  0
 17 19  1  0  0  0  0
 17 20  1  0  0  0  0
 20 21  1  0  0  0  0
 20 22  2  0  0  0  0
 22 23  1  0  0  0  0
 22 26  1  0  0  0  0
 23 24  1  0  0  0  0
 23 25  1  0  0  0  0
 26 27  1  0  0  0  0
 26 28  1  0  0  0  0
 29 30  2  0  0  0  0
 29 31  1  0  0  0  0
 31 32  1  0  0  0  0
 31 33  1  0  0  0  0
 33 34  1  0  0  0  0
 33 35  1  0  0  0  0
 33 36  1  0  0  0  0
M  CHG  1  20   1
M  END
$$$$

  -OEChem-02172215453D

 36 35  0     1  0  0  0  0  0999 V2000
   -3.7136   -2.0274    1.1967 H   0  0  0  0  0  0  0  0  0  0  0  0
   -3.7866   -0.9459    1.0507 C   0  0  0  0  0  0  0  0  0  0  0  0
   -3.9700   -0.4756    2.0197 H   0  0  0  0  0  0  0  0  0  0  0  0
   -4.6234   -0.7363    0.3811 H   0  0  0  0  0  0  0  0  0  0  0  0
   -2.4943   -0.4175    0.4597 C   0  0  0  0  0  0  0  0  0  0  0  0
   -1.6178   -1.1882    0.1038 O   0  0  0  0  0  0  0  0  0  0  0  0
   -2.3625    0.9162    0.1147 N   0  0  0  0  0  0  0  0  0  0  0  0
   -3.1907    1.4425    0.3693 H   0  0  0  0  0  0  0  0  0  0  0  0
   -1.0909    1.6474    0.3295 C   0  0  1  0  0  0  0  0  0  0  0  0
   -0.4700    1.4794   -0.5566 H   0  0  0  0  0  0  0  0  0  0  0  0
   -1.4599    3.1477    0.4021 C   0  0  0  0  0  0  0  0  0  0  0  0
   -2.2152    3.2981    1.1818 H   0  0  0  0  0  0  0  0  0  0  0  0
   -0.5825    3.7397    0.6795 H   0  0  0  0  0  0  0  0  0  0  0  0
   -1.9730    3.6727   -0.9489 C   0  0  0  0  0  0  0  0  0  0  0  0
   -1.1999    3.5319   -1.7125 H   0  0  0  0  0  0  0  0  0  0  0  0
   -2.8598    3.1094   -1.2592 H   0  0  0  0  0  0  0  0  0  0  0  0
   -2.3255    5.1549   -0.8350 C   0  0  0  0  0  0  0  0  0  0  0  0
   -3.0842    5.2839   -0.0549 H   0  0  0  0  0  0  0  0  0  0  0  0
   -1.4300    5.7160   -0.5454 H   0  0  0  0  0  0  0  0  0  0  0  0
   -2.8390    5.6471   -2.1271 N   0  3  0  0  0  0  0  0  0  0  0  0
   -2.8286    4.9943   -2.9103 H   0  0  0  0  0  0  0  0  0  0  0  0
   -3.2731    6.8600   -2.3180 C   0  0  0  0  0  0  0  0  0  0  0  0
   -3.2853    7.7941   -1.3070 N   0  0  0  0  0  0  0  0  0  0  0  0
   -2.7946    7.5727   -0.4432 H   0  0  0  0  0  0  0  0  0  0  0  0
   -3.4206    8.7748   -1.5451 H   0  0  0  0  0  0  0  0  0  0  0  0
   -3.7307    7.2284   -3.5609 N   0  0  0  0  0  0  0  0  0  0  0  0
   -3.8864    6.5075   -4.2631 H   0  0  0  0  0  0  0  0  0  0  0  0
   -4.2417    8.1046   -3.6540 H   0  0  0  0  0  0  0  0  0  0  0  0
   -0.1845    1.2176    1.5317 C   0  0  0  0  0  0  0  0  0  0  0  0
   -0.5852    0.4297    2.3778 O   0  0  0  0  0  0  0  0  0  0  0  0
    0.8419    2.0537    1.9470 N   0  0  0  0  0  0  0  0  0  0  0  0
    1.2124    2.7040    1.2620 H   0  0  0  0  0  0  0  0  0  0  0  0
    1.6170    1.8257    3.1649 C   0  0  0  0  0  0  0  0  0  0  0  0
    2.0797    0.8328    3.1460 H   0  0  0  0  0  0  0  0  0  0  0  0
    2.4098    2.5745    3.2568 H   0  0  0  0  0  0  0  0  0  0  0  0
    0.9741    1.8961    4.0491 H   0  0  0  0  0  0  0  0  0  0  0  0
  1  2  1  0  0  0  0
  2  3  1  0  0  0  0
  2  4  1  0  0  0  0
  2  5  1  0  0  0  0
  5  6  2  0  0  0  0
  5  7  1  0  0  0  0
  7  8  1  0  0  0  0
  7  9  1  0  0  0  0
  9 10  1  0  0  0  0
  9 11  1  0  0  0  0
  9 29  1  0  0  0  0
 11 12  1  0  0  0  0
 11 13  1  0  0  0  0
 11 14  1  0  0  0  0
 14 15  1  0  0  0  0
 14 16  1  0  0  0  0
 14 17  1  0  0  0  0
 17 18  1  0  0  0  0
 17 19  1  0  0  0  0
 17 20  1  0  0  0  0
 20 21  1  0  0  0  0
 20 22  2  0  0  0  0
 22 23  1  0  0  0  0
 22 26  1  0  0  0  0
 23 24  1  0  0  0  0
 23 25  1  0  0  0  0
 26 27  1  0  0  0  0
 26 28  1  0  0  0  0
 29 30  2  0  0  0  0
 29 31  1  0  0  0  0
 31 32  1  0  0  0  0
 31 33  1  0  0  0  0
 33 34  1  0  0  0  0
 33 35  1  0  0  0  0
 33 36  1  0  0  0  0
M  CHG  1  20   1
M  END
$$$$

  -OEChem-02172215453D

 36 35  0     1  0  0  0  0  0999 V2000
   -3.6660   -2.0123    1.2116 H   0  0  0  0  0  0  0  0  0  0  0  0
   -3.7548   -0.9305    1.0756 C   0  0  0  0  0  0  0  0  0  0  0  0
   -3.8949   -0.4670    2.0550 H   0  0  0  0  0  0  0  0  0  0  0  0
   -4.6244   -0.7237    0.4481 H   0  0  0  0  0  0  0  0  0  0  0  0
   -2.4968   -0.3898    0.4248 C   0  0  0  0  0  0  0  0  0  0  0  0
   -1.6847   -1.1521   -0.0710 O   0  0  0  0  0  0  0  0  0  0  0  0
   -2.3677    0.9576    0.1408 N   0  0  0  0  0  0  0  0  0  0  0  0
   -3.1958    1.4643    0.4329 H   0  0  0  0  0  0  0  0  0  0  0  0
   -1.1062    1.6994    0.3815 C   0  0  1  0  0  0  0  0  0  0  0  0
   -0.4826    1.5477   -0.5058 H   0  0  0  0  0  0  0  0  0  0  0  0
   -1.4897    3.1979    0.4474 C   0  0  0  0  0  0  0  0  0  0  0  0
   -2.2608    3.3460    1.2118 H   0  0  0  0  0  0  0  0  0  0  0  0
   -0.6225    3.8007    0.7316 H   0  0  0  0  0  0  0  0  0  0  0  0
   -1.9796    3.7089   -0.9189 C   0  0  0  0  0  0  0  0  0  0  0  0
   -1.1897    3.5670   -1.6650 H   0  0  0  0  0  0  0  0  0  0  0  0
   -2.8536    3.1332   -1.2424 H   0  0  0  0  0  0  0  0  0  0  0  0
   -2.3526    5.1885   -0.8341 C   0  0  0  0  0  0  0  0  0  0  0  0
   -3.1305    5.3213   -0.0739 H   0  0  0  0  0  0  0  0  0  0  0  0
   -1.4702    5.7650   -0.5347 H   0  0  0  0  0  0  0  0  0  0  0  0
   -2.8411    5.6514   -2.1466 N   0  3  0  0  0  0  0  0  0  0  0  0
   -2.7985    4.9864   -2.9184 H   0  0  0  0  0  0  0  0  0  0  0  0
   -3.2868    6.8543   -2.3714 C   0  0  0  0  0  0  0  0  0  0  0  0
   -3.3377    7.8088   -1.3809 N   0  0  0  0  0  0  0  0  0  0  0  0
   -2.8720    7.6098   -0.4983 H   0  0  0  0  0  0  0  0  0  0  0  0
   -3.4698    8.7833   -1.6456 H   0  0  0  0  0  0  0  0  0  0  0  0
   -3.7190    7.1925   -3.6317 N   0  0  0  0  0  0  0  0  0  0  0  0
   -3.8513    6.4544   -4.3208 H   0  0  0  0  0  0  0  0  0  0  0  0
   -4.2473    8.0555   -3.7503 H   0  0  0  0  0  0  0  0  0  0  0  0
   -0.1749    1.2479    1.5609 C   0  0  0  0  0  0  0  0  0  0  0  0
   -0.3106    0.1804    2.1381 O   0  0  0  0  0  0  0  0  0  0  0  0
    0.6241    2.1745    2.2155 N   0  0  0  0  0  0  0  0  0  0  0  0
    0.7807    3.0648    1.7567 H   0  0  0  0  0  0  0  0  0  0  0  0
    1.4365    1.8504    3.3867 C   0  0  0  0  0  0  0  0  0  0  0  0
    2.1372    1.0407    3.1552 H   0  0  0  0  0  0  0  0  0  0  0  0
    2.0123    2.7248    3.7047 H   0  0  0  0  0  0  0  0  0  0  0  0
    0.8006    1.5358    4.2212 H   0  0  0  0  0  0  0  0  0  0  0  0
  1  2  1  0  0  0  0
  2  3  1  0  0  0  0
  2  4  1  0  0  0  0
  2  5  1  0  0  0  0
  5  6  2  0  0  0  0
  5  7  1  0  0  0  0
  7  8  1  0  0  0  0
  7  9  1  0  0  0  0
  9 10  1  0  0  0  0
  9 11  1  0  0  0  0
  9 29  1  0  0  0  0
 11 12  1  0  0  0  0
 11 13  1  0  0  0  0
 11 14  1  0  0  0  0
 14 15  1  0  0  0  0
 14 16  1  0  0  0  0
 14 17  1  0  0  0  0
 17 18  1  0  0  0  0
 17 19  1  0  0  0  0
 17 20  1  0  0  0  0
 20 21  1  0  0  0  0
 20 22  2  0  0  0  0
 22 23  1  0  0  0  0
 22 26  1  0  0  0  0
 23 24  1  0  0  0  0
 23 25  1  0  0  0  0
 26 27  1  0  0  0  0
 26 28  1  0  0  0  0
 29 30  2  0  0  0  0
 29 31  1  0  0  0  0
 31 32  1  0  0  0  0
 31 33  1  0  0  0  0
 33 34  1  0  0  0  0
 33 35  1  0  0  0  0
 33 36  1  0  0  0  0
M  CHG  1  20   1
M  END
$$$$

  -OEChem-02172215453D

 36 35  0     1  0  0  0  0  0999 V2000
   -3.5795   -2.0085    1.2779 H   0  0  0  0  0  0  0  0  0  0  0  0
   -3.7017   -0.9331    1.1181 C   0  0  0  0  0  0  0  0  0  0  0  0
   -3.8241   -0.4495    2.0898 H   0  0  0  0  0  0  0  0  0  0  0  0
   -4.5960   -0.7646    0.5143 H   0  0  0  0  0  0  0  0  0  0  0  0
   -2.4801   -0.3769    0.4125 C   0  0  0  0  0  0  0  0  0  0  0  0
   -1.7124   -1.1295   -0.1593 O   0  0  0  0  0  0  0  0  0  0  0  0
   -2.3732    0.9775    0.1540 N   0  0  0  0  0  0  0  0  0  0  0  0
   -3.2100    1.4635    0.4567 H   0  0  0  0  0  0  0  0  0  0  0  0
   -1.1292    1.7427    0.4076 C   0  0  1  0  0  0  0  0  0  0  0  0
   -0.4963    1.6016   -0.4755 H   0  0  0  0  0  0  0  0  0  0  0  0
   -1.5145    3.2392    0.4686 C   0  0  0  0  0  0  0  0  0  0  0  0
   -2.2924    3.3916    1.2251 H   0  0  0  0  0  0  0  0  0  0  0  0
   -0.6440    3.8374    0.7546 H   0  0  0  0  0  0  0  0  0  0  0  0
   -1.9893    3.7419   -0.9066 C   0  0  0  0  0  0  0  0  0  0  0  0
   -1.1894    3.5982   -1.6422 H   0  0  0  0  0  0  0  0  0  0  0  0
   -2.8566    3.1600   -1.2375 H   0  0  0  0  0  0  0  0  0  0  0  0
   -2.3682    5.2211   -0.8402 C   0  0  0  0  0  0  0  0  0  0  0  0
   -3.1571    5.3582   -0.0919 H   0  0  0  0  0  0  0  0  0  0  0  0
   -1.4922    5.8039   -0.5346 H   0  0  0  0  0  0  0  0  0  0  0  0
   -2.8408    5.6673   -2.1650 N   0  3  0  0  0  0  0  0  0  0  0  0
   -2.7872    4.9920   -2.9273 H   0  0  0  0  0  0  0  0  0  0  0  0
   -3.2886    6.8650   -2.4133 C   0  0  0  0  0  0  0  0  0  0  0  0
   -3.3577    7.8327   -1.4371 N   0  0  0  0  0  0  0  0  0  0  0  0
   -2.8932    7.6508   -0.5502 H   0  0  0  0  0  0  0  0  0  0  0  0
   -3.4894    8.8023   -1.7190 H   0  0  0  0  0  0  0  0  0  0  0  0
   -3.7053    7.1833   -3.6843 N   0  0  0  0  0  0  0  0  0  0  0  0
   -3.8187    6.4369   -4.3678 H   0  0  0  0  0  0  0  0  0  0  0  0
   -4.2332    8.0430   -3.8244 H   0  0  0  0  0  0  0  0  0  0  0  0
   -0.2028    1.2758    1.5805 C   0  0  0  0  0  0  0  0  0  0  0  0
    0.0335    0.1019    1.8075 O   0  0  0  0  0  0  0  0  0  0  0  0
    0.3380    2.1906    2.4721 N   0  0  0  0  0  0  0  0  0  0  0  0
    0.1568    3.1752    2.3144 H   0  0  0  0  0  0  0  0  0  0  0  0
    1.1800    1.8088    3.6043 C   0  0  0  0  0  0  0  0  0  0  0  0
    2.0907    1.3109    3.2541 H   0  0  0  0  0  0  0  0  0  0  0  0
    1.4694    2.6932    4.1800 H   0  0  0  0  0  0  0  0  0  0  0  0
    0.6422    1.1259    4.2708 H   0  0  0  0  0  0  0  0  0  0  0  0
  1  2  1  0  0  0  0
  2  3  1  0  0  0  0
  2  4  1  0  0  0  0
  2  5  1  0  0  0  0
  5  6  2  0  0  0  0
  5  7  1  0  0  0  0
  7  8  1  0  0  0  0
  7  9  1  0  0  0  0
  9 10  1  0  0  0  0
  9 11  1  0  0  0  0
  9 29  1  0  0  0  0
 11 12  1  0  0  0  0
 11 13  1  0  0  0  0
 11 14  1  0  0  0  0
 14 15  1  0  0  0  0
 14 16  1  0  0  0  0
 14 17  1  0  0  0  0
 17 18  1  0  0  0  0
 17 19  1  0  0  0  0
 17 20  1  0  0  0  0
 20 21  1  0  0  0  0
 20 22  2  0  0  0  0
 22 23  1  0  0  0  0
 22 26  1  0  0  0  0
 23 24  1  0  0  0  0
 23 25  1  0  0  0  0
 26 27  1  0  0  0  0
 26 28  1  0  0  0  0
 29 30  2  0  0  0  0
 29 31  1  0  0  0  0
 31 32  1  0  0  0  0
 31 33  1  0  0  0  0
 33 34  1  0  0  0  0
 33 35  1  0  0  0  0
 33 36  1  0  0  0  0
M  CHG  1  20   1
M  END
$$$$

  -OEChem-02172215453D

 36 35  0     1  0  0  0  0  0999 V2000
   -3.9855   -2.0616    0.8178 H   0  0  0  0  0  0  0  0  0  0  0  0
   -3.9669   -1.0369    0.4348 C   0  0  0  0  0  0  0  0  0  0  0  0
   -4.8882   -0.5332    0.7360 H   0  0  0  0  0  0  0  0  0  0  0  0
   -3.9141   -1.0747   -0.6557 H   0  0  0  0  0  0  0  0  0  0  0  0
   -2.7644   -0.2982    0.9916 C   0  0  0  0  0  0  0  0  0  0  0  0
   -2.1458   -0.8038    1.9060 O   0  0  0  0  0  0  0  0  0  0  0  0
   -2.4979    0.9852    0.5386 N   0  0  0  0  0  0  0  0  0  0  0  0
   -3.1312    1.2791   -0.1953 H   0  0  0  0  0  0  0  0  0  0  0  0
   -1.1966    1.6976    0.5895 C   0  0  1  0  0  0  0  0  0  0  0  0
   -0.6437    1.4253   -0.3164 H   0  0  0  0  0  0  0  0  0  0  0  0
   -1.4861    3.2154    0.5325 C   0  0  0  0  0  0  0  0  0  0  0  0
   -2.1722    3.4835    1.3437 H   0  0  0  0  0  0  0  0  0  0  0  0
   -0.5526    3.7685    0.6841 H   0  0  0  0  0  0  0  0  0  0  0  0
   -2.0705    3.6536   -0.8198 C   0  0  0  0  0  0  0  0  0  0  0  0
   -1.3668    3.4033   -1.6219 H   0  0  0  0  0  0  0  0  0  0  0  0
   -3.0103    3.1263   -1.0121 H   0  0  0  0  0  0  0  0  0  0  0  0
   -2.3289    5.1604   -0.8025 C   0  0  0  0  0  0  0  0  0  0  0  0
   -3.0147    5.3960    0.0193 H   0  0  0  0  0  0  0  0  0  0  0  0
   -1.3819    5.6820   -0.6246 H   0  0  0  0  0  0  0  0  0  0  0  0
   -2.9121    5.5954   -2.0858 N   0  3  0  0  0  0  0  0  0  0  0  0
   -2.9912    4.8962   -2.8231 H   0  0  0  0  0  0  0  0  0  0  0  0
   -3.2860    6.8192   -2.3302 C   0  0  0  0  0  0  0  0  0  0  0  0
   -3.1621    7.8182   -1.3912 N   0  0  0  0  0  0  0  0  0  0  0  0
   -2.6146    7.6238   -0.5555 H   0  0  0  0  0  0  0  0  0  0  0  0
   -3.2467    8.7869   -1.6932 H   0  0  0  0  0  0  0  0  0  0  0  0
   -3.8160    7.1353   -3.5586 N   0  0  0  0  0  0  0  0  0  0  0  0
   -4.0685    6.3819   -4.1955 H   0  0  0  0  0  0  0  0  0  0  0  0
   -4.2857    8.0324   -3.6696 H   0  0  0  0  0  0  0  0  0  0  0  0
   -0.2172    1.3459    1.7498 C   0  0  0  0  0  0  0  0  0  0  0  0
    0.5173    0.3813    1.5899 O   0  0  0  0  0  0  0  0  0  0  0  0
    0.2069    2.2950    2.6690 N   0  0  0  0  0  0  0  0  0  0  0  0
   -0.4278    3.0645    2.8514 H   0  0  0  0  0  0  0  0  0  0  0  0
    1.2517    2.0211    3.6531 C   0  0  0  0  0  0  0  0  0  0  0  0
    2.2054    1.8154    3.1549 H   0  0  0  0  0  0  0  0  0  0  0  0
    1.3886    2.8829    4.3134 H   0  0  0  0  0  0  0  0  0  0  0  0
    0.9829    1.1538    4.2662 H   0  0  0  0  0  0  0  0  0  0  0  0
  1  2  1  0  0  0  0
  2  3  1  0  0  0  0
  2  4  1  0  0  0  0
  2  5  1  0  0  0  0
  5  6  2  0  0  0  0
  5  7  1  0  0  0  0
  7  8  1  0  0  0  0
  7  9  1  0  0  0  0
  9 10  1  0  0  0  0
  9 11  1  0  0  0  0
  9 29  1  0  0  0  0
 11 12  1  0  0  0  0
 11 13  1  0  0  0  0
 11 14  1  0  0  0  0
 14 15  1  0  0  0  0
 14 16  1  0  0  0  0
 14 17  1  0  0  0  0
 17 18  1  0  0  0  0
 17 19  1  0  0  0  0
 17 20  1  0  0  0  0
 20 21  1  0  0  0  0
 20 22  2  0  0  0  0
 22 23  1  0  0  0  0
 22 26  1  0  0  0  0
 23 24  1  0  0  0  0
 23 25  1  0  0  0  0
 26 27  1  0  0  0  0
 26 28  1  0  0  0  0
 29 30  2  0  0  0  0
 29 31  1  0  0  0  0
 31 32  1  0  0  0  0
 31 33  1  0  0  0  0
 33 34  1  0  0  0  0
 33 35  1  0  0  0  0
 33 36  1  0  0  0  0
M  CHG  1  20   1
M  END
$$$$

  -OEChem-02172215453D

 36 35  0     1  0  0  0  0  0999 V2000
   -4.0230   -2.0498    0.8677 H   0  0  0  0  0  0  0  0  0  0  0  0
   -4.0063   -1.0176    0.5046 C   0  0  0  0  0  0  0  0  0  0  0  0
   -4.8517   -0.4796    0.9395 H   0  0  0  0  0  0  0  0  0  0  0  0
   -4.1057   -1.0294   -0.5833 H   0  0  0  0  0  0  0  0  0  0  0  0
   -2.7041   -0.3487    0.9021 C   0  0  0  0  0  0  0  0  0  0  0  0
   -1.9371   -0.9501    1.6260 O   0  0  0  0  0  0  0  0  0  0  0  0
   -2.4637    0.9504    0.4815 N   0  0  0  0  0  0  0  0  0  0  0  0
   -3.1780    1.3244   -0.1319 H   0  0  0  0  0  0  0  0  0  0  0  0
   -1.1848    1.6963    0.5585 C   0  0  1  0  0  0  0  0  0  0  0  0
   -0.6197    1.4472   -0.3466 H   0  0  0  0  0  0  0  0  0  0  0  0
   -1.4840    3.2108    0.5224 C   0  0  0  0  0  0  0  0  0  0  0  0
   -2.1858    3.4616    1.3255 H   0  0  0  0  0  0  0  0  0  0  0  0
   -0.5550    3.7639    0.7033 H   0  0  0  0  0  0  0  0  0  0  0  0
   -2.0534    3.6613   -0.8318 C   0  0  0  0  0  0  0  0  0  0  0  0
   -1.3354    3.4269   -1.6261 H   0  0  0  0  0  0  0  0  0  0  0  0
   -2.9843    3.1263   -1.0447 H   0  0  0  0  0  0  0  0  0  0  0  0
   -2.3260    5.1651   -0.8034 C   0  0  0  0  0  0  0  0  0  0  0  0
   -3.0260    5.3873    0.0099 H   0  0  0  0  0  0  0  0  0  0  0  0
   -1.3867    5.6946   -0.6074 H   0  0  0  0  0  0  0  0  0  0  0  0
   -2.8949    5.6018   -2.0926 N   0  3  0  0  0  0  0  0  0  0  0  0
   -2.9547    4.9058   -2.8347 H   0  0  0  0  0  0  0  0  0  0  0  0
   -3.2786    6.8224   -2.3369 C   0  0  0  0  0  0  0  0  0  0  0  0
   -3.1804    7.8188   -1.3923 N   0  0  0  0  0  0  0  0  0  0  0  0
   -2.6356    7.6284   -0.5538 H   0  0  0  0  0  0  0  0  0  0  0  0
   -3.2702    8.7875   -1.6936 H   0  0  0  0  0  0  0  0  0  0  0  0
   -3.7937    7.1364   -3.5722 N   0  0  0  0  0  0  0  0  0  0  0  0
   -4.0261    6.3833   -4.2170 H   0  0  0  0  0  0  0  0  0  0  0  0
   -4.2642    8.0319   -3.6928 H   0  0  0  0  0  0  0  0  0  0  0  0
   -0.2132    1.3439    1.7210 C   0  0  0  0  0  0  0  0  0  0  0  0
    0.6990    0.5643    1.4851 O   0  0  0  0  0  0  0  0  0  0  0  0
   -0.0681    2.1759    2.8209 N   0  0  0  0  0  0  0  0  0  0  0  0
   -0.8685    2.7518    3.0579 H   0  0  0  0  0  0  0  0  0  0  0  0
    0.9274    1.9261    3.8604 C   0  0  0  0  0  0  0  0  0  0  0  0
    1.9403    2.0084    3.4516 H   0  0  0  0  0  0  0  0  0  0  0  0
    0.8234    2.6550    4.6698 H   0  0  0  0  0  0  0  0  0  0  0  0
    0.8003    0.9222    4.2801 H   0  0  0  0  0  0  0  0  0  0  0  0
  1  2  1  0  0  0  0
  2  3  1  0  0  0  0
  2  4  1  0  0  0  0
  2  5  1  0  0  0  0
  5  6  2  0  0  0  0
  5  7  1  0  0  0  0
  7  8  1  0  0  0  0
  7  9  1  0  0  0  0
  9 10  1  0  0  0  0
  9 11  1  0  0  0  0
  9 29  1  0  0  0  0
 11 12  1  0  0  0  0
 11 13  1  0  0  0  0
 11 14  1  0  0  0  0
 14 15  1  0  0  0  0
 14 16  1  0  0  0  0
 14 17  1  0  0  0  0
 17 18  1  0  0  0  0
 17 19  1  0  0  0  0
 17 20  1  0  0  0  0
 20 21  1  0  0  0  0
 20 22  2  0  0  0  0
 22 23  1  0  0  0  0
 22 26  1  0  0  0  0
 23 24  1  0  0  0  0
 23 25  1  0  0  0  0
 26 27  1  0  0  0  0
 26 28  1  0  0  0  0
 29 30  2  0  0  0  0
 29 31  1  0  0  0  0
 31 32  1  0  0  0  0
 31 33  1  0  0  0  0
 33 34  1  0  0  0  0
 33 35  1  0  0  0  0
 33 36  1  0  0  0  0
M  CHG  1  20   1
M  END
$$$$

  -OEChem-02172215453D

 36 35  0     1  0  0  0  0  0999 V2000
   -4.0032   -2.0699    0.9249 H   0  0  0  0  0  0  0  0  0  0  0  0
   -4.0013   -1.0419    0.5500 C   0  0  0  0  0  0  0  0  0  0  0  0
   -4.8215   -0.4960    1.0218 H   0  0  0  0  0  0  0  0  0  0  0  0
   -4.1567   -1.0652   -0.5310 H   0  0  0  0  0  0  0  0  0  0  0  0
   -2.6776   -0.3742    0.8724 C   0  0  0  0  0  0  0  0  0  0  0  0
   -1.8542   -0.9865    1.5228 O   0  0  0  0  0  0  0  0  0  0  0  0
   -2.4586    0.9270    0.4477 N   0  0  0  0  0  0  0  0  0  0  0  0
   -3.2052    1.3214   -0.1126 H   0  0  0  0  0  0  0  0  0  0  0  0
   -1.1903    1.6880    0.5314 C   0  0  1  0  0  0  0  0  0  0  0  0
   -0.6191    1.4431   -0.3714 H   0  0  0  0  0  0  0  0  0  0  0  0
   -1.4888    3.2010    0.5019 C   0  0  0  0  0  0  0  0  0  0  0  0
   -2.1945    3.4485    1.3025 H   0  0  0  0  0  0  0  0  0  0  0  0
   -0.5599    3.7506    0.6947 H   0  0  0  0  0  0  0  0  0  0  0  0
   -2.0528    3.6581   -0.8517 C   0  0  0  0  0  0  0  0  0  0  0  0
   -1.3312    3.4287   -1.6444 H   0  0  0  0  0  0  0  0  0  0  0  0
   -2.9825    3.1237   -1.0712 H   0  0  0  0  0  0  0  0  0  0  0  0
   -2.3242    5.1618   -0.8134 C   0  0  0  0  0  0  0  0  0  0  0  0
   -3.0261    5.3778   -0.0001 H   0  0  0  0  0  0  0  0  0  0  0  0
   -1.3847    5.6880   -0.6100 H   0  0  0  0  0  0  0  0  0  0  0  0
   -2.8881    5.6126   -2.1000 N   0  3  0  0  0  0  0  0  0  0  0  0
   -2.9397    4.9269   -2.8524 H   0  0  0  0  0  0  0  0  0  0  0  0
   -3.2681    6.8371   -2.3308 C   0  0  0  0  0  0  0  0  0  0  0  0
   -3.1694    7.8206   -1.3727 N   0  0  0  0  0  0  0  0  0  0  0  0
   -2.6362    7.6134   -0.5306 H   0  0  0  0  0  0  0  0  0  0  0  0
   -3.2456    8.7939   -1.6628 H   0  0  0  0  0  0  0  0  0  0  0  0
   -3.7740    7.1715   -3.5648 N   0  0  0  0  0  0  0  0  0  0  0  0
   -4.0025    6.4295   -4.2236 H   0  0  0  0  0  0  0  0  0  0  0  0
   -4.2420    8.0698   -3.6743 H   0  0  0  0  0  0  0  0  0  0  0  0
   -0.2265    1.3500    1.7009 C   0  0  0  0  0  0  0  0  0  0  0  0
    0.8228    0.7804    1.4353 O   0  0  0  0  0  0  0  0  0  0  0  0
   -0.3219    2.0066    2.9174 N   0  0  0  0  0  0  0  0  0  0  0  0
   -1.2377    2.3710    3.1577 H   0  0  0  0  0  0  0  0  0  0  0  0
    0.6240    1.7642    4.0030 C   0  0  0  0  0  0  0  0  0  0  0  0
    1.6370    2.0525    3.7020 H   0  0  0  0  0  0  0  0  0  0  0  0
    0.3485    2.3490    4.8859 H   0  0  0  0  0  0  0  0  0  0  0  0
    0.6286    0.7034    4.2770 H   0  0  0  0  0  0  0  0  0  0  0  0
  1  2  1  0  0  0  0
  2  3  1  0  0  0  0
  2  4  1  0  0  0  0
  2  5  1  0  0  0  0
  5  6  2  0  0  0  0
  5  7  1  0  0  0  0
  7  8  1  0  0  0  0
  7  9  1  0  0  0  0
  9 10  1  0  0  0  0
  9 11  1  0  0  0  0
  9 29  1  0  0  0  0
 11 12  1  0  0  0  0
 11 13  1  0  0  0  0
 11 14  1  0  0  0  0
 14 15  1  0  0  0  0
 14 16  1  0  0  0  0
 14 17  1  0  0  0  0
 17 18  1  0  0  0  0
 17 19  1  0  0  0  0
 17 20  1  0  0  0  0
 20 21  1  0  0  0  0
 20 22  2  0  0  0  0
 22 23  1  0  0  0  0
 22 26  1  0  0  0  0
 23 24  1  0  0  0  0
 23 25  1  0  0  0  0
 26 27  1  0  0  0  0
 26 28  1  0  0  0  0
 29 30  2  0  0  0  0
 29 31  1  0  0  0  0
 31 32  1  0  0  0  0
 31 33  1  0  0  0  0
 33 34  1  0  0  0  0
 33 35  1  0  0  0  0
 33 36  1  0  0  0  0
M  CHG  1  20   1
M  END
$$$$

  -OEChem-02172215453D

 36 35  0     1  0  0  0  0  0999 V2000
   -3.9926   -2.0916    0.9474 H   0  0  0  0  0  0  0  0  0  0  0  0
   -3.9996   -1.0668    0.5639 C   0  0  0  0  0  0  0  0  0  0  0  0
   -4.8179   -0.5210    1.0392 H   0  0  0  0  0  0  0  0  0  0  0  0
   -4.1662   -1.1006   -0.5152 H   0  0  0  0  0  0  0  0  0  0  0  0
   -2.6760   -0.3894    0.8653 C   0  0  0  0  0  0  0  0  0  0  0  0
   -1.8366   -0.9935    1.5039 O   0  0  0  0  0  0  0  0  0  0  0  0
   -2.4647    0.9085    0.4272 N   0  0  0  0  0  0  0  0  0  0  0  0
   -3.2170    1.3012   -0.1270 H   0  0  0  0  0  0  0  0  0  0  0  0
   -1.1996    1.6746    0.5107 C   0  0  1  0  0  0  0  0  0  0  0  0
   -0.6248    1.4265   -0.3890 H   0  0  0  0  0  0  0  0  0  0  0  0
   -1.4918    3.1875    0.4859 C   0  0  0  0  0  0  0  0  0  0  0  0
   -2.1946    3.4345    1.2892 H   0  0  0  0  0  0  0  0  0  0  0  0
   -0.5599    3.7313    0.6811 H   0  0  0  0  0  0  0  0  0  0  0  0
   -2.0558    3.6537   -0.8638 C   0  0  0  0  0  0  0  0  0  0  0  0
   -1.3367    3.4258   -1.6588 H   0  0  0  0  0  0  0  0  0  0  0  0
   -2.9881    3.1247   -1.0848 H   0  0  0  0  0  0  0  0  0  0  0  0
   -2.3189    5.1585   -0.8143 C   0  0  0  0  0  0  0  0  0  0  0  0
   -3.0179    5.3722    0.0022 H   0  0  0  0  0  0  0  0  0  0  0  0
   -1.3761    5.6778   -0.6086 H   0  0  0  0  0  0  0  0  0  0  0  0
   -2.8829    5.6212   -2.0964 N   0  3  0  0  0  0  0  0  0  0  0  0
   -2.9386    4.9412   -2.8536 H   0  0  0  0  0  0  0  0  0  0  0  0
   -3.2566    6.8493   -2.3176 C   0  0  0  0  0  0  0  0  0  0  0  0
   -3.1508    7.8257   -1.3531 N   0  0  0  0  0  0  0  0  0  0  0  0
   -2.6159    7.6107   -0.5141 H   0  0  0  0  0  0  0  0  0  0  0  0
   -3.2250    8.8012   -1.6358 H   0  0  0  0  0  0  0  0  0  0  0  0
   -3.7615    7.1936   -3.5489 N   0  0  0  0  0  0  0  0  0  0  0  0
   -3.9947    6.4567   -4.2117 H   0  0  0  0  0  0  0  0  0  0  0  0
   -4.2238    8.0952   -3.6531 H   0  0  0  0  0  0  0  0  0  0  0  0
   -0.2421    1.3539    1.6868 C   0  0  0  0  0  0  0  0  0  0  0  0
    0.9078    1.0303    1.4232 O   0  0  0  0  0  0  0  0  0  0  0  0
   -0.5328    1.7864    2.9696 N   0  0  0  0  0  0  0  0  0  0  0  0
   -1.5183    1.9072    3.1797 H   0  0  0  0  0  0  0  0  0  0  0  0
    0.3762    1.5462    4.0864 C   0  0  0  0  0  0  0  0  0  0  0  0
    1.3395    2.0378    3.9120 H   0  0  0  0  0  0  0  0  0  0  0  0
   -0.0478    1.9418    5.0142 H   0  0  0  0  0  0  0  0  0  0  0  0
    0.5493    0.4719    4.2141 H   0  0  0  0  0  0  0  0  0  0  0  0
  1  2  1  0  0  0  0
  2  3  1  0  0  0  0
  2  4  1  0  0  0  0
  2  5  1  0  0  0  0
  5  6  2  0  0  0  0
  5  7  1  0  0  0  0
  7  8  1  0  0  0  0
  7  9  1  0  0  0  0
  9 10  1  0  0  0  0
  9 11  1  0  0  0  0
  9 29  1  0  0  0  0
 11 12  1  0  0  0  0
 11 13  1  0  0  0  0
 11 14  1  0  0  0  0
 14 15  1  0  0  0  0
 14 16  1  0  0  0  0
 14 17  1  0  0  0  0
 17 18  1  0  0  0  0
 17 19  1  0  0  0  0
 17 20  1  0  0  0  0
 20 21  1  0  0  0  0
 20 22  2  0  0  0  0
 22 23  1  0  0  0  0
 22 26  1  0  0  0  0
 23 24  1  0  0  0  0
 23 25  1  0  0  0  0
 26 27  1  0  0  0  0
 26 28  1  0  0  0  0
 29 30  2  0  0  0  0
 29 31  1  0  0  0  0
 31 32  1  0  0  0  0
 31 33  1  0  0  0  0
 33 34  1  0  0  0  0
 33 35  1  0  0  0  0
 33 36  1  0  0  0  0
M  CHG  1  20   1
M  END
$$$$

  -OEChem-02172215453D

 36 35  0     1  0  0  0  0  0999 V2000
   -4.0072   -2.0960    0.9562 H   0  0  0  0  0  0  0  0  0  0  0  0
   -4.0126   -1.0737    0.5663 C   0  0  0  0  0  0  0  0  0  0  0  0
   -4.8217   -0.5198    1.0479 H   0  0  0  0  0  0  0  0  0  0  0  0
   -4.1930   -1.1125   -0.5104 H   0  0  0  0  0  0  0  0  0  0  0  0
   -2.6815   -0.4027    0.8481 C   0  0  0  0  0  0  0  0  0  0  0  0
   -1.8337   -1.0092    1.4736 O   0  0  0  0  0  0  0  0  0  0  0  0
   -2.4664    0.8917    0.4032 N   0  0  0  0  0  0  0  0  0  0  0  0
   -3.2239    1.2927   -0.1382 H   0  0  0  0  0  0  0  0  0  0  0  0
   -1.2033    1.6606    0.4947 C   0  0  1  0  0  0  0  0  0  0  0  0
   -0.6198    1.4128   -0.3991 H   0  0  0  0  0  0  0  0  0  0  0  0
   -1.4959    3.1728    0.4746 C   0  0  0  0  0  0  0  0  0  0  0  0
   -2.2009    3.4152    1.2776 H   0  0  0  0  0  0  0  0  0  0  0  0
   -0.5656    3.7172    0.6764 H   0  0  0  0  0  0  0  0  0  0  0  0
   -2.0549    3.6452   -0.8746 C   0  0  0  0  0  0  0  0  0  0  0  0
   -1.3326    3.4216   -1.6678 H   0  0  0  0  0  0  0  0  0  0  0  0
   -2.9867    3.1180   -1.1015 H   0  0  0  0  0  0  0  0  0  0  0  0
   -2.3168    5.1493   -0.8158 C   0  0  0  0  0  0  0  0  0  0  0  0
   -3.0177    5.3582    0.0003 H   0  0  0  0  0  0  0  0  0  0  0  0
   -1.3737    5.6658   -0.6039 H   0  0  0  0  0  0  0  0  0  0  0  0
   -2.8767    5.6234   -2.0954 N   0  3  0  0  0  0  0  0  0  0  0  0
   -2.9344    4.9492   -2.8576 H   0  0  0  0  0  0  0  0  0  0  0  0
   -3.2473    6.8542   -2.3060 C   0  0  0  0  0  0  0  0  0  0  0  0
   -3.1415    7.8213   -1.3321 N   0  0  0  0  0  0  0  0  0  0  0  0
   -2.6051    7.5976   -0.4962 H   0  0  0  0  0  0  0  0  0  0  0  0
   -3.2085    8.7993   -1.6077 H   0  0  0  0  0  0  0  0  0  0  0  0
   -3.7523    7.2117   -3.5336 N   0  0  0  0  0  0  0  0  0  0  0  0
   -3.9870    6.4814   -4.2031 H   0  0  0  0  0  0  0  0  0  0  0  0
   -4.2161    8.1138   -3.6268 H   0  0  0  0  0  0  0  0  0  0  0  0
   -0.2539    1.3572    1.6800 C   0  0  0  0  0  0  0  0  0  0  0  0
    0.9474    1.3002    1.4544 O   0  0  0  0  0  0  0  0  0  0  0  0
   -0.6856    1.5214    2.9847 N   0  0  0  0  0  0  0  0  0  0  0  0
   -1.6817    1.3875    3.1283 H   0  0  0  0  0  0  0  0  0  0  0  0
    0.1984    1.2779    4.1200 C   0  0  0  0  0  0  0  0  0  0  0  0
    1.0635    1.9484    4.0855 H   0  0  0  0  0  0  0  0  0  0  0  0
   -0.3335    1.4526    5.0603 H   0  0  0  0  0  0  0  0  0  0  0  0
    0.5565    0.2427    4.1104 H   0  0  0  0  0  0  0  0  0  0  0  0
  1  2  1  0  0  0  0
  2  3  1  0  0  0  0
  2  4  1  0  0  0  0
  2  5  1  0  0  0  0
  5  6  2  0  0  0  0
  5  7  1  0  0  0  0
  7  8  1  0  0  0  0
  7  9  1  0  0  0  0
  9 10  1  0  0  0  0
  9 11  1  0  0  0  0
  9 29  1  0  0  0  0
 11 12  1  0  0  0  0
 11 13  1  0  0  0  0
 11 14  1  0  0  0  0
 14 15  1  0  0  0  0
 14 16  1  0  0  0  0
 14 17  1  0  0  0  0
 17 18  1  0  0  0  0
 17 19  1  0  0  0  0
 17 20  1  0  0  0  0
 20 21  1  0  0  0  0
 20 22  2  0  0  0  0
 22 23  1  0  0  0  0
 22 26  1  0  0  0  0
 23 24  1  0  0  0  0
 23 25  1  0  0  0  0
 26 27  1  0  0  0  0
 26 28  1  0  0  0  0
 29 30  2  0  0  0  0
 29 31  1  0  0  0  0
 31 32  1  0  0  0  0
 31 33  1  0  0  0  0
 33 34  1  0  0  0  0
 33 35  1  0  0  0  0
 33 36  1  0  0  0  0
M  CHG  1  20   1
M  END
$$$$

  -OEChem-02172215453D

 36 35  0     1  0  0  0  0  0999 V2000
   -4.0644   -2.0762    0.9398 H   0  0  0  0  0  0  0  0  0  0  0  0
   -4.0532   -1.0517    0.5555 C   0  0  0  0  0  0  0  0  0  0  0  0
   -4.8393   -0.4819    1.0564 H   0  0  0  0  0  0  0  0  0  0  0  0
   -4.2559   -1.0799   -0.5175 H   0  0  0  0  0  0  0  0  0  0  0  0
   -2.7015   -0.4133    0.8129 C   0  0  0  0  0  0  0  0  0  0  0  0
   -1.8517   -1.0431    1.4121 O   0  0  0  0  0  0  0  0  0  0  0  0
   -2.4657    0.8789    0.3741 N   0  0  0  0  0  0  0  0  0  0  0  0
   -3.2317    1.3084   -0.1329 H   0  0  0  0  0  0  0  0  0  0  0  0
   -1.2021    1.6457    0.4884 C   0  0  1  0  0  0  0  0  0  0  0  0
   -0.6043    1.4021   -0.3969 H   0  0  0  0  0  0  0  0  0  0  0  0
   -1.5071    3.1562    0.4700 C   0  0  0  0  0  0  0  0  0  0  0  0
   -2.2236    3.3883    1.2656 H   0  0  0  0  0  0  0  0  0  0  0  0
   -0.5857    3.7097    0.6866 H   0  0  0  0  0  0  0  0  0  0  0  0
   -2.0501    3.6333   -0.8842 C   0  0  0  0  0  0  0  0  0  0  0  0
   -1.3144    3.4208   -1.6683 H   0  0  0  0  0  0  0  0  0  0  0  0
   -2.9749    3.1018   -1.1287 H   0  0  0  0  0  0  0  0  0  0  0  0
   -2.3228    5.1352   -0.8160 C   0  0  0  0  0  0  0  0  0  0  0  0
   -3.0357    5.3322   -0.0074 H   0  0  0  0  0  0  0  0  0  0  0  0
   -1.3859    5.6553   -0.5863 H   0  0  0  0  0  0  0  0  0  0  0  0
   -2.8679    5.6194   -2.0980 N   0  3  0  0  0  0  0  0  0  0  0  0
   -2.9103    4.9540   -2.8689 H   0  0  0  0  0  0  0  0  0  0  0  0
   -3.2427    6.8507   -2.2987 C   0  0  0  0  0  0  0  0  0  0  0  0
   -3.1548    7.8054   -1.3107 N   0  0  0  0  0  0  0  0  0  0  0  0
   -2.6287    7.5726   -0.4707 H   0  0  0  0  0  0  0  0  0  0  0  0
   -3.2229    8.7866   -1.5739 H   0  0  0  0  0  0  0  0  0  0  0  0
   -3.7327    7.2212   -3.5286 N   0  0  0  0  0  0  0  0  0  0  0  0
   -3.9535    6.4984   -4.2108 H   0  0  0  0  0  0  0  0  0  0  0  0
   -4.1986    8.1227   -3.6177 H   0  0  0  0  0  0  0  0  0  0  0  0
   -0.2604    1.3586    1.6855 C   0  0  0  0  0  0  0  0  0  0  0  0
    0.9377    1.5538    1.5273 O   0  0  0  0  0  0  0  0  0  0  0  0
   -0.7579    1.2280    2.9699 N   0  0  0  0  0  0  0  0  0  0  0  0
   -1.6977    0.8439    3.0168 H   0  0  0  0  0  0  0  0  0  0  0  0
    0.1206    0.9764    4.1074 C   0  0  0  0  0  0  0  0  0  0  0  0
    0.8385    1.7947    4.2294 H   0  0  0  0  0  0  0  0  0  0  0  0
   -0.4650    0.8940    5.0280 H   0  0  0  0  0  0  0  0  0  0  0  0
    0.6735    0.0417    3.9635 H   0  0  0  0  0  0  0  0  0  0  0  0
  1  2  1  0  0  0  0
  2  3  1  0  0  0  0
  2  4  1  0  0  0  0
  2  5  1  0  0  0  0
  5  6  2  0  0  0  0
  5  7  1  0  0  0  0
  7  8  1  0  0  0  0
  7  9  1  0  0  0  0
  9 10  1  0  0  0  0
  9 11  1  0  0  0  0
  9 29  1  0  0  0  0
 11 12  1  0  0  0  0
 11 13  1  0  0  0  0
 11 14  1  0  0  0  0
 14 15  1  0  0  0  0
 14 16  1  0  0  0  0
 14 17  1  0  0  0  0
 17 18  1  0  0  0  0
 17 19  1  0  0  0  0
 17 20  1  0  0  0  0
 20 21  1  0  0  0  0
 20 22  2  0  0  0  0
 22 23  1  0  0  0  0
 22 26  1  0  0  0  0
 23 24  1  0  0  0  0
 23 25  1  0  0  0  0
 26 27  1  0  0  0  0
 26 28  1  0  0  0  0
 29 30  2  0  0  0  0
 29 31  1  0  0  0  0
 31 32  1  0  0  0  0
 31 33  1  0  0  0  0
 33 34  1  0  0  0  0
 33 35  1  0  0  0  0
 33 36  1  0  0  0  0
M  CHG  1  20   1
M  END
$$$$

  -OEChem-02172215453D

 36 35  0     1  0  0  0  0  0999 V2000
   -4.1493   -2.0428    0.8988 H   0  0  0  0  0  0  0  0  0  0  0  0
   -4.1159   -1.0123    0.5325 C   0  0  0  0  0  0  0  0  0  0  0  0
   -4.8654   -0.4255    1.0685 H   0  0  0  0  0  0  0  0  0  0  0  0
   -4.3547   -1.0136   -0.5334 H   0  0  0  0  0  0  0  0  0  0  0  0
   -2.7352   -0.4252    0.7561 C   0  0  0  0  0  0  0  0  0  0  0  0
   -1.8813   -1.1039    1.2934 O   0  0  0  0  0  0  0  0  0  0  0  0
   -2.4702    0.8687    0.3419 N   0  0  0  0  0  0  0  0  0  0  0  0
   -3.2521    1.3469   -0.0918 H   0  0  0  0  0  0  0  0  0  0  0  0
   -1.2040    1.6291    0.4898 C   0  0  1  0  0  0  0  0  0  0  0  0
   -0.5928    1.3945   -0.3888 H   0  0  0  0  0  0  0  0  0  0  0  0
   -1.5239    3.1389    0.4755 C   0  0  0  0  0  0  0  0  0  0  0  0
   -2.2584    3.3574    1.2585 H   0  0  0  0  0  0  0  0  0  0  0  0
   -0.6151    3.7039    0.7139 H   0  0  0  0  0  0  0  0  0  0  0  0
   -2.0432    3.6241   -0.8852 C   0  0  0  0  0  0  0  0  0  0  0  0
   -1.2901    3.4262   -1.6561 H   0  0  0  0  0  0  0  0  0  0  0  0
   -2.9577    3.0871   -1.1548 H   0  0  0  0  0  0  0  0  0  0  0  0
   -2.3308    5.1232   -0.8077 C   0  0  0  0  0  0  0  0  0  0  0  0
   -3.0621    5.3067   -0.0126 H   0  0  0  0  0  0  0  0  0  0  0  0
   -1.4040    5.6502   -0.5536 H   0  0  0  0  0  0  0  0  0  0  0  0
   -2.8538    5.6140   -2.0962 N   0  3  0  0  0  0  0  0  0  0  0  0
   -2.8742    4.9546   -2.8729 H   0  0  0  0  0  0  0  0  0  0  0  0
   -3.2360    6.8432   -2.2951 C   0  0  0  0  0  0  0  0  0  0  0  0
   -3.1781    7.7916   -1.2987 N   0  0  0  0  0  0  0  0  0  0  0  0
   -2.6636    7.5595   -0.4512 H   0  0  0  0  0  0  0  0  0  0  0  0
   -3.2552    8.7738   -1.5558 H   0  0  0  0  0  0  0  0  0  0  0  0
   -3.7057    7.2168   -3.5318 N   0  0  0  0  0  0  0  0  0  0  0  0
   -3.9080    6.4959   -4.2221 H   0  0  0  0  0  0  0  0  0  0  0  0
   -4.1783    8.1145   -3.6240 H   0  0  0  0  0  0  0  0  0  0  0  0
   -0.2657    1.3469    1.6958 C   0  0  0  0  0  0  0  0  0  0  0  0
    0.8848    1.7612    1.6258 O   0  0  0  0  0  0  0  0  0  0  0  0
   -0.7461    0.9126    2.9180 N   0  0  0  0  0  0  0  0  0  0  0  0
   -1.5680    0.3157    2.8422 H   0  0  0  0  0  0  0  0  0  0  0  0
    0.1424    0.6665    4.0492 C   0  0  0  0  0  0  0  0  0  0  0  0
    0.6687    1.5836    4.3339 H   0  0  0  0  0  0  0  0  0  0  0  0
   -0.4328    0.3192    4.9127 H   0  0  0  0  0  0  0  0  0  0  0  0
    0.8834   -0.0991    3.7951 H   0  0  0  0  0  0  0  0  0  0  0  0
  1  2  1  0  0  0  0
  2  3  1  0  0  0  0
  2  4  1  0  0  0  0
  2  5  1  0  0  0  0
  5  6  2  0  0  0  0
  5  7  1  0  0  0  0
  7  8  1  0  0  0  0
  7  9  1  0  0  0  0
  9 10  1  0  0  0  0
  9 11  1  0  0  0  0
  9 29  1  0  0  0  0
 11 12  1  0  0  0  0
 11 13  1  0  0  0  0
 11 14  1  0  0  0  0
 14 15  1  0  0  0  0
 14 16  1  0  0  0  0
 14 17  1  0  0  0  0
 17 18  1  0  0  0  0
 17 19  1  0  0  0  0
 17 20  1  0  0  0  0
 20 21  1  0  0  0  0
 20 22  2  0  0  0  0
 22 23  1  0  0  0  0
 22 26  1  0  0  0  0
 23 24  1  0  0  0  0
 23 25  1  0  0  0  0
 26 27  1  0  0  0  0
 26 28  1  0  0  0  0
 29 30  2  0  0  0  0
 29 31  1  0  0  0  0
 31 32  1  0  0  0  0
 31 33  1  0  0  0  0
 33 34  1  0  0  0  0
 33 35  1  0  0  0  0
 33 36  1  0  0  0  0
M  CHG  1  20   1
M  END
$$$$

  -OEChem-02172215453D

 36 35  0     1  0  0  0  0  0999 V2000
   -4.2207   -1.9927    0.9100 H   0  0  0  0  0  0  0  0  0  0  0  0
   -4.1666   -0.9630    0.5439 C   0  0  0  0  0  0  0  0  0  0  0  0
   -4.8527   -0.3474    1.1306 H   0  0  0  0  0  0  0  0  0  0  0  0
   -4.4751   -0.9484   -0.5042 H   0  0  0  0  0  0  0  0  0  0  0  0
   -2.7499   -0.4371    0.6750 C   0  0  0  0  0  0  0  0  0  0  0  0
   -1.8738   -1.1814    1.0727 O   0  0  0  0  0  0  0  0  0  0  0  0
   -2.4694    0.8656    0.3020 N   0  0  0  0  0  0  0  0  0  0  0  0
   -3.2801    1.4012    0.0115 H   0  0  0  0  0  0  0  0  0  0  0  0
   -1.2064    1.6218    0.4954 C   0  0  1  0  0  0  0  0  0  0  0  0
   -0.5776    1.4027   -0.3744 H   0  0  0  0  0  0  0  0  0  0  0  0
   -1.5493    3.1290    0.4828 C   0  0  0  0  0  0  0  0  0  0  0  0
   -2.3098    3.3291    1.2454 H   0  0  0  0  0  0  0  0  0  0  0  0
   -0.6612    3.7125    0.7498 H   0  0  0  0  0  0  0  0  0  0  0  0
   -2.0347    3.6180   -0.8894 C   0  0  0  0  0  0  0  0  0  0  0  0
   -1.2545    3.4391   -1.6381 H   0  0  0  0  0  0  0  0  0  0  0  0
   -2.9319    3.0698   -1.1935 H   0  0  0  0  0  0  0  0  0  0  0  0
   -2.3462    5.1118   -0.8056 C   0  0  0  0  0  0  0  0  0  0  0  0
   -3.1033    5.2760   -0.0306 H   0  0  0  0  0  0  0  0  0  0  0  0
   -1.4347    5.6483   -0.5181 H   0  0  0  0  0  0  0  0  0  0  0  0
   -2.8376    5.6095   -2.1038 N   0  3  0  0  0  0  0  0  0  0  0  0
   -2.8267    4.9580   -2.8874 H   0  0  0  0  0  0  0  0  0  0  0  0
   -3.2309    6.8356   -2.2995 C   0  0  0  0  0  0  0  0  0  0  0  0
   -3.2154    7.7722   -1.2907 N   0  0  0  0  0  0  0  0  0  0  0  0
   -2.7192    7.5368   -0.4334 H   0  0  0  0  0  0  0  0  0  0  0  0
   -3.2933    8.7564   -1.5397 H   0  0  0  0  0  0  0  0  0  0  0  0
   -3.6692    7.2191   -3.5446 N   0  0  0  0  0  0  0  0  0  0  0  0
   -3.8408    6.5045   -4.2493 H   0  0  0  0  0  0  0  0  0  0  0  0
   -4.1535    8.1103   -3.6388 H   0  0  0  0  0  0  0  0  0  0  0  0
   -0.2741    1.3300    1.7093 C   0  0  0  0  0  0  0  0  0  0  0  0
    0.7995    1.9185    1.7517 O   0  0  0  0  0  0  0  0  0  0  0  0
   -0.6663    0.6037    2.8186 N   0  0  0  0  0  0  0  0  0  0  0  0
   -1.3741   -0.1036    2.6205 H   0  0  0  0  0  0  0  0  0  0  0  0
    0.2368    0.3407    3.9345 C   0  0  0  0  0  0  0  0  0  0  0  0
    0.5783    1.2794    4.3837 H   0  0  0  0  0  0  0  0  0  0  0  0
   -0.2761   -0.2414    4.7063 H   0  0  0  0  0  0  0  0  0  0  0  0
    1.1111   -0.2256    3.5956 H   0  0  0  0  0  0  0  0  0  0  0  0
  1  2  1  0  0  0  0
  2  3  1  0  0  0  0
  2  4  1  0  0  0  0
  2  5  1  0  0  0  0
  5  6  2  0  0  0  0
  5  7  1  0  0  0  0
  7  8  1  0  0  0  0
  7  9  1  0  0  0  0
  9 10  1  0  0  0  0
  9 11  1  0  0  0  0
  9 29  1  0  0  0  0
 11 12  1  0  0  0  0
 11 13  1  0  0  0  0
 11 14  1  0  0  0  0
 14 15  1  0  0  0  0
 14 16  1  0  0  0  0
 14 17  1  0  0  0  0
 17 18  1  0  0  0  0
 17 19  1  0  0  0  0
 17 20  1  0  0  0  0
 20 21  1  0  0  0  0
 20 22  2  0  0  0  0
 22 23  1  0  0  0  0
 22 26  1  0  0  0  0
 23 24  1  0  0  0  0
 23 25  1  0  0  0  0
 26 27  1  0  0  0  0
 26 28  1  0  0  0  0
 29 30  2  0  0  0  0
 29 31  1  0  0  0  0
 31 32  1  0  0  0  0
 31 33  1  0  0  0  0
 33 34  1  0  0  0  0
 33 35  1  0  0  0  0
 33 36  1  0  0  0  0
M  CHG  1  20   1
M  END
$$$$

  -OEChem-02172215453D

 36 35  0     1  0  0  0  0  0999 V2000
   -4.2573   -1.9516    0.9427 H   0  0  0  0  0  0  0  0  0  0  0  0
   -4.1961   -0.9216    0.5787 C   0  0  0  0  0  0  0  0  0  0  0  0
   -4.8187   -0.2894    1.2162 H   0  0  0  0  0  0  0  0  0  0  0  0
   -4.5773   -0.8888   -0.4447 H   0  0  0  0  0  0  0  0  0  0  0  0
   -2.7574   -0.4424    0.6108 C   0  0  0  0  0  0  0  0  0  0  0  0
   -1.8710   -1.2385    0.8586 O   0  0  0  0  0  0  0  0  0  0  0  0
   -2.4671    0.8670    0.2719 N   0  0  0  0  0  0  0  0  0  0  0  0
   -3.2905    1.4311    0.0909 H   0  0  0  0  0  0  0  0  0  0  0  0
   -1.2052    1.6177    0.4991 C   0  0  1  0  0  0  0  0  0  0  0  0
   -0.5644    1.4108   -0.3646 H   0  0  0  0  0  0  0  0  0  0  0  0
   -1.5659    3.1234    0.4873 C   0  0  0  0  0  0  0  0  0  0  0  0
   -2.3443    3.3105    1.2351 H   0  0  0  0  0  0  0  0  0  0  0  0
   -0.6930    3.7209    0.7722 H   0  0  0  0  0  0  0  0  0  0  0  0
   -2.0267    3.6143   -0.8933 C   0  0  0  0  0  0  0  0  0  0  0  0
   -1.2282    3.4490   -1.6255 H   0  0  0  0  0  0  0  0  0  0  0  0
   -2.9101    3.0572   -1.2207 H   0  0  0  0  0  0  0  0  0  0  0  0
   -2.3569    5.1041   -0.8072 C   0  0  0  0  0  0  0  0  0  0  0  0
   -3.1330    5.2537   -0.0483 H   0  0  0  0  0  0  0  0  0  0  0  0
   -1.4584    5.6492   -0.4959 H   0  0  0  0  0  0  0  0  0  0  0  0
   -2.8259    5.6071   -2.1114 N   0  3  0  0  0  0  0  0  0  0  0  0
   -2.7948    4.9617   -2.8995 H   0  0  0  0  0  0  0  0  0  0  0  0
   -3.2279    6.8307   -2.3043 C   0  0  0  0  0  0  0  0  0  0  0  0
   -3.2432    7.7575   -1.2866 N   0  0  0  0  0  0  0  0  0  0  0  0
   -2.7642    7.5180   -0.4206 H   0  0  0  0  0  0  0  0  0  0  0  0
   -3.3253    8.7432   -1.5280 H   0  0  0  0  0  0  0  0  0  0  0  0
   -3.6433    7.2218   -3.5547 N   0  0  0  0  0  0  0  0  0  0  0  0
   -3.7904    6.5135   -4.2712 H   0  0  0  0  0  0  0  0  0  0  0  0
   -4.1304    8.1111   -3.6517 H   0  0  0  0  0  0  0  0  0  0  0  0
   -0.2799    1.3073    1.7200 C   0  0  0  0  0  0  0  0  0  0  0  0
    0.6936    2.0300    1.8964 O   0  0  0  0  0  0  0  0  0  0  0  0
   -0.5362    0.3395    2.6732 N   0  0  0  0  0  0  0  0  0  0  0  0
   -1.1496   -0.4146    2.3614 H   0  0  0  0  0  0  0  0  0  0  0  0
    0.3850    0.0427    3.7655 C   0  0  0  0  0  0  0  0  0  0  0  0
    0.5485    0.9317    4.3840 H   0  0  0  0  0  0  0  0  0  0  0  0
   -0.0264   -0.7467    4.4020 H   0  0  0  0  0  0  0  0  0  0  0  0
    1.3500   -0.2954    3.3730 H   0  0  0  0  0  0  0  0  0  0  0  0
  1  2  1  0  0  0  0
  2  3  1  0  0  0  0
  2  4  1  0  0  0  0
  2  5  1  0  0  0  0
  5  6  2  0  0  0  0
  5  7  1  0  0  0  0
  7  8  1  0  0  0  0
  7  9  1  0  0  0  0
  9 10  1  0  0  0  0
  9 11  1  0  0  0  0
  9 29  1  0  0  0  0
 11 12  1  0  0  0  0
 11 13  1  0  0  0  0
 11 14  1  0  0  0  0
 14 15  1  0  0  0  0
 14 16  1  0  0  0  0
 14 17  1  0  0  0  0
 17 18  1  0  0  0  0
 17 19  1  0  0  0  0
 17 20  1  0  0  0  0
 20 21  1  0  0  0  0
 20 22  2  0  0  0  0
 22 23  1  0  0  0  0
 22 26  1  0  0  0  0
 23 24  1  0  0  0  0
 23 25  1  0  0  0  0
 26 27  1  0  0  0  0
 26 28  1  0  0  0  0
 29 30  2  0  0  0  0
 29 31  1  0  0  0  0
 31 32  1  0  0  0  0
 31 33  1  0  0  0  0
 33 34  1  0  0  0  0
 33 35  1  0  0  0  0
 33 36  1  0  0  0  0
M  CHG  1  20   1
M  END
$$$$

  -OEChem-02172215453D

 36 35  0     1  0  0  0  0  0999 V2000
   -4.2725   -1.9034    1.0255 H   0  0  0  0  0  0  0  0  0  0  0  0
   -4.2152   -0.8587    0.7054 C   0  0  0  0  0  0  0  0  0  0  0  0
   -4.7406   -0.2403    1.4371 H   0  0  0  0  0  0  0  0  0  0  0  0
   -4.7060   -0.7625   -0.2662 H   0  0  0  0  0  0  0  0  0  0  0  0
   -2.7656   -0.4247    0.6011 C   0  0  0  0  0  0  0  0  0  0  0  0
   -1.8841   -1.2599    0.6870 O   0  0  0  0  0  0  0  0  0  0  0  0
   -2.4694    0.8871    0.2798 N   0  0  0  0  0  0  0  0  0  0  0  0
   -3.2964    1.4711    0.2165 H   0  0  0  0  0  0  0  0  0  0  0  0
   -1.1978    1.6229    0.5033 C   0  0  1  0  0  0  0  0  0  0  0  0
   -0.5664    1.4173   -0.3673 H   0  0  0  0  0  0  0  0  0  0  0  0
   -1.5587    3.1305    0.4913 C   0  0  0  0  0  0  0  0  0  0  0  0
   -2.3316    3.3229    1.2433 H   0  0  0  0  0  0  0  0  0  0  0  0
   -0.6845    3.7311    0.7644 H   0  0  0  0  0  0  0  0  0  0  0  0
   -2.0237    3.6112   -0.8915 C   0  0  0  0  0  0  0  0  0  0  0  0
   -1.2262    3.4409   -1.6235 H   0  0  0  0  0  0  0  0  0  0  0  0
   -2.9065    3.0497   -1.2131 H   0  0  0  0  0  0  0  0  0  0  0  0
   -2.3576    5.1004   -0.8208 C   0  0  0  0  0  0  0  0  0  0  0  0
   -3.1330    5.2577   -0.0627 H   0  0  0  0  0  0  0  0  0  0  0  0
   -1.4601    5.6517   -0.5178 H   0  0  0  0  0  0  0  0  0  0  0  0
   -2.8293    5.5819   -2.1323 N   0  3  0  0  0  0  0  0  0  0  0  0
   -2.7976    4.9233   -2.9094 H   0  0  0  0  0  0  0  0  0  0  0  0
   -3.2365    6.8004   -2.3457 C   0  0  0  0  0  0  0  0  0  0  0  0
   -3.2557    7.7442   -1.3437 N   0  0  0  0  0  0  0  0  0  0  0  0
   -2.7772    7.5212   -0.4729 H   0  0  0  0  0  0  0  0  0  0  0  0
   -3.3457    8.7254   -1.6002 H   0  0  0  0  0  0  0  0  0  0  0  0
   -3.6549    7.1671   -3.6027 N   0  0  0  0  0  0  0  0  0  0  0  0
   -3.8011    6.4443   -4.3048 H   0  0  0  0  0  0  0  0  0  0  0  0
   -4.1486    8.0510   -3.7152 H   0  0  0  0  0  0  0  0  0  0  0  0
   -0.2617    1.2809    1.7116 C   0  0  0  0  0  0  0  0  0  0  0  0
    0.5866    2.1018    2.0393 O   0  0  0  0  0  0  0  0  0  0  0  0
   -0.3456    0.1330    2.4767 N   0  0  0  0  0  0  0  0  0  0  0  0
   -0.8816   -0.6329    2.0658 H   0  0  0  0  0  0  0  0  0  0  0  0
    0.5945   -0.1944    3.5437 C   0  0  0  0  0  0  0  0  0  0  0  0
    0.5947    0.5872    4.3108 H   0  0  0  0  0  0  0  0  0  0  0  0
    0.3124   -1.1398    4.0175 H   0  0  0  0  0  0  0  0  0  0  0  0
    1.6089   -0.2954    3.1439 H   0  0  0  0  0  0  0  0  0  0  0  0
  1  2  1  0  0  0  0
  2  3  1  0  0  0  0
  2  4  1  0  0  0  0
  2  5  1  0  0  0  0
  5  6  2  0  0  0  0
  5  7  1  0  0  0  0
  7  8  1  0  0  0  0
  7  9  1  0  0  0  0
  9 10  1  0  0  0  0
  9 11  1  0  0  0  0
  9 29  1  0  0  0  0
 11 12  1  0  0  0  0
 11 13  1  0  0  0  0
 11 14  1  0  0  0  0
 14 15  1  0  0  0  0
 14 16  1  0  0  0  0
 14 17  1  0  0  0  0
 17 18  1  0  0  0  0
 17 19  1  0  0  0  0
 17 20  1  0  0  0  0
 20 21  1  0  0  0  0
 20 22  2  0  0  0  0
 22 23  1  0  0  0  0
 22 26  1  0  0  0  0
 23 24  1  0  0  0  0
 23 25  1  0  0  0  0
 26 27  1  0  0  0  0
 26 28  1  0  0  0  0
 29 30  2  0  0  0  0
 29 31  1  0  0  0  0
 31 32  1  0  0  0  0
 31 33  1  0  0  0  0
 33 34  1  0  0  0  0
 33 35  1  0  0  0  0
 33 36  1  0  0  0  0
M  CHG  1  20   1
M  END
$$$$

  -OEChem-02172215453D

 36 35  0     1  0  0  0  0  0999 V2000
   -3.7098   -1.9747    1.3959 H   0  0  0  0  0  0  0  0  0  0  0  0
   -3.7703   -0.9183    1.1177 C   0  0  0  0  0  0  0  0  0  0  0  0
   -4.0938   -0.3454    1.9897 H   0  0  0  0  0  0  0  0  0  0  0  0
   -4.5083   -0.8076    0.3197 H   0  0  0  0  0  0  0  0  0  0  0  0
   -2.4153   -0.4286    0.6440 C   0  0  0  0  0  0  0  0  0  0  0  0
   -1.5385   -1.2334    0.3945 O   0  0  0  0  0  0  0  0  0  0  0  0
   -2.2400    0.8990    0.3106 N   0  0  0  0  0  0  0  0  0  0  0  0
   -3.0738    1.4534    0.4725 H   0  0  0  0  0  0  0  0  0  0  0  0
   -0.9674    1.6570    0.3765 C   0  0  1  0  0  0  0  0  0  0  0  0
   -0.4642    1.4595   -0.5760 H   0  0  0  0  0  0  0  0  0  0  0  0
   -1.3516    3.1584    0.4055 C   0  0  0  0  0  0  0  0  0  0  0  0
   -2.0359    3.3402    1.2410 H   0  0  0  0  0  0  0  0  0  0  0  0
   -0.4637    3.7768    0.5739 H   0  0  0  0  0  0  0  0  0  0  0  0
   -1.9871    3.6175   -0.9166 C   0  0  0  0  0  0  0  0  0  0  0  0
   -1.2793    3.4527   -1.7369 H   0  0  0  0  0  0  0  0  0  0  0  0
   -2.8906    3.0355   -1.1262 H   0  0  0  0  0  0  0  0  0  0  0  0
   -2.3412    5.1007   -0.8274 C   0  0  0  0  0  0  0  0  0  0  0  0
   -3.0261    5.2561    0.0136 H   0  0  0  0  0  0  0  0  0  0  0  0
   -1.4260    5.6742   -0.6408 H   0  0  0  0  0  0  0  0  0  0  0  0
   -2.9726    5.5458   -2.0836 N   0  3  0  0  0  0  0  0  0  0  0  0
   -3.0117    4.8721   -2.8477 H   0  0  0  0  0  0  0  0  0  0  0  0
   -3.4302    6.7502   -2.2730 C   0  0  0  0  0  0  0  0  0  0  0  0
   -3.3565    7.7161   -1.2950 N   0  0  0  0  0  0  0  0  0  0  0  0
   -2.7784    7.5223   -0.4796 H   0  0  0  0  0  0  0  0  0  0  0  0
   -3.4948    8.6892   -1.5607 H   0  0  0  0  0  0  0  0  0  0  0  0
   -3.9950    7.0811   -3.4819 N   0  0  0  0  0  0  0  0  0  0  0  0
   -4.2005    6.3413   -4.1507 H   0  0  0  0  0  0  0  0  0  0  0  0
   -4.5158    7.9533   -3.5563 H   0  0  0  0  0  0  0  0  0  0  0  0
    0.1638    1.3486    1.4195 C   0  0  0  0  0  0  0  0  0  0  0  0
    1.0890    2.1417    1.5046 O   0  0  0  0  0  0  0  0  0  0  0  0
    0.5124    0.1616    2.0204 N   0  0  0  0  0  0  0  0  0  0  0  0
    1.5006    0.1720    2.2639 H   0  0  0  0  0  0  0  0  0  0  0  0
   -0.3387   -0.4516    3.0339 C   0  0  0  0  0  0  0  0  0  0  0  0
   -1.3026    0.0599    3.1149 H   0  0  0  0  0  0  0  0  0  0  0  0
   -0.5157   -1.5055    2.7959 H   0  0  0  0  0  0  0  0  0  0  0  0
    0.1515   -0.3984    4.0112 H   0  0  0  0  0  0  0  0  0  0  0  0
  1  2  1  0  0  0  0
  2  3  1  0  0  0  0
  2  4  1  0  0  0  0
  2  5  1  0  0  0  0
  5  6  2  0  0  0  0
  5  7  1  0  0  0  0
  7  8  1  0  0  0  0
  7  9  1  0  0  0  0
  9 10  1  0  0  0  0
  9 11  1  0  0  0  0
  9 29  1  0  0  0  0
 11 12  1  0  0  0  0
 11 13  1  0  0  0  0
 11 14  1  0  0  0  0
 14 15  1  0  0  0  0
 14 16  1  0  0  0  0
 14 17  1  0  0  0  0
 17 18  1  0  0  0  0
 17 19  1  0  0  0  0
 17 20  1  0  0  0  0
 20 21  1  0  0  0  0
 20 22  2  0  0  0  0
 22 23  1  0  0  0  0
 22 26  1  0  0  0  0
 23 24  1  0  0  0  0
 23 25  1  0  0  0  0
 26 27  1  0  0  0  0
 26 28  1  0  0  0  0
 29 30  2  0  0  0  0
 29 31  1  0  0  0  0
 31 32  1  0  0  0  0
 31 33  1  0  0  0  0
 33 34  1  0  0  0  0
 33 35  1  0  0  0  0
 33 36  1  0  0  0  0
M  CHG  1  20   1
M  END
$$$$

  -OEChem-02172215453D

 36 35  0     1  0  0  0  0  0999 V2000
   -4.1094   -1.9798    1.0561 H   0  0  0  0  0  0  0  0  0  0  0  0
   -4.1028   -0.9183    0.7909 C   0  0  0  0  0  0  0  0  0  0  0  0
   -4.5358   -0.3501    1.6177 H   0  0  0  0  0  0  0  0  0  0  0  0
   -4.7145   -0.7764   -0.1035 H   0  0  0  0  0  0  0  0  0  0  0  0
   -2.6816   -0.4569    0.5294 C   0  0  0  0  0  0  0  0  0  0  0  0
   -1.7923   -1.2840    0.4367 O   0  0  0  0  0  0  0  0  0  0  0  0
   -2.4363    0.8704    0.2276 N   0  0  0  0  0  0  0  0  0  0  0  0
   -3.2765    1.4367    0.2859 H   0  0  0  0  0  0  0  0  0  0  0  0
   -1.1748    1.6224    0.4481 C   0  0  1  0  0  0  0  0  0  0  0  0
   -0.5485    1.4372   -0.4305 H   0  0  0  0  0  0  0  0  0  0  0  0
   -1.5349    3.1289    0.4552 C   0  0  0  0  0  0  0  0  0  0  0  0
   -2.2980    3.3173    1.2185 H   0  0  0  0  0  0  0  0  0  0  0  0
   -0.6515    3.7196    0.7218 H   0  0  0  0  0  0  0  0  0  0  0  0
   -2.0111    3.6260   -0.9173 C   0  0  0  0  0  0  0  0  0  0  0  0
   -1.2223    3.4638   -1.6605 H   0  0  0  0  0  0  0  0  0  0  0  0
   -2.8987    3.0692   -1.2346 H   0  0  0  0  0  0  0  0  0  0  0  0
   -2.3423    5.1144   -0.8215 C   0  0  0  0  0  0  0  0  0  0  0  0
   -3.1100    5.2606   -0.0536 H   0  0  0  0  0  0  0  0  0  0  0  0
   -1.4415    5.6598   -0.5179 H   0  0  0  0  0  0  0  0  0  0  0  0
   -2.8256    5.6188   -2.1198 N   0  3  0  0  0  0  0  0  0  0  0  0
   -2.8009    4.9744   -2.9091 H   0  0  0  0  0  0  0  0  0  0  0  0
   -3.2326    6.8415   -2.3075 C   0  0  0  0  0  0  0  0  0  0  0  0
   -3.2402    7.7674   -1.2886 N   0  0  0  0  0  0  0  0  0  0  0  0
   -2.7604    7.5270   -0.4231 H   0  0  0  0  0  0  0  0  0  0  0  0
   -3.3335    8.7533   -1.5252 H   0  0  0  0  0  0  0  0  0  0  0  0
   -3.6638    7.2302   -3.5536 N   0  0  0  0  0  0  0  0  0  0  0  0
   -3.8234    6.5187   -4.2645 H   0  0  0  0  0  0  0  0  0  0  0  0
   -4.1568    8.1168   -3.6444 H   0  0  0  0  0  0  0  0  0  0  0  0
   -0.2387    1.2373    1.6434 C   0  0  0  0  0  0  0  0  0  0  0  0
    0.2145    2.1222    2.3595 O   0  0  0  0  0  0  0  0  0  0  0  0
    0.1029   -0.0603    1.9687 N   0  0  0  0  0  0  0  0  0  0  0  0
   -0.3074   -0.8027    1.3970 H   0  0  0  0  0  0  0  0  0  0  0  0
    0.9453   -0.4311    3.1007 C   0  0  0  0  0  0  0  0  0  0  0  0
    0.4958   -0.0944    4.0408 H   0  0  0  0  0  0  0  0  0  0  0  0
    1.0622   -1.5182    3.1439 H   0  0  0  0  0  0  0  0  0  0  0  0
    1.9389    0.0186    3.0037 H   0  0  0  0  0  0  0  0  0  0  0  0
  1  2  1  0  0  0  0
  2  3  1  0  0  0  0
  2  4  1  0  0  0  0
  2  5  1  0  0  0  0
  5  6  2  0  0  0  0
  5  7  1  0  0  0  0
  7  8  1  0  0  0  0
  7  9  1  0  0  0  0
  9 10  1  0  0  0  0
  9 11  1  0  0  0  0
  9 29  1  0  0  0  0
 11 12  1  0  0  0  0
 11 13  1  0  0  0  0
 11 14  1  0  0  0  0
 14 15  1  0  0  0  0
 14 16  1  0  0  0  0
 14 17  1  0  0  0  0
 17 18  1  0  0  0  0
 17 19  1  0  0  0  0
 17 20  1  0  0  0  0
 20 21  1  0  0  0  0
 20 22  2  0  0  0  0
 22 23  1  0  0  0  0
 22 26  1  0  0  0  0
 23 24  1  0  0  0  0
 23 25  1  0  0  0  0
 26 27  1  0  0  0  0
 26 28  1  0  0  0  0
 29 30  2  0  0  0  0
 29 31  1  0  0  0  0
 31 32  1  0  0  0  0
 31 33  1  0  0  0  0
 33 34  1  0  0  0  0
 33 35  1  0  0  0  0
 33 36  1  0  0  0  0
M  CHG  1  20   1
M  END
$$$$

  -OEChem-02172215453D

 36 35  0     1  0  0  0  0  0999 V2000
   -4.0035   -1.9991    1.1679 H   0  0  0  0  0  0  0  0  0  0  0  0
   -4.0285   -0.9505    0.8568 C   0  0  0  0  0  0  0  0  0  0  0  0
   -4.4646   -0.3581    1.6647 H   0  0  0  0  0  0  0  0  0  0  0  0
   -4.6552   -0.8627   -0.0338 H   0  0  0  0  0  0  0  0  0  0  0  0
   -2.6243   -0.4649    0.5540 C   0  0  0  0  0  0  0  0  0  0  0  0
   -1.7168   -1.2731    0.4699 O   0  0  0  0  0  0  0  0  0  0  0  0
   -2.4129    0.8603    0.2187 N   0  0  0  0  0  0  0  0  0  0  0  0
   -3.2592    1.4163    0.2875 H   0  0  0  0  0  0  0  0  0  0  0  0
   -1.1549    1.6224    0.4098 C   0  0  1  0  0  0  0  0  0  0  0  0
   -0.5369    1.4332   -0.4738 H   0  0  0  0  0  0  0  0  0  0  0  0
   -1.5082    3.1286    0.4182 C   0  0  0  0  0  0  0  0  0  0  0  0
   -2.2573    3.3207    1.1944 H   0  0  0  0  0  0  0  0  0  0  0  0
   -0.6144    3.7095    0.6737 H   0  0  0  0  0  0  0  0  0  0  0  0
   -2.0102    3.6288   -0.9440 C   0  0  0  0  0  0  0  0  0  0  0  0
   -1.2384    3.4629   -1.7039 H   0  0  0  0  0  0  0  0  0  0  0  0
   -2.9067    3.0758   -1.2427 H   0  0  0  0  0  0  0  0  0  0  0  0
   -2.3311    5.1194   -0.8396 C   0  0  0  0  0  0  0  0  0  0  0  0
   -3.0822    5.2688   -0.0556 H   0  0  0  0  0  0  0  0  0  0  0  0
   -1.4207    5.6588   -0.5540 H   0  0  0  0  0  0  0  0  0  0  0  0
   -2.8392    5.6319   -2.1255 N   0  3  0  0  0  0  0  0  0  0  0  0
   -2.8392    4.9895   -2.9167 H   0  0  0  0  0  0  0  0  0  0  0  0
   -3.2420    6.8584   -2.2987 C   0  0  0  0  0  0  0  0  0  0  0  0
   -3.2212    7.7796   -1.2757 N   0  0  0  0  0  0  0  0  0  0  0  0
   -2.7243    7.5322   -0.4219 H   0  0  0  0  0  0  0  0  0  0  0  0
   -3.3127    8.7671   -1.5059 H   0  0  0  0  0  0  0  0  0  0  0  0
   -3.6953    7.2576   -3.5335 N   0  0  0  0  0  0  0  0  0  0  0  0
   -3.8671    6.5529   -4.2480 H   0  0  0  0  0  0  0  0  0  0  0  0
   -4.1857    8.1472   -3.6099 H   0  0  0  0  0  0  0  0  0  0  0  0
   -0.2219    1.2413    1.6051 C   0  0  0  0  0  0  0  0  0  0  0  0
    0.0413    2.0813    2.4576 O   0  0  0  0  0  0  0  0  0  0  0  0
    0.3413   -0.0118    1.7463 N   0  0  0  0  0  0  0  0  0  0  0  0
   -0.0438   -0.7446    1.1447 H   0  0  0  0  0  0  0  0  0  0  0  0
    1.1440   -0.4151    2.8957 C   0  0  0  0  0  0  0  0  0  0  0  0
    0.5522   -0.3642    3.8154 H   0  0  0  0  0  0  0  0  0  0  0  0
    1.4966   -1.4432    2.7671 H   0  0  0  0  0  0  0  0  0  0  0  0
    2.0174    0.2368    3.0020 H   0  0  0  0  0  0  0  0  0  0  0  0
  1  2  1  0  0  0  0
  2  3  1  0  0  0  0
  2  4  1  0  0  0  0
  2  5  1  0  0  0  0
  5  6  2  0  0  0  0
  5  7  1  0  0  0  0
  7  8  1  0  0  0  0
  7  9  1  0  0  0  0
  9 10  1  0  0  0  0
  9 11  1  0  0  0  0
  9 29  1  0  0  0  0
 11 12  1  0  0  0  0
 11 13  1  0  0  0  0
 11 14  1  0  0  0  0
 14 15  1  0  0  0  0
 14 16  1  0  0  0  0
 14 17  1  0  0  0  0
 17 18  1  0  0  0  0
 17 19  1  0  0  0  0
 17 20  1  0  0  0  0
 20 21  1  0  0  0  0
 20 22  2  0  0  0  0
 22 23  1  0  0  0  0
 22 26  1  0  0  0  0
 23 24  1  0  0  0  0
 23 25  1  0  0  0  0
 26 27  1  0  0  0  0
 26 28  1  0  0  0  0
 29 30  2  0  0  0  0
 29 31  1  0  0  0  0
 31 32  1  0  0  0  0
 31 33  1  0  0  0  0
 33 34  1  0  0  0  0
 33 35  1  0  0  0  0
 33 36  1  0  0  0  0
M  CHG  1  20   1
M  END
$$$$

  -OEChem-02172215453D

 36 35  0     1  0  0  0  0  0999 V2000
   -3.9088   -2.0168    1.2221 H   0  0  0  0  0  0  0  0  0  0  0  0
   -3.9587   -0.9748    0.8926 C   0  0  0  0  0  0  0  0  0  0  0  0
   -4.4080   -0.3788    1.6906 H   0  0  0  0  0  0  0  0  0  0  0  0
   -4.5887   -0.9172    0.0019 H   0  0  0  0  0  0  0  0  0  0  0  0
   -2.5665   -0.4613    0.5792 C   0  0  0  0  0  0  0  0  0  0  0  0
   -1.6307   -1.2412    0.5361 O   0  0  0  0  0  0  0  0  0  0  0  0
   -2.3875    0.8580    0.2036 N   0  0  0  0  0  0  0  0  0  0  0  0
   -3.2399    1.4046    0.2708 H   0  0  0  0  0  0  0  0  0  0  0  0
   -1.1330    1.6265    0.3750 C   0  0  1  0  0  0  0  0  0  0  0  0
   -0.5127    1.4358   -0.5069 H   0  0  0  0  0  0  0  0  0  0  0  0
   -1.4830    3.1314    0.3901 C   0  0  0  0  0  0  0  0  0  0  0  0
   -2.2225    3.3229    1.1758 H   0  0  0  0  0  0  0  0  0  0  0  0
   -0.5826    3.7047    0.6402 H   0  0  0  0  0  0  0  0  0  0  0  0
   -2.0051    3.6350   -0.9625 C   0  0  0  0  0  0  0  0  0  0  0  0
   -1.2453    3.4693   -1.7344 H   0  0  0  0  0  0  0  0  0  0  0  0
   -2.9077    3.0849   -1.2481 H   0  0  0  0  0  0  0  0  0  0  0  0
   -2.3211    5.1257   -0.8485 C   0  0  0  0  0  0  0  0  0  0  0  0
   -3.0583    5.2735   -0.0512 H   0  0  0  0  0  0  0  0  0  0  0  0
   -1.4056    5.6629   -0.5764 H   0  0  0  0  0  0  0  0  0  0  0  0
   -2.8483    5.6418   -2.1253 N   0  3  0  0  0  0  0  0  0  0  0  0
   -2.8618    5.0007   -2.9175 H   0  0  0  0  0  0  0  0  0  0  0  0
   -3.2518    6.8691   -2.2907 C   0  0  0  0  0  0  0  0  0  0  0  0
   -3.2136    7.7887   -1.2668 N   0  0  0  0  0  0  0  0  0  0  0  0
   -2.7075    7.5379   -0.4194 H   0  0  0  0  0  0  0  0  0  0  0  0
   -3.3061    8.7770   -1.4932 H   0  0  0  0  0  0  0  0  0  0  0  0
   -3.7213    7.2713   -3.5188 N   0  0  0  0  0  0  0  0  0  0  0  0
   -3.9046    6.5688   -4.2329 H   0  0  0  0  0  0  0  0  0  0  0  0
   -4.2094    8.1627   -3.5873 H   0  0  0  0  0  0  0  0  0  0  0  0
   -0.2240    1.2484    1.5839 C   0  0  0  0  0  0  0  0  0  0  0  0
   -0.1408    2.0092    2.5412 O   0  0  0  0  0  0  0  0  0  0  0  0
    0.5501    0.1043    1.5776 N   0  0  0  0  0  0  0  0  0  0  0  0
    0.2266   -0.6240    0.9361 H   0  0  0  0  0  0  0  0  0  0  0  0
    1.3488   -0.3149    2.7243 C   0  0  0  0  0  0  0  0  0  0  0  0
    0.7059   -0.5122    3.5886 H   0  0  0  0  0  0  0  0  0  0  0  0
    1.9005   -1.2295    2.4857 H   0  0  0  0  0  0  0  0  0  0  0  0
    2.0726    0.4613    2.9945 H   0  0  0  0  0  0  0  0  0  0  0  0
  1  2  1  0  0  0  0
  2  3  1  0  0  0  0
  2  4  1  0  0  0  0
  2  5  1  0  0  0  0
  5  6  2  0  0  0  0
  5  7  1  0  0  0  0
  7  8  1  0  0  0  0
  7  9  1  0  0  0  0
  9 10  1  0  0  0  0
  9 11  1  0  0  0  0
  9 29  1  0  0  0  0
 11 12  1  0  0  0  0
 11 13  1  0  0  0  0
 11 14  1  0  0  0  0
 14 15  1  0  0  0  0
 14 16  1  0  0  0  0
 14 17  1  0  0  0  0
 17 18  1  0  0  0  0
 17 19  1  0  0  0  0
 17 20  1  0  0  0  0
 20 21  1  0  0  0  0
 20 22  2  0  0  0  0
 22 23  1  0  0  0  0
 22 26  1  0  0  0  0
 23 24  1  0  0  0  0
 23 25  1  0  0  0  0
 26 27  1  0  0  0  0
 26 28  1  0  0  0  0
 29 30  2  0  0  0  0
 29 31  1  0  0  0  0
 31 32  1  0  0  0  0
 31 33  1  0  0  0  0
 33 34  1  0  0  0  0
 33 35  1  0  0  0  0
 33 36  1  0  0  0  0
M  CHG  1  20   1
M  END
$$$$

  -OEChem-02172215453D

 36 35  0     1  0  0  0  0  0999 V2000
   -3.8022   -2.0408    1.2672 H   0  0  0  0  0  0  0  0  0  0  0  0
   -3.8845   -1.0012    0.9368 C   0  0  0  0  0  0  0  0  0  0  0  0
   -4.3285   -0.4130    1.7437 H   0  0  0  0  0  0  0  0  0  0  0  0
   -4.5364   -0.9617    0.0611 H   0  0  0  0  0  0  0  0  0  0  0  0
   -2.5130   -0.4557    0.5895 C   0  0  0  0  0  0  0  0  0  0  0  0
   -1.5495   -1.2035    0.5641 O   0  0  0  0  0  0  0  0  0  0  0  0
   -2.3731    0.8574    0.1764 N   0  0  0  0  0  0  0  0  0  0  0  0
   -3.2315    1.3929    0.2553 H   0  0  0  0  0  0  0  0  0  0  0  0
   -1.1229    1.6307    0.3375 C   0  0  1  0  0  0  0  0  0  0  0  0
   -0.4976    1.4395   -0.5407 H   0  0  0  0  0  0  0  0  0  0  0  0
   -1.4675    3.1344    0.3632 C   0  0  0  0  0  0  0  0  0  0  0  0
   -2.2029    3.3229    1.1538 H   0  0  0  0  0  0  0  0  0  0  0  0
   -0.5630    3.7008    0.6140 H   0  0  0  0  0  0  0  0  0  0  0  0
   -2.0016    3.6440   -0.9815 C   0  0  0  0  0  0  0  0  0  0  0  0
   -1.2516    3.4788   -1.7628 H   0  0  0  0  0  0  0  0  0  0  0  0
   -2.9087    3.0967   -1.2579 H   0  0  0  0  0  0  0  0  0  0  0  0
   -2.3123    5.1347   -0.8589 C   0  0  0  0  0  0  0  0  0  0  0  0
   -3.0418    5.2816   -0.0543 H   0  0  0  0  0  0  0  0  0  0  0  0
   -1.3930    5.6688   -0.5934 H   0  0  0  0  0  0  0  0  0  0  0  0
   -2.8510    5.6549   -2.1289 N   0  3  0  0  0  0  0  0  0  0  0  0
   -2.8774    5.0150   -2.9218 H   0  0  0  0  0  0  0  0  0  0  0  0
   -3.2532    6.8835   -2.2862 C   0  0  0  0  0  0  0  0  0  0  0  0
   -3.2023    7.7995   -1.2598 N   0  0  0  0  0  0  0  0  0  0  0  0
   -2.6864    7.5450   -0.4197 H   0  0  0  0  0  0  0  0  0  0  0  0
   -3.2972    8.7886   -1.4814 H   0  0  0  0  0  0  0  0  0  0  0  0
   -3.7384    7.2887   -3.5070 N   0  0  0  0  0  0  0  0  0  0  0  0
   -3.9367    6.5852   -4.2159 H   0  0  0  0  0  0  0  0  0  0  0  0
   -4.2326    8.1775   -3.5643 H   0  0  0  0  0  0  0  0  0  0  0  0
   -0.2455    1.2512    1.5645 C   0  0  0  0  0  0  0  0  0  0  0  0
   -0.3493    1.8943    2.6028 O   0  0  0  0  0  0  0  0  0  0  0  0
    0.7319    0.2797    1.4622 N   0  0  0  0  0  0  0  0  0  0  0  0
    0.5516   -0.4206    0.7420 H   0  0  0  0  0  0  0  0  0  0  0  0
    1.5341   -0.1361    2.6078 C   0  0  0  0  0  0  0  0  0  0  0  0
    0.8968   -0.5735    3.3837 H   0  0  0  0  0  0  0  0  0  0  0  0
    2.2714   -0.8843    2.3007 H   0  0  0  0  0  0  0  0  0  0  0  0
    2.0703    0.7183    3.0339 H   0  0  0  0  0  0  0  0  0  0  0  0
  1  2  1  0  0  0  0
  2  3  1  0  0  0  0
  2  4  1  0  0  0  0
  2  5  1  0  0  0  0
  5  6  2  0  0  0  0
  5  7  1  0  0  0  0
  7  8  1  0  0  0  0
  7  9  1  0  0  0  0
  9 10  1  0  0  0  0
  9 11  1  0  0  0  0
  9 29  1  0  0  0  0
 11 12  1  0  0  0  0
 11 13  1  0  0  0  0
 11 14  1  0  0  0  0
 14 15  1  0  0  0  0
 14 16  1  0  0  0  0
 14 17  1  0  0  0  0
 17 18  1  0  0  0  0
 17 19  1  0  0  0  0
 17 20  1  0  0  0  0
 20 21  1  0  0  0  0
 20 22  2  0  0  0  0
 22 23  1  0  0  0  0
 22 26  1  0  0  0  0
 23 24  1  0  0  0  0
 23 25  1  0  0  0  0
 26 27  1  0  0  0  0
 26 28  1  0  0  0  0
 29 30  2  0  0  0  0
 29 31  1  0  0  0  0
 31 32  1  0  0  0  0
 31 33  1  0  0  0  0
 33 34  1  0  0  0  0
 33 35  1  0  0  0  0
 33 36  1  0  0  0  0
M  CHG  1  20   1
M  END
$$$$

  -OEChem-02172215453D

 36 35  0     1  0  0  0  0  0999 V2000
   -3.7120   -2.0478    1.3430 H   0  0  0  0  0  0  0  0  0  0  0  0
   -3.8263   -1.0216    0.9815 C   0  0  0  0  0  0  0  0  0  0  0  0
   -4.2709   -0.4197    1.7776 H   0  0  0  0  0  0  0  0  0  0  0  0
   -4.4934   -1.0256    0.1165 H   0  0  0  0  0  0  0  0  0  0  0  0
   -2.4740   -0.4548    0.5953 C   0  0  0  0  0  0  0  0  0  0  0  0
   -1.4935   -1.1810    0.5731 O   0  0  0  0  0  0  0  0  0  0  0  0
   -2.3654    0.8537    0.1562 N   0  0  0  0  0  0  0  0  0  0  0  0
   -3.2272    1.3797    0.2589 H   0  0  0  0  0  0  0  0  0  0  0  0
   -1.1197    1.6335    0.3088 C   0  0  1  0  0  0  0  0  0  0  0  0
   -0.4932    1.4414   -0.5680 H   0  0  0  0  0  0  0  0  0  0  0  0
   -1.4591    3.1366    0.3417 C   0  0  0  0  0  0  0  0  0  0  0  0
   -2.1896    3.3249    1.1370 H   0  0  0  0  0  0  0  0  0  0  0  0
   -0.5510    3.6976    0.5909 H   0  0  0  0  0  0  0  0  0  0  0  0
   -2.0026    3.6509   -0.9977 C   0  0  0  0  0  0  0  0  0  0  0  0
   -1.2594    3.4844   -1.7851 H   0  0  0  0  0  0  0  0  0  0  0  0
   -2.9130    3.1063   -1.2686 H   0  0  0  0  0  0  0  0  0  0  0  0
   -2.3083    5.1423   -0.8696 C   0  0  0  0  0  0  0  0  0  0  0  0
   -3.0320    5.2889   -0.0597 H   0  0  0  0  0  0  0  0  0  0  0  0
   -1.3859    5.6738   -0.6096 H   0  0  0  0  0  0  0  0  0  0  0  0
   -2.8556    5.6671   -2.1340 N   0  3  0  0  0  0  0  0  0  0  0  0
   -2.8936    5.0283   -2.9273 H   0  0  0  0  0  0  0  0  0  0  0  0
   -3.2556    6.8971   -2.2854 C   0  0  0  0  0  0  0  0  0  0  0  0
   -3.1943    7.8113   -1.2578 N   0  0  0  0  0  0  0  0  0  0  0  0
   -2.6790    7.5527   -0.4184 H   0  0  0  0  0  0  0  0  0  0  0  0
   -3.2885    8.8014   -1.4759 H   0  0  0  0  0  0  0  0  0  0  0  0
   -3.7507    7.3066   -3.5003 N   0  0  0  0  0  0  0  0  0  0  0  0
   -3.9613    6.6057   -4.2082 H   0  0  0  0  0  0  0  0  0  0  0  0
   -4.2386    8.1993   -3.5514 H   0  0  0  0  0  0  0  0  0  0  0  0
   -0.2595    1.2580    1.5450 C   0  0  0  0  0  0  0  0  0  0  0  0
   -0.5513    1.7267    2.6391 O   0  0  0  0  0  0  0  0  0  0  0  0
    0.9011    0.5219    1.3986 N   0  0  0  0  0  0  0  0  0  0  0  0
    0.9380   -0.0613    0.5651 H   0  0  0  0  0  0  0  0  0  0  0  0
    1.6929    0.0961    2.5476 C   0  0  0  0  0  0  0  0  0  0  0  0
    1.1026   -0.5588    3.1975 H   0  0  0  0  0  0  0  0  0  0  0  0
    2.5794   -0.4522    2.2144 H   0  0  0  0  0  0  0  0  0  0  0  0
    2.0242    0.9625    3.1298 H   0  0  0  0  0  0  0  0  0  0  0  0
  1  2  1  0  0  0  0
  2  3  1  0  0  0  0
  2  4  1  0  0  0  0
  2  5  1  0  0  0  0
  5  6  2  0  0  0  0
  5  7  1  0  0  0  0
  7  8  1  0  0  0  0
  7  9  1  0  0  0  0
  9 10  1  0  0  0  0
  9 11  1  0  0  0  0
  9 29  1  0  0  0  0
 11 12  1  0  0  0  0
 11 13  1  0  0  0  0
 11 14  1  0  0  0  0
 14 15  1  0  0  0  0
 14 16  1  0  0  0  0
 14 17  1  0  0  0  0
 17 18  1  0  0  0  0
 17 19  1  0  0  0  0
 17 20  1  0  0  0  0
 20 21  1  0  0  0  0
 20 22  2  0  0  0  0
 22 23  1  0  0  0  0
 22 26  1  0  0  0  0
 23 24  1  0  0  0  0
 23 25  1  0  0  0  0
 26 27  1  0  0  0  0
 26 28  1  0  0  0  0
 29 30  2  0  0  0  0
 29 31  1  0  0  0  0
 31 32  1  0  0  0  0
 31 33  1  0  0  0  0
 33 34  1  0  0  0  0
 33 35  1  0  0  0  0
 33 36  1  0  0  0  0
M  CHG  1  20   1
M  END
$$$$

  -OEChem-02172215453D

 36 35  0     1  0  0  0  0  0999 V2000
   -3.6912   -2.0356    1.3557 H   0  0  0  0  0  0  0  0  0  0  0  0
   -3.8067   -1.0061    1.0046 C   0  0  0  0  0  0  0  0  0  0  0  0
   -4.2241   -0.4055    1.8164 H   0  0  0  0  0  0  0  0  0  0  0  0
   -4.4963   -0.9982    0.1574 H   0  0  0  0  0  0  0  0  0  0  0  0
   -2.4604   -0.4478    0.5865 C   0  0  0  0  0  0  0  0  0  0  0  0
   -1.4808   -1.1750    0.5530 O   0  0  0  0  0  0  0  0  0  0  0  0
   -2.3562    0.8562    0.1334 N   0  0  0  0  0  0  0  0  0  0  0  0
   -3.2154    1.3831    0.2517 H   0  0  0  0  0  0  0  0  0  0  0  0
   -1.1080    1.6318    0.2853 C   0  0  1  0  0  0  0  0  0  0  0  0
   -0.4809    1.4386   -0.5906 H   0  0  0  0  0  0  0  0  0  0  0  0
   -1.4478    3.1332    0.3304 C   0  0  0  0  0  0  0  0  0  0  0  0
   -2.1749    3.3158    1.1299 H   0  0  0  0  0  0  0  0  0  0  0  0
   -0.5396    3.6939    0.5791 H   0  0  0  0  0  0  0  0  0  0  0  0
   -1.9980    3.6520   -1.0046 C   0  0  0  0  0  0  0  0  0  0  0  0
   -1.2582    3.4906   -1.7963 H   0  0  0  0  0  0  0  0  0  0  0  0
   -2.9090    3.1068   -1.2730 H   0  0  0  0  0  0  0  0  0  0  0  0
   -2.3065    5.1420   -0.8714 C   0  0  0  0  0  0  0  0  0  0  0  0
   -3.0270    5.2858   -0.0581 H   0  0  0  0  0  0  0  0  0  0  0  0
   -1.3844    5.6753   -0.6146 H   0  0  0  0  0  0  0  0  0  0  0  0
   -2.8601    5.6666   -2.1332 N   0  3  0  0  0  0  0  0  0  0  0  0
   -2.8993    5.0284   -2.9270 H   0  0  0  0  0  0  0  0  0  0  0  0
   -3.2642    6.8954   -2.2824 C   0  0  0  0  0  0  0  0  0  0  0  0
   -3.2017    7.8083   -1.2541 N   0  0  0  0  0  0  0  0  0  0  0  0
   -2.6844    7.5494   -0.4163 H   0  0  0  0  0  0  0  0  0  0  0  0
   -3.2992    8.7984   -1.4704 H   0  0  0  0  0  0  0  0  0  0  0  0
   -3.7621    7.3046   -3.4963 N   0  0  0  0  0  0  0  0  0  0  0  0
   -3.9696    6.6039   -4.2053 H   0  0  0  0  0  0  0  0  0  0  0  0
   -4.2544    8.1949   -3.5460 H   0  0  0  0  0  0  0  0  0  0  0  0
   -0.2603    1.2581    1.5294 C   0  0  0  0  0  0  0  0  0  0  0  0
   -0.6962    1.5323    2.6416 O   0  0  0  0  0  0  0  0  0  0  0  0
    1.0341    0.7910    1.3938 N   0  0  0  0  0  0  0  0  0  0  0  0
    1.2671    0.3835    0.4921 H   0  0  0  0  0  0  0  0  0  0  0  0
    1.8322    0.3834    2.5455 C   0  0  0  0  0  0  0  0  0  0  0  0
    1.3544   -0.4546    3.0645 H   0  0  0  0  0  0  0  0  0  0  0  0
    2.8298    0.0687    2.2235 H   0  0  0  0  0  0  0  0  0  0  0  0
    1.9460    1.2143    3.2500 H   0  0  0  0  0  0  0  0  0  0  0  0
  1  2  1  0  0  0  0
  2  3  1  0  0  0  0
  2  4  1  0  0  0  0
  2  5  1  0  0  0  0
  5  6  2  0  0  0  0
  5  7  1  0  0  0  0
  7  8  1  0  0  0  0
  7  9  1  0  0  0  0
  9 10  1  0  0  0  0
  9 11  1  0  0  0  0
  9 29  1  0  0  0  0
 11 12  1  0  0  0  0
 11 13  1  0  0  0  0
 11 14  1  0  0  0  0
 14 15  1  0  0  0  0
 14 16  1  0  0  0  0
 14 17  1  0  0  0  0
 17 18  1  0  0  0  0
 17 19  1  0  0  0  0
 17 20  1  0  0  0  0
 20 21  1  0  0  0  0
 20 22  2  0  0  0  0
 22 23  1  0  0  0  0
 22 26  1  0  0  0  0
 23 24  1  0  0  0  0
 23 25  1  0  0  0  0
 26 27  1  0  0  0  0
 26 28  1  0  0  0  0
 29 30  2  0  0  0  0
 29 31  1  0  0  0  0
 31 32  1  0  0  0  0
 31 33  1  0  0  0  0
 33 34  1  0  0  0  0
 33 35  1  0  0  0  0
 33 36  1  0  0  0  0
M  CHG  1  20   1
M  END
$$$$

  -OEChem-02172215453D

 36 35  0     1  0  0  0  0  0999 V2000
   -3.6829   -2.0466    1.3323 H   0  0  0  0  0  0  0  0  0  0  0  0
   -3.7928   -1.0027    1.0245 C   0  0  0  0  0  0  0  0  0  0  0  0
   -4.1651   -0.4257    1.8744 H   0  0  0  0  0  0  0  0  0  0  0  0
   -4.5157   -0.9507    0.2072 H   0  0  0  0  0  0  0  0  0  0  0  0
   -2.4547   -0.4510    0.5733 C   0  0  0  0  0  0  0  0  0  0  0  0
   -1.4796   -1.1826    0.5103 O   0  0  0  0  0  0  0  0  0  0  0  0
   -2.3554    0.8520    0.1152 N   0  0  0  0  0  0  0  0  0  0  0  0
   -3.2109    1.3785    0.2566 H   0  0  0  0  0  0  0  0  0  0  0  0
   -1.1060    1.6245    0.2726 C   0  0  1  0  0  0  0  0  0  0  0  0
   -0.4762    1.4294   -0.6009 H   0  0  0  0  0  0  0  0  0  0  0  0
   -1.4455    3.1253    0.3254 C   0  0  0  0  0  0  0  0  0  0  0  0
   -2.1728    3.3038    1.1256 H   0  0  0  0  0  0  0  0  0  0  0  0
   -0.5372    3.6847    0.5770 H   0  0  0  0  0  0  0  0  0  0  0  0
   -1.9943    3.6495   -1.0085 C   0  0  0  0  0  0  0  0  0  0  0  0
   -1.2535    3.4897   -1.7998 H   0  0  0  0  0  0  0  0  0  0  0  0
   -2.9048    3.1047   -1.2799 H   0  0  0  0  0  0  0  0  0  0  0  0
   -2.3044    5.1391   -0.8721 C   0  0  0  0  0  0  0  0  0  0  0  0
   -3.0269    5.2785   -0.0601 H   0  0  0  0  0  0  0  0  0  0  0  0
   -1.3836    5.6727   -0.6113 H   0  0  0  0  0  0  0  0  0  0  0  0
   -2.8563    5.6669   -2.1335 N   0  3  0  0  0  0  0  0  0  0  0  0
   -2.8958    5.0298   -2.9280 H   0  0  0  0  0  0  0  0  0  0  0  0
   -3.2615    6.8958   -2.2813 C   0  0  0  0  0  0  0  0  0  0  0  0
   -3.2024    7.8076   -1.2517 N   0  0  0  0  0  0  0  0  0  0  0  0
   -2.6851    7.5508   -0.4133 H   0  0  0  0  0  0  0  0  0  0  0  0
   -3.3113    8.7973   -1.4643 H   0  0  0  0  0  0  0  0  0  0  0  0
   -3.7601    7.3066   -3.4947 N   0  0  0  0  0  0  0  0  0  0  0  0
   -3.9649    6.6079   -4.2065 H   0  0  0  0  0  0  0  0  0  0  0  0
   -4.2516    8.1975   -3.5436 H   0  0  0  0  0  0  0  0  0  0  0  0
   -0.2661    1.2512    1.5217 C   0  0  0  0  0  0  0  0  0  0  0  0
   -0.7908    1.3372    2.6262 O   0  0  0  0  0  0  0  0  0  0  0  0
    1.1030    1.0783    1.4287 N   0  0  0  0  0  0  0  0  0  0  0  0
    1.4676    0.8541    0.5073 H   0  0  0  0  0  0  0  0  0  0  0  0
    1.9167    0.7229    2.5868 C   0  0  0  0  0  0  0  0  0  0  0  0
    1.5976   -0.2415    2.9967 H   0  0  0  0  0  0  0  0  0  0  0  0
    2.9706    0.6478    2.3019 H   0  0  0  0  0  0  0  0  0  0  0  0
    1.8266    1.4835    3.3697 H   0  0  0  0  0  0  0  0  0  0  0  0
  1  2  1  0  0  0  0
  2  3  1  0  0  0  0
  2  4  1  0  0  0  0
  2  5  1  0  0  0  0
  5  6  2  0  0  0  0
  5  7  1  0  0  0  0
  7  8  1  0  0  0  0
  7  9  1  0  0  0  0
  9 10  1  0  0  0  0
  9 11  1  0  0  0  0
  9 29  1  0  0  0  0
 11 12  1  0  0  0  0
 11 13  1  0  0  0  0
 11 14  1  0  0  0  0
 14 15  1  0  0  0  0
 14 16  1  0  0  0  0
 14 17  1  0  0  0  0
 17 18  1  0  0  0  0
 17 19  1  0  0  0  0
 17 20  1  0  0  0  0
 20 21  1  0  0  0  0
 20 22  2  0  0  0  0
 22 23  1  0  0  0  0
 22 26  1  0  0  0  0
 23 24  1  0  0  0  0
 23 25  1  0  0  0  0
 26 27  1  0  0  0  0
 26 28  1  0  0  0  0
 29 30  2  0  0  0  0
 29 31  1  0  0  0  0
 31 32  1  0  0  0  0
 31 33  1  0  0  0  0
 33 34  1  0  0  0  0
 33 35  1  0  0  0  0
 33 36  1  0  0  0  0
M  CHG  1  20   1
M  END
$$$$

  -OEChem-02172215453D

 36 35  0     1  0  0  0  0  0999 V2000
   -3.6698   -2.0180    1.4031 H   0  0  0  0  0  0  0  0  0  0  0  0
   -3.7985   -1.0011    1.0215 C   0  0  0  0  0  0  0  0  0  0  0  0
   -4.1993   -0.3766    1.8237 H   0  0  0  0  0  0  0  0  0  0  0  0
   -4.5076   -1.0228    0.1909 H   0  0  0  0  0  0  0  0  0  0  0  0
   -2.4643   -0.4524    0.5547 C   0  0  0  0  0  0  0  0  0  0  0  0
   -1.4978   -1.1920    0.4578 O   0  0  0  0  0  0  0  0  0  0  0  0
   -2.3605    0.8541    0.1065 N   0  0  0  0  0  0  0  0  0  0  0  0
   -3.2126    1.3828    0.2600 H   0  0  0  0  0  0  0  0  0  0  0  0
   -1.1055    1.6175    0.2745 C   0  0  1  0  0  0  0  0  0  0  0  0
   -0.4758    1.4249   -0.5998 H   0  0  0  0  0  0  0  0  0  0  0  0
   -1.4445    3.1183    0.3390 C   0  0  0  0  0  0  0  0  0  0  0  0
   -2.1753    3.2892    1.1375 H   0  0  0  0  0  0  0  0  0  0  0  0
   -0.5391    3.6782    0.5990 H   0  0  0  0  0  0  0  0  0  0  0  0
   -1.9885    3.6505   -0.9944 C   0  0  0  0  0  0  0  0  0  0  0  0
   -1.2438    3.4946   -1.7826 H   0  0  0  0  0  0  0  0  0  0  0  0
   -2.8967    3.1057   -1.2734 H   0  0  0  0  0  0  0  0  0  0  0  0
   -2.3020    5.1400   -0.8583 C   0  0  0  0  0  0  0  0  0  0  0  0
   -3.0294    5.2788   -0.0505 H   0  0  0  0  0  0  0  0  0  0  0  0
   -1.3835    5.6762   -0.5935 H   0  0  0  0  0  0  0  0  0  0  0  0
   -2.8487    5.6638   -2.1241 N   0  3  0  0  0  0  0  0  0  0  0  0
   -2.8821    5.0242   -2.9170 H   0  0  0  0  0  0  0  0  0  0  0  0
   -3.2570    6.8911   -2.2785 C   0  0  0  0  0  0  0  0  0  0  0  0
   -3.2066    7.8069   -1.2518 N   0  0  0  0  0  0  0  0  0  0  0  0
   -2.6899    7.5547   -0.4116 H   0  0  0  0  0  0  0  0  0  0  0  0
   -3.3112    8.7956   -1.4715 H   0  0  0  0  0  0  0  0  0  0  0  0
   -3.7517    7.2958   -3.4958 N   0  0  0  0  0  0  0  0  0  0  0  0
   -3.9580    6.5919   -4.2022 H   0  0  0  0  0  0  0  0  0  0  0  0
   -4.2477    8.1841   -3.5482 H   0  0  0  0  0  0  0  0  0  0  0  0
   -0.2617    1.2381    1.5206 C   0  0  0  0  0  0  0  0  0  0  0  0
   -0.8263    1.1385    2.6042 O   0  0  0  0  0  0  0  0  0  0  0  0
    1.1163    1.3640    1.4961 N   0  0  0  0  0  0  0  0  0  0  0  0
    1.5595    1.3403    0.5826 H   0  0  0  0  0  0  0  0  0  0  0  0
    1.9439    1.0741    2.6634 C   0  0  0  0  0  0  0  0  0  0  0  0
    1.8018    0.0369    2.9860 H   0  0  0  0  0  0  0  0  0  0  0  0
    3.0018    1.2203    2.4244 H   0  0  0  0  0  0  0  0  0  0  0  0
    1.6852    1.7385    3.4946 H   0  0  0  0  0  0  0  0  0  0  0  0
  1  2  1  0  0  0  0
  2  3  1  0  0  0  0
  2  4  1  0  0  0  0
  2  5  1  0  0  0  0
  5  6  2  0  0  0  0
  5  7  1  0  0  0  0
  7  8  1  0  0  0  0
  7  9  1  0  0  0  0
  9 10  1  0  0  0  0
  9 11  1  0  0  0  0
  9 29  1  0  0  0  0
 11 12  1  0  0  0  0
 11 13  1  0  0  0  0
 11 14  1  0  0  0  0
 14 15  1  0  0  0  0
 14 16  1  0  0  0  0
 14 17  1  0  0  0  0
 17 18  1  0  0  0  0
 17 19  1  0  0  0  0
 17 20  1  0  0  0  0
 20 21  1  0  0  0  0
 20 22  2  0  0  0  0
 22 23  1  0  0  0  0
 22 26  1  0  0  0  0
 23 24  1  0  0  0  0
 23 25  1  0  0  0  0
 26 27  1  0  0  0  0
 26 28  1  0  0  0  0
 29 30  2  0  0  0  0
 29 31  1  0  0  0  0
 31 32  1  0  0  0  0
 31 33  1  0  0  0  0
 33 34  1  0  0  0  0
 33 35  1  0  0  0  0
 33 36  1  0  0  0  0
M  CHG  1  20   1
M  END
$$$$

  -OEChem-02172215453D

 36 35  0     1  0  0  0  0  0999 V2000
   -3.6999   -2.0369    1.3157 H   0  0  0  0  0  0  0  0  0  0  0  0
   -3.8038   -0.9873    1.0261 C   0  0  0  0  0  0  0  0  0  0  0  0
   -4.1321   -0.4164    1.8978 H   0  0  0  0  0  0  0  0  0  0  0  0
   -4.5573   -0.9111    0.2389 H   0  0  0  0  0  0  0  0  0  0  0  0
   -2.4737   -0.4529    0.5319 C   0  0  0  0  0  0  0  0  0  0  0  0
   -1.5246   -1.2060    0.3826 O   0  0  0  0  0  0  0  0  0  0  0  0
   -2.3595    0.8573    0.0981 N   0  0  0  0  0  0  0  0  0  0  0  0
   -3.2037    1.3902    0.2769 H   0  0  0  0  0  0  0  0  0  0  0  0
   -1.0977    1.6089    0.2766 C   0  0  1  0  0  0  0  0  0  0  0  0
   -0.4684    1.4183   -0.5986 H   0  0  0  0  0  0  0  0  0  0  0  0
   -1.4413    3.1095    0.3468 C   0  0  0  0  0  0  0  0  0  0  0  0
   -2.1754    3.2750    1.1437 H   0  0  0  0  0  0  0  0  0  0  0  0
   -0.5403    3.6741    0.6107 H   0  0  0  0  0  0  0  0  0  0  0  0
   -1.9801    3.6451   -0.9881 C   0  0  0  0  0  0  0  0  0  0  0  0
   -1.2308    3.4940   -1.7728 H   0  0  0  0  0  0  0  0  0  0  0  0
   -2.8850    3.0981   -1.2735 H   0  0  0  0  0  0  0  0  0  0  0  0
   -2.3004    5.1334   -0.8516 C   0  0  0  0  0  0  0  0  0  0  0  0
   -3.0323    5.2689   -0.0473 H   0  0  0  0  0  0  0  0  0  0  0  0
   -1.3850    5.6723   -0.5820 H   0  0  0  0  0  0  0  0  0  0  0  0
   -2.8416    5.6565   -2.1205 N   0  3  0  0  0  0  0  0  0  0  0  0
   -2.8689    5.0167   -2.9137 H   0  0  0  0  0  0  0  0  0  0  0  0
   -3.2545    6.8821   -2.2773 C   0  0  0  0  0  0  0  0  0  0  0  0
   -3.2151    7.7979   -1.2501 N   0  0  0  0  0  0  0  0  0  0  0  0
   -2.7076    7.5485   -0.4034 H   0  0  0  0  0  0  0  0  0  0  0  0
   -3.3331    8.7857   -1.4672 H   0  0  0  0  0  0  0  0  0  0  0  0
   -3.7436    7.2847   -3.4976 N   0  0  0  0  0  0  0  0  0  0  0  0
   -3.9371    6.5814   -4.2081 H   0  0  0  0  0  0  0  0  0  0  0  0
   -4.2412    8.1717   -3.5553 H   0  0  0  0  0  0  0  0  0  0  0  0
   -0.2459    1.2217    1.5182 C   0  0  0  0  0  0  0  0  0  0  0  0
   -0.8164    0.9328    2.5641 O   0  0  0  0  0  0  0  0  0  0  0  0
    1.0754    1.6290    1.5997 N   0  0  0  0  0  0  0  0  0  0  0  0
    1.5561    1.8039    0.7226 H   0  0  0  0  0  0  0  0  0  0  0  0
    1.8881    1.4169    2.7945 C   0  0  0  0  0  0  0  0  0  0  0  0
    1.9439    0.3499    3.0360 H   0  0  0  0  0  0  0  0  0  0  0  0
    2.9044    1.7896    2.6334 H   0  0  0  0  0  0  0  0  0  0  0  0
    1.4593    1.9478    3.6512 H   0  0  0  0  0  0  0  0  0  0  0  0
  1  2  1  0  0  0  0
  2  3  1  0  0  0  0
  2  4  1  0  0  0  0
  2  5  1  0  0  0  0
  5  6  2  0  0  0  0
  5  7  1  0  0  0  0
  7  8  1  0  0  0  0
  7  9  1  0  0  0  0
  9 10  1  0  0  0  0
  9 11  1  0  0  0  0
  9 29  1  0  0  0  0
 11 12  1  0  0  0  0
 11 13  1  0  0  0  0
 11 14  1  0  0  0  0
 14 15  1  0  0  0  0
 14 16  1  0  0  0  0
 14 17  1  0  0  0  0
 17 18  1  0  0  0  0
 17 19  1  0  0  0  0
 17 20  1  0  0  0  0
 20 21  1  0  0  0  0
 20 22  2  0  0  0  0
 22 23  1  0  0  0  0
 22 26  1  0  0  0  0
 23 24  1  0  0  0  0
 23 25  1  0  0  0  0
 26 27  1  0  0  0  0
 26 28  1  0  0  0  0
 29 30  2  0  0  0  0
 29 31  1  0  0  0  0
 31 32  1  0  0  0  0
 31 33  1  0  0  0  0
 33 34  1  0  0  0  0
 33 35  1  0  0  0  0
 33 36  1  0  0  0  0
M  CHG  1  20   1
M  END
$$$$

  -OEChem-02172215453D

 36 35  0     1  0  0  0  0  0999 V2000
   -3.8389   -1.9399    1.2716 H   0  0  0  0  0  0  0  0  0  0  0  0
   -3.8782   -0.8740    1.0292 C   0  0  0  0  0  0  0  0  0  0  0  0
   -4.0905   -0.3168    1.9445 H   0  0  0  0  0  0  0  0  0  0  0  0
   -4.6801   -0.7059    0.3070 H   0  0  0  0  0  0  0  0  0  0  0  0
   -2.5497   -0.4288    0.4496 C   0  0  0  0  0  0  0  0  0  0  0  0
   -1.7243   -1.2580    0.1051 O   0  0  0  0  0  0  0  0  0  0  0  0
   -2.3509    0.8887    0.0747 N   0  0  0  0  0  0  0  0  0  0  0  0
   -3.1698    1.4516    0.2720 H   0  0  0  0  0  0  0  0  0  0  0  0
   -1.0648    1.5957    0.2894 C   0  0  1  0  0  0  0  0  0  0  0  0
   -0.5529    1.6365   -0.6770 H   0  0  0  0  0  0  0  0  0  0  0  0
   -1.4205    3.0300    0.7418 C   0  0  0  0  0  0  0  0  0  0  0  0
   -2.0686    2.9773    1.6241 H   0  0  0  0  0  0  0  0  0  0  0  0
   -0.5105    3.5607    1.0399 H   0  0  0  0  0  0  0  0  0  0  0  0
   -2.1031    3.8428   -0.3703 C   0  0  0  0  0  0  0  0  0  0  0  0
   -1.4375    3.9074   -1.2384 H   0  0  0  0  0  0  0  0  0  0  0  0
   -3.0270    3.3481   -0.6882 H   0  0  0  0  0  0  0  0  0  0  0  0
   -2.4247    5.2451    0.1455 C   0  0  0  0  0  0  0  0  0  0  0  0
   -3.0696    5.1625    1.0278 H   0  0  0  0  0  0  0  0  0  0  0  0
   -1.4928    5.7388    0.4431 H   0  0  0  0  0  0  0  0  0  0  0  0
   -3.1019    6.0312   -0.9028 N   0  3  0  0  0  0  0  0  0  0  0  0
   -3.2051    5.5957   -1.8187 H   0  0  0  0  0  0  0  0  0  0  0  0
   -3.5427    7.2437   -0.7219 C   0  0  0  0  0  0  0  0  0  0  0  0
   -3.4059    7.8931    0.4844 N   0  0  0  0  0  0  0  0  0  0  0  0
   -2.8125    7.4683    1.1940 H   0  0  0  0  0  0  0  0  0  0  0  0
   -3.5535    8.8999    0.5209 H   0  0  0  0  0  0  0  0  0  0  0  0
   -4.1566    7.9051   -1.7591 N   0  0  0  0  0  0  0  0  0  0  0  0
   -4.4116    7.3840   -2.5961 H   0  0  0  0  0  0  0  0  0  0  0  0
   -4.6624    8.7664   -1.5591 H   0  0  0  0  0  0  0  0  0  0  0  0
   -0.0239    0.9783    1.2760 C   0  0  0  0  0  0  0  0  0  0  0  0
   -0.4044    0.2985    2.2206 O   0  0  0  0  0  0  0  0  0  0  0  0
    1.1838    1.6326    1.4707 N   0  0  0  0  0  0  0  0  0  0  0  0
    1.5318    2.1902    0.6973 H   0  0  0  0  0  0  0  0  0  0  0  0
    2.1270    1.2629    2.5242 C   0  0  0  0  0  0  0  0  0  0  0  0
    2.3974    0.2042    2.4438 H   0  0  0  0  0  0  0  0  0  0  0  0
    3.0404    1.8600    2.4429 H   0  0  0  0  0  0  0  0  0  0  0  0
    1.6891    1.4385    3.5127 H   0  0  0  0  0  0  0  0  0  0  0  0
  1  2  1  0  0  0  0
  2  3  1  0  0  0  0
  2  4  1  0  0  0  0
  2  5  1  0  0  0  0
  5  6  2  0  0  0  0
  5  7  1  0  0  0  0
  7  8  1  0  0  0  0
  7  9  1  0  0  0  0
  9 10  1  0  0  0  0
  9 11  1  0  0  0  0
  9 29  1  0  0  0  0
 11 12  1  0  0  0  0
 11 13  1  0  0  0  0
 11 14  1  0  0  0  0
 14 15  1  0  0  0  0
 14 16  1  0  0  0  0
 14 17  1  0  0  0  0
 17 18  1  0  0  0  0
 17 19  1  0  0  0  0
 17 20  1  0  0  0  0
 20 21  1  0  0  0  0
 20 22  2  0  0  0  0
 22 23  1  0  0  0  0
 22 26  1  0  0  0  0
 23 24  1  0  0  0  0
 23 25  1  0  0  0  0
 26 27  1  0  0  0  0
 26 28  1  0  0  0  0
 29 30  2  0  0  0  0
 29 31  1  0  0  0  0
 31 32  1  0  0  0  0
 31 33  1  0  0  0  0
 33 34  1  0  0  0  0
 33 35  1  0  0  0  0
 33 36  1  0  0  0  0
M  CHG  1  20   1
M  END
$$$$

  -OEChem-02172215453D

 36 35  0     1  0  0  0  0  0999 V2000
   -3.8143   -1.9254    1.2326 H   0  0  0  0  0  0  0  0  0  0  0  0
   -3.8388   -0.8446    1.0667 C   0  0  0  0  0  0  0  0  0  0  0  0
   -3.9499   -0.3478    2.0332 H   0  0  0  0  0  0  0  0  0  0  0  0
   -4.6947   -0.6039    0.4327 H   0  0  0  0  0  0  0  0  0  0  0  0
   -2.5521   -0.3985    0.4005 C   0  0  0  0  0  0  0  0  0  0  0  0
   -1.8071   -1.2221   -0.1022 O   0  0  0  0  0  0  0  0  0  0  0  0
   -2.3413    0.9327    0.0893 N   0  0  0  0  0  0  0  0  0  0  0  0
   -3.1504    1.4869    0.3425 H   0  0  0  0  0  0  0  0  0  0  0  0
   -1.0528    1.6295    0.3317 C   0  0  1  0  0  0  0  0  0  0  0  0
   -0.5429    1.6900   -0.6351 H   0  0  0  0  0  0  0  0  0  0  0  0
   -1.4306    3.0604    0.7879 C   0  0  0  0  0  0  0  0  0  0  0  0
   -2.0966    2.9991    1.6563 H   0  0  0  0  0  0  0  0  0  0  0  0
   -0.5367    3.6069    1.1025 H   0  0  0  0  0  0  0  0  0  0  0  0
   -2.0952    3.8681   -0.3401 C   0  0  0  0  0  0  0  0  0  0  0  0
   -1.4088    3.9385   -1.1915 H   0  0  0  0  0  0  0  0  0  0  0  0
   -3.0047    3.3635   -0.6825 H   0  0  0  0  0  0  0  0  0  0  0  0
   -2.4478    5.2691    0.1593 C   0  0  0  0  0  0  0  0  0  0  0  0
   -3.1155    5.1842    1.0241 H   0  0  0  0  0  0  0  0  0  0  0  0
   -1.5307    5.7773    0.4773 H   0  0  0  0  0  0  0  0  0  0  0  0
   -3.1063    6.0354   -0.9154 N   0  3  0  0  0  0  0  0  0  0  0  0
   -3.1759    5.5890   -1.8293 H   0  0  0  0  0  0  0  0  0  0  0  0
   -3.5703    7.2430   -0.7633 C   0  0  0  0  0  0  0  0  0  0  0  0
   -3.4799    7.9118    0.4365 N   0  0  0  0  0  0  0  0  0  0  0  0
   -2.9011    7.5080    1.1699 H   0  0  0  0  0  0  0  0  0  0  0  0
   -3.6463    8.9163    0.4535 H   0  0  0  0  0  0  0  0  0  0  0  0
   -4.1670    7.8782   -1.8265 N   0  0  0  0  0  0  0  0  0  0  0  0
   -4.3944    7.3379   -2.6591 H   0  0  0  0  0  0  0  0  0  0  0  0
   -4.6970    8.7302   -1.6511 H   0  0  0  0  0  0  0  0  0  0  0  0
    0.0144    0.9901    1.2859 C   0  0  0  0  0  0  0  0  0  0  0  0
   -0.2452    0.0242    1.9882 O   0  0  0  0  0  0  0  0  0  0  0  0
    1.0685    1.7666    1.7469 N   0  0  0  0  0  0  0  0  0  0  0  0
    1.3298    2.5702    1.1860 H   0  0  0  0  0  0  0  0  0  0  0  0
    2.0011    1.3203    2.7808 C   0  0  0  0  0  0  0  0  0  0  0  0
    2.4791    0.3791    2.4874 H   0  0  0  0  0  0  0  0  0  0  0  0
    2.7826    2.0698    2.9381 H   0  0  0  0  0  0  0  0  0  0  0  0
    1.4771    1.1656    3.7301 H   0  0  0  0  0  0  0  0  0  0  0  0
  1  2  1  0  0  0  0
  2  3  1  0  0  0  0
  2  4  1  0  0  0  0
  2  5  1  0  0  0  0
  5  6  2  0  0  0  0
  5  7  1  0  0  0  0
  7  8  1  0  0  0  0
  7  9  1  0  0  0  0
  9 10  1  0  0  0  0
  9 11  1  0  0  0  0
  9 29  1  0  0  0  0
 11 12  1  0  0  0  0
 11 13  1  0  0  0  0
 11 14  1  0  0  0  0
 14 15  1  0  0  0  0
 14 16  1  0  0  0  0
 14 17  1  0  0  0  0
 17 18  1  0  0  0  0
 17 19  1  0  0  0  0
 17 20  1  0  0  0  0
 20 21  1  0  0  0  0
 20 22  2  0  0  0  0
 22 23  1  0  0  0  0
 22 26  1  0  0  0  0
 23 24  1  0  0  0  0
 23 25  1  0  0  0  0
 26 27  1  0  0  0  0
 26 28  1  0  0  0  0
 29 30  2  0  0  0  0
 29 31  1  0  0  0  0
 31 32  1  0  0  0  0
 31 33  1  0  0  0  0
 33 34  1  0  0  0  0
 33 35  1  0  0  0  0
 33 36  1  0  0  0  0
M  CHG  1  20   1
M  END
$$$$

  -OEChem-02172215453D

 36 35  0     1  0  0  0  0  0999 V2000
   -3.6866   -2.1389    1.0596 H   0  0  0  0  0  0  0  0  0  0  0  0
   -3.6607   -1.2128    0.4777 C   0  0  0  0  0  0  0  0  0  0  0  0
   -4.6831   -0.8558    0.3351 H   0  0  0  0  0  0  0  0  0  0  0  0
   -3.2126   -1.4268   -0.4953 H   0  0  0  0  0  0  0  0  0  0  0  0
   -2.8392   -0.1693    1.2096 C   0  0  0  0  0  0  0  0  0  0  0  0
   -2.6447   -0.2849    2.4073 O   0  0  0  0  0  0  0  0  0  0  0  0
   -2.5853    1.0594    0.6261 N   0  0  0  0  0  0  0  0  0  0  0  0
   -3.0807    1.1373   -0.2551 H   0  0  0  0  0  0  0  0  0  0  0  0
   -1.2357    1.6762    0.5821 C   0  0  1  0  0  0  0  0  0  0  0  0
   -0.8350    1.5750   -0.4315 H   0  0  0  0  0  0  0  0  0  0  0  0
   -1.4635    3.1749    0.8964 C   0  0  0  0  0  0  0  0  0  0  0  0
   -1.9885    3.2638    1.8548 H   0  0  0  0  0  0  0  0  0  0  0  0
   -0.5006    3.6853    0.9944 H   0  0  0  0  0  0  0  0  0  0  0  0
   -2.2499    3.9018   -0.2056 C   0  0  0  0  0  0  0  0  0  0  0  0
   -1.7102    3.8265   -1.1559 H   0  0  0  0  0  0  0  0  0  0  0  0
   -3.2338    3.4374   -0.3311 H   0  0  0  0  0  0  0  0  0  0  0  0
   -2.4299    5.3694    0.1823 C   0  0  0  0  0  0  0  0  0  0  0  0
   -2.9536    5.4209    1.1437 H   0  0  0  0  0  0  0  0  0  0  0  0
   -1.4435    5.8321    0.2993 H   0  0  0  0  0  0  0  0  0  0  0  0
   -3.2037    6.0817   -0.8518 N   0  3  0  0  0  0  0  0  0  0  0  0
   -3.4557    5.5582   -1.6890 H   0  0  0  0  0  0  0  0  0  0  0  0
   -3.5555    7.3320   -0.7551 C   0  0  0  0  0  0  0  0  0  0  0  0
   -3.2247    8.0971    0.3404 N   0  0  0  0  0  0  0  0  0  0  0  0
   -2.5703    7.7111    1.0179 H   0  0  0  0  0  0  0  0  0  0  0  0
   -3.3186    9.1093    0.2824 H   0  0  0  0  0  0  0  0  0  0  0  0
   -4.2756    7.9154   -1.7705 N   0  0  0  0  0  0  0  0  0  0  0  0
   -4.6764    7.3213   -2.4938 H   0  0  0  0  0  0  0  0  0  0  0  0
   -4.7137    8.8189   -1.5988 H   0  0  0  0  0  0  0  0  0  0  0  0
   -0.1384    1.0717    1.5147 C   0  0  0  0  0  0  0  0  0  0  0  0
    0.1022   -0.1231    1.4034 O   0  0  0  0  0  0  0  0  0  0  0  0
    0.8906    1.8422    2.0363 N   0  0  0  0  0  0  0  0  0  0  0  0
    0.7174    2.8349    2.1428 H   0  0  0  0  0  0  0  0  0  0  0  0
    2.0347    1.2650    2.7389 C   0  0  0  0  0  0  0  0  0  0  0  0
    2.6297    0.6450    2.0597 H   0  0  0  0  0  0  0  0  0  0  0  0
    2.6784    2.0568    3.1340 H   0  0  0  0  0  0  0  0  0  0  0  0
    1.6975    0.6437    3.5759 H   0  0  0  0  0  0  0  0  0  0  0  0
  1  2  1  0  0  0  0
  2  3  1  0  0  0  0
  2  4  1  0  0  0  0
  2  5  1  0  0  0  0
  5  6  2  0  0  0  0
  5  7  1  0  0  0  0
  7  8  1  0  0  0  0
  7  9  1  0  0  0  0
  9 10  1  0  0  0  0
  9 11  1  0  0  0  0
  9 29  1  0  0  0  0
 11 12  1  0  0  0  0
 11 13  1  0  0  0  0
 11 14  1  0  0  0  0
 14 15  1  0  0  0  0
 14 16  1  0  0  0  0
 14 17  1  0  0  0  0
 17 18  1  0  0  0  0
 17 19  1  0  0  0  0
 17 20  1  0  0  0  0
 20 21  1  0  0  0  0
 20 22  2  0  0  0  0
 22 23  1  0  0  0  0
 22 26  1  0  0  0  0
 23 24  1  0  0  0  0
 23 25  1  0  0  0  0
 26 27  1  0  0  0  0
 26 28  1  0  0  0  0
 29 30  2  0  0  0  0
 29 31  1  0  0  0  0
 31 32  1  0  0  0  0
 31 33  1  0  0  0  0
 33 34  1  0  0  0  0
 33 35  1  0  0  0  0
 33 36  1  0  0  0  0
M  CHG  1  20   1
M  END
$$$$

  -OEChem-02172215453D

 36 35  0     1  0  0  0  0  0999 V2000
   -3.7267   -2.1355    1.0351 H   0  0  0  0  0  0  0  0  0  0  0  0
   -3.7123   -1.1925    0.4808 C   0  0  0  0  0  0  0  0  0  0  0  0
   -4.7304   -0.8006    0.4251 H   0  0  0  0  0  0  0  0  0  0  0  0
   -3.3436   -1.3885   -0.5287 H   0  0  0  0  0  0  0  0  0  0  0  0
   -2.8067   -0.1980    1.1809 C   0  0  0  0  0  0  0  0  0  0  0  0
   -2.4999   -0.3835    2.3456 O   0  0  0  0  0  0  0  0  0  0  0  0
   -2.5727    1.0462    0.6192 N   0  0  0  0  0  0  0  0  0  0  0  0
   -3.0948    1.1531   -0.2436 H   0  0  0  0  0  0  0  0  0  0  0  0
   -1.2342    1.6861    0.5788 C   0  0  1  0  0  0  0  0  0  0  0  0
   -0.8347    1.5930   -0.4366 H   0  0  0  0  0  0  0  0  0  0  0  0
   -1.4606    3.1835    0.8933 C   0  0  0  0  0  0  0  0  0  0  0  0
   -1.9842    3.2747    1.8519 H   0  0  0  0  0  0  0  0  0  0  0  0
   -0.4941    3.6888    0.9882 H   0  0  0  0  0  0  0  0  0  0  0  0
   -2.2482    3.9076   -0.2097 C   0  0  0  0  0  0  0  0  0  0  0  0
   -1.7080    3.8314   -1.1596 H   0  0  0  0  0  0  0  0  0  0  0  0
   -3.2306    3.4407   -0.3351 H   0  0  0  0  0  0  0  0  0  0  0  0
   -2.4300    5.3765    0.1727 C   0  0  0  0  0  0  0  0  0  0  0  0
   -2.9538    5.4311    1.1338 H   0  0  0  0  0  0  0  0  0  0  0  0
   -1.4444    5.8413    0.2873 H   0  0  0  0  0  0  0  0  0  0  0  0
   -3.2052    6.0839   -0.8639 N   0  3  0  0  0  0  0  0  0  0  0  0
   -3.4536    5.5579   -1.7007 H   0  0  0  0  0  0  0  0  0  0  0  0
   -3.5586    7.3341   -0.7718 C   0  0  0  0  0  0  0  0  0  0  0  0
   -3.2286    8.1046    0.3201 N   0  0  0  0  0  0  0  0  0  0  0  0
   -2.5622    7.7267    0.9903 H   0  0  0  0  0  0  0  0  0  0  0  0
   -3.3223    9.1163    0.2538 H   0  0  0  0  0  0  0  0  0  0  0  0
   -4.2839    7.9110   -1.7871 N   0  0  0  0  0  0  0  0  0  0  0  0
   -4.6864    7.3121   -2.5054 H   0  0  0  0  0  0  0  0  0  0  0  0
   -4.7248    8.8134   -1.6174 H   0  0  0  0  0  0  0  0  0  0  0  0
   -0.1356    1.0722    1.4992 C   0  0  0  0  0  0  0  0  0  0  0  0
    0.2490   -0.0556    1.2187 O   0  0  0  0  0  0  0  0  0  0  0  0
    0.7066    1.8432    2.2862 N   0  0  0  0  0  0  0  0  0  0  0  0
    0.3566    2.7497    2.5752 H   0  0  0  0  0  0  0  0  0  0  0  0
    1.8169    1.2658    3.0398 C   0  0  0  0  0  0  0  0  0  0  0  0
    2.5566    0.8293    2.3600 H   0  0  0  0  0  0  0  0  0  0  0  0
    2.3129    2.0359    3.6383 H   0  0  0  0  0  0  0  0  0  0  0  0
    1.4556    0.4818    3.7144 H   0  0  0  0  0  0  0  0  0  0  0  0
  1  2  1  0  0  0  0
  2  3  1  0  0  0  0
  2  4  1  0  0  0  0
  2  5  1  0  0  0  0
  5  6  2  0  0  0  0
  5  7  1  0  0  0  0
  7  8  1  0  0  0  0
  7  9  1  0  0  0  0
  9 10  1  0  0  0  0
  9 11  1  0  0  0  0
  9 29  1  0  0  0  0
 11 12  1  0  0  0  0
 11 13  1  0  0  0  0
 11 14  1  0  0  0  0
 14 15  1  0  0  0  0
 14 16  1  0  0  0  0
 14 17  1  0  0  0  0
 17 18  1  0  0  0  0
 17 19  1  0  0  0  0
 17 20  1  0  0  0  0
 20 21  1  0  0  0  0
 20 22  2  0  0  0  0
 22 23  1  0  0  0  0
 22 26  1  0  0  0  0
 23 24  1  0  0  0  0
 23 25  1  0  0  0  0
 26 27  1  0  0  0  0
 26 28  1  0  0  0  0
 29 30  2  0  0  0  0
 29 31  1  0  0  0  0
 31 32  1  0  0  0  0
 31 33  1  0  0  0  0
 33 34  1  0  0  0  0
 33 35  1  0  0  0  0
 33 36  1  0  0  0  0
M  CHG  1  20   1
M  END
$$$$

  -OEChem-02172215453D

 36 35  0     1  0  0  0  0  0999 V2000
   -3.7881   -2.1328    0.9741 H   0  0  0  0  0  0  0  0  0  0  0  0
   -3.7960   -1.1565    0.4802 C   0  0  0  0  0  0  0  0  0  0  0  0
   -4.7982   -0.7291    0.5597 H   0  0  0  0  0  0  0  0  0  0  0  0
   -3.5457   -1.2990   -0.5736 H   0  0  0  0  0  0  0  0  0  0  0  0
   -2.7833   -0.2376    1.1364 C   0  0  0  0  0  0  0  0  0  0  0  0
   -2.3493   -0.5226    2.2381 O   0  0  0  0  0  0  0  0  0  0  0  0
   -2.5522    1.0209    0.6042 N   0  0  0  0  0  0  0  0  0  0  0  0
   -3.1080    1.1757   -0.2298 H   0  0  0  0  0  0  0  0  0  0  0  0
   -1.2261    1.6854    0.5795 C   0  0  1  0  0  0  0  0  0  0  0  0
   -0.8243    1.6040   -0.4362 H   0  0  0  0  0  0  0  0  0  0  0  0
   -1.4573    3.1800    0.8980 C   0  0  0  0  0  0  0  0  0  0  0  0
   -1.9914    3.2671    1.8510 H   0  0  0  0  0  0  0  0  0  0  0  0
   -0.4896    3.6820    1.0066 H   0  0  0  0  0  0  0  0  0  0  0  0
   -2.2394    3.9036   -0.2087 C   0  0  0  0  0  0  0  0  0  0  0  0
   -1.6914    3.8309   -1.1547 H   0  0  0  0  0  0  0  0  0  0  0  0
   -3.2190    3.4329   -0.3422 H   0  0  0  0  0  0  0  0  0  0  0  0
   -2.4290    5.3715    0.1735 C   0  0  0  0  0  0  0  0  0  0  0  0
   -2.9589    5.4252    1.1312 H   0  0  0  0  0  0  0  0  0  0  0  0
   -1.4454    5.8392    0.2951 H   0  0  0  0  0  0  0  0  0  0  0  0
   -3.1996    6.0748   -0.8697 N   0  3  0  0  0  0  0  0  0  0  0  0
   -3.4368    5.5473   -1.7088 H   0  0  0  0  0  0  0  0  0  0  0  0
   -3.5597    7.3237   -0.7823 C   0  0  0  0  0  0  0  0  0  0  0  0
   -3.2422    8.0979    0.3109 N   0  0  0  0  0  0  0  0  0  0  0  0
   -2.5808    7.7238    0.9882 H   0  0  0  0  0  0  0  0  0  0  0  0
   -3.3385    9.1093    0.2415 H   0  0  0  0  0  0  0  0  0  0  0  0
   -4.2757    7.8967   -1.8064 N   0  0  0  0  0  0  0  0  0  0  0  0
   -4.6652    7.2966   -2.5309 H   0  0  0  0  0  0  0  0  0  0  0  0
   -4.7197    8.7992   -1.6446 H   0  0  0  0  0  0  0  0  0  0  0  0
   -0.1181    1.0786    1.4887 C   0  0  0  0  0  0  0  0  0  0  0  0
    0.4344    0.0653    1.0815 O   0  0  0  0  0  0  0  0  0  0  0  0
    0.5004    1.7922    2.5033 N   0  0  0  0  0  0  0  0  0  0  0  0
   -0.0356    2.5521    2.9080 H   0  0  0  0  0  0  0  0  0  0  0  0
    1.5843    1.2233    3.2995 C   0  0  0  0  0  0  0  0  0  0  0  0
    2.4526    1.0057    2.6682 H   0  0  0  0  0  0  0  0  0  0  0  0
    1.8940    1.9267    4.0783 H   0  0  0  0  0  0  0  0  0  0  0  0
    1.2592    0.2939    3.7803 H   0  0  0  0  0  0  0  0  0  0  0  0
  1  2  1  0  0  0  0
  2  3  1  0  0  0  0
  2  4  1  0  0  0  0
  2  5  1  0  0  0  0
  5  6  2  0  0  0  0
  5  7  1  0  0  0  0
  7  8  1  0  0  0  0
  7  9  1  0  0  0  0
  9 10  1  0  0  0  0
  9 11  1  0  0  0  0
  9 29  1  0  0  0  0
 11 12  1  0  0  0  0
 11 13  1  0  0  0  0
 11 14  1  0  0  0  0
 14 15  1  0  0  0  0
 14 16  1  0  0  0  0
 14 17  1  0  0  0  0
 17 18  1  0  0  0  0
 17 19  1  0  0  0  0
 17 20  1  0  0  0  0
 20 21  1  0  0  0  0
 20 22  2  0  0  0  0
 22 23  1  0  0  0  0
 22 26  1  0  0  0  0
 23 24  1  0  0  0  0
 23 25  1  0  0  0  0
 26 27  1  0  0  0  0
 26 28  1  0  0  0  0
 29 30  2  0  0  0  0
 29 31  1  0  0  0  0
 31 32  1  0  0  0  0
 31 33  1  0  0  0  0
 33 34  1  0  0  0  0
 33 35  1  0  0  0  0
 33 36  1  0  0  0  0
M  CHG  1  20   1
M  END
$$$$

  -OEChem-02172215453D

 36 35  0     1  0  0  0  0  0999 V2000
   -3.8738   -2.1208    0.9774 H   0  0  0  0  0  0  0  0  0  0  0  0
   -3.8592   -1.1422    0.4885 C   0  0  0  0  0  0  0  0  0  0  0  0
   -4.8325   -0.6660    0.6266 H   0  0  0  0  0  0  0  0  0  0  0  0
   -3.6772   -1.2898   -0.5786 H   0  0  0  0  0  0  0  0  0  0  0  0
   -2.7660   -0.2792    1.0894 C   0  0  0  0  0  0  0  0  0  0  0  0
   -2.2318   -0.6376    2.1231 O   0  0  0  0  0  0  0  0  0  0  0  0
   -2.5338    0.9853    0.5703 N   0  0  0  0  0  0  0  0  0  0  0  0
   -3.1168    1.1765   -0.2372 H   0  0  0  0  0  0  0  0  0  0  0  0
   -1.2195    1.6727    0.5635 C   0  0  1  0  0  0  0  0  0  0  0  0
   -0.8118    1.5990   -0.4506 H   0  0  0  0  0  0  0  0  0  0  0  0
   -1.4596    3.1643    0.8844 C   0  0  0  0  0  0  0  0  0  0  0  0
   -2.0036    3.2464    1.8319 H   0  0  0  0  0  0  0  0  0  0  0  0
   -0.4920    3.6640    1.0088 H   0  0  0  0  0  0  0  0  0  0  0  0
   -2.2337    3.8928   -0.2239 C   0  0  0  0  0  0  0  0  0  0  0  0
   -1.6768    3.8280   -1.1654 H   0  0  0  0  0  0  0  0  0  0  0  0
   -3.2107    3.4205   -0.3684 H   0  0  0  0  0  0  0  0  0  0  0  0
   -2.4283    5.3576    0.1689 C   0  0  0  0  0  0  0  0  0  0  0  0
   -2.9658    5.4027    1.1229 H   0  0  0  0  0  0  0  0  0  0  0  0
   -1.4463    5.8252    0.3019 H   0  0  0  0  0  0  0  0  0  0  0  0
   -3.1910    6.0708   -0.8726 N   0  3  0  0  0  0  0  0  0  0  0  0
   -3.4171    5.5537   -1.7212 H   0  0  0  0  0  0  0  0  0  0  0  0
   -3.5516    7.3187   -0.7745 C   0  0  0  0  0  0  0  0  0  0  0  0
   -3.2422    8.0814    0.3290 N   0  0  0  0  0  0  0  0  0  0  0  0
   -2.5817    7.7013    1.0040 H   0  0  0  0  0  0  0  0  0  0  0  0
   -3.3341    9.0935    0.2658 H   0  0  0  0  0  0  0  0  0  0  0  0
   -4.2585    7.9041   -1.7978 N   0  0  0  0  0  0  0  0  0  0  0  0
   -4.6432    7.3136   -2.5328 H   0  0  0  0  0  0  0  0  0  0  0  0
   -4.7005    8.8064   -1.6298 H   0  0  0  0  0  0  0  0  0  0  0  0
   -0.1055    1.0908    1.4784 C   0  0  0  0  0  0  0  0  0  0  0  0
    0.6259    0.2380    0.9936 O   0  0  0  0  0  0  0  0  0  0  0  0
    0.2709    1.6915    2.6690 N   0  0  0  0  0  0  0  0  0  0  0  0
   -0.4404    2.2569    3.1203 H   0  0  0  0  0  0  0  0  0  0  0  0
    1.3242    1.1316    3.5108 C   0  0  0  0  0  0  0  0  0  0  0  0
    2.2801    1.1216    2.9764 H   0  0  0  0  0  0  0  0  0  0  0  0
    1.4450    1.7311    4.4181 H   0  0  0  0  0  0  0  0  0  0  0  0
    1.0749    0.1054    3.8029 H   0  0  0  0  0  0  0  0  0  0  0  0
  1  2  1  0  0  0  0
  2  3  1  0  0  0  0
  2  4  1  0  0  0  0
  2  5  1  0  0  0  0
  5  6  2  0  0  0  0
  5  7  1  0  0  0  0
  7  8  1  0  0  0  0
  7  9  1  0  0  0  0
  9 10  1  0  0  0  0
  9 11  1  0  0  0  0
  9 29  1  0  0  0  0
 11 12  1  0  0  0  0
 11 13  1  0  0  0  0
 11 14  1  0  0  0  0
 14 15  1  0  0  0  0
 14 16  1  0  0  0  0
 14 17  1  0  0  0  0
 17 18  1  0  0  0  0
 17 19  1  0  0  0  0
 17 20  1  0  0  0  0
 20 21  1  0  0  0  0
 20 22  2  0  0  0  0
 22 23  1  0  0  0  0
 22 26  1  0  0  0  0
 23 24  1  0  0  0  0
 23 25  1  0  0  0  0
 26 27  1  0  0  0  0
 26 28  1  0  0  0  0
 29 30  2  0  0  0  0
 29 31  1  0  0  0  0
 31 32  1  0  0  0  0
 31 33  1  0  0  0  0
 33 34  1  0  0  0  0
 33 35  1  0  0  0  0
 33 36  1  0  0  0  0
M  CHG  1  20   1
M  END
$$$$

  -OEChem-02172215453D

 36 35  0     1  0  0  0  0  0999 V2000
   -3.9440   -2.1169    0.9367 H   0  0  0  0  0  0  0  0  0  0  0  0
   -3.9339   -1.1168    0.4933 C   0  0  0  0  0  0  0  0  0  0  0  0
   -4.8709   -0.6131    0.7413 H   0  0  0  0  0  0  0  0  0  0  0  0
   -3.8541   -1.2189   -0.5915 H   0  0  0  0  0  0  0  0  0  0  0  0
   -2.7582   -0.3230    1.0306 C   0  0  0  0  0  0  0  0  0  0  0  0
   -2.1289   -0.7690    1.9716 O   0  0  0  0  0  0  0  0  0  0  0  0
   -2.5177    0.9493    0.5344 N   0  0  0  0  0  0  0  0  0  0  0  0
   -3.1342    1.1937   -0.2331 H   0  0  0  0  0  0  0  0  0  0  0  0
   -1.2156    1.6588    0.5565 C   0  0  1  0  0  0  0  0  0  0  0  0
   -0.7972    1.5963   -0.4544 H   0  0  0  0  0  0  0  0  0  0  0  0
   -1.4654    3.1456    0.8842 C   0  0  0  0  0  0  0  0  0  0  0  0
   -2.0253    3.2196    1.8231 H   0  0  0  0  0  0  0  0  0  0  0  0
   -0.5005    3.6449    1.0317 H   0  0  0  0  0  0  0  0  0  0  0  0
   -2.2248    3.8785   -0.2305 C   0  0  0  0  0  0  0  0  0  0  0  0
   -1.6535    3.8219   -1.1640 H   0  0  0  0  0  0  0  0  0  0  0  0
   -3.1978    3.4042   -0.3938 H   0  0  0  0  0  0  0  0  0  0  0  0
   -2.4292    5.3394    0.1709 C   0  0  0  0  0  0  0  0  0  0  0  0
   -2.9798    5.3755    1.1176 H   0  0  0  0  0  0  0  0  0  0  0  0
   -1.4497    5.8070    0.3217 H   0  0  0  0  0  0  0  0  0  0  0  0
   -3.1780    6.0609   -0.8752 N   0  3  0  0  0  0  0  0  0  0  0  0
   -3.3900    5.5521   -1.7322 H   0  0  0  0  0  0  0  0  0  0  0  0
   -3.5416    7.3072   -0.7696 C   0  0  0  0  0  0  0  0  0  0  0  0
   -3.2476    8.0563    0.3472 N   0  0  0  0  0  0  0  0  0  0  0  0
   -2.5935    7.6674    1.0236 H   0  0  0  0  0  0  0  0  0  0  0  0
   -3.3339    9.0694    0.2931 H   0  0  0  0  0  0  0  0  0  0  0  0
   -4.2309    7.9041   -1.7984 N   0  0  0  0  0  0  0  0  0  0  0  0
   -4.5989    7.3235   -2.5495 H   0  0  0  0  0  0  0  0  0  0  0  0
   -4.6708    8.8078   -1.6323 H   0  0  0  0  0  0  0  0  0  0  0  0
   -0.0974    1.1021    1.4787 C   0  0  0  0  0  0  0  0  0  0  0  0
    0.8212    0.4908    0.9499 O   0  0  0  0  0  0  0  0  0  0  0  0
    0.0392    1.5178    2.7927 N   0  0  0  0  0  0  0  0  0  0  0  0
   -0.8185    1.8280    3.2381 H   0  0  0  0  0  0  0  0  0  0  0  0
    1.0885    0.9834    3.6555 C   0  0  0  0  0  0  0  0  0  0  0  0
    2.0781    1.2214    3.2511 H   0  0  0  0  0  0  0  0  0  0  0  0
    1.0136    1.4170    4.6572 H   0  0  0  0  0  0  0  0  0  0  0  0
    0.9967   -0.1050    3.7402 H   0  0  0  0  0  0  0  0  0  0  0  0
  1  2  1  0  0  0  0
  2  3  1  0  0  0  0
  2  4  1  0  0  0  0
  2  5  1  0  0  0  0
  5  6  2  0  0  0  0
  5  7  1  0  0  0  0
  7  8  1  0  0  0  0
  7  9  1  0  0  0  0
  9 10  1  0  0  0  0
  9 11  1  0  0  0  0
  9 29  1  0  0  0  0
 11 12  1  0  0  0  0
 11 13  1  0  0  0  0
 11 14  1  0  0  0  0
 14 15  1  0  0  0  0
 14 16  1  0  0  0  0
 14 17  1  0  0  0  0
 17 18  1  0  0  0  0
 17 19  1  0  0  0  0
 17 20  1  0  0  0  0
 20 21  1  0  0  0  0
 20 22  2  0  0  0  0
 22 23  1  0  0  0  0
 22 26  1  0  0  0  0
 23 24  1  0  0  0  0
 23 25  1  0  0  0  0
 26 27  1  0  0  0  0
 26 28  1  0  0  0  0
 29 30  2  0  0  0  0
 29 31  1  0  0  0  0
 31 32  1  0  0  0  0
 31 33  1  0  0  0  0
 33 34  1  0  0  0  0
 33 35  1  0  0  0  0
 33 36  1  0  0  0  0
M  CHG  1  20   1
M  END
$$$$

  -OEChem-02172215453D

 36 35  0     1  0  0  0  0  0999 V2000
   -4.0212   -2.1117    0.9354 H   0  0  0  0  0  0  0  0  0  0  0  0
   -3.9899   -1.1128    0.4903 C   0  0  0  0  0  0  0  0  0  0  0  0
   -4.9001   -0.5764    0.7678 H   0  0  0  0  0  0  0  0  0  0  0  0
   -3.9498   -1.2185   -0.5963 H   0  0  0  0  0  0  0  0  0  0  0  0
   -2.7693   -0.3608    0.9863 C   0  0  0  0  0  0  0  0  0  0  0  0
   -2.0925   -0.8544    1.8685 O   0  0  0  0  0  0  0  0  0  0  0  0
   -2.5159    0.9115    0.4970 N   0  0  0  0  0  0  0  0  0  0  0  0
   -3.1527    1.1883   -0.2425 H   0  0  0  0  0  0  0  0  0  0  0  0
   -1.2205    1.6335    0.5388 C   0  0  1  0  0  0  0  0  0  0  0  0
   -0.7910    1.5741   -0.4677 H   0  0  0  0  0  0  0  0  0  0  0  0
   -1.4742    3.1181    0.8711 C   0  0  0  0  0  0  0  0  0  0  0  0
   -2.0426    3.1853    1.8053 H   0  0  0  0  0  0  0  0  0  0  0  0
   -0.5103    3.6147    1.0332 H   0  0  0  0  0  0  0  0  0  0  0  0
   -2.2222    3.8620   -0.2440 C   0  0  0  0  0  0  0  0  0  0  0  0
   -1.6418    3.8131   -1.1720 H   0  0  0  0  0  0  0  0  0  0  0  0
   -3.1942    3.3908   -0.4206 H   0  0  0  0  0  0  0  0  0  0  0  0
   -2.4264    5.3194    0.1708 C   0  0  0  0  0  0  0  0  0  0  0  0
   -2.9846    5.3470    1.1132 H   0  0  0  0  0  0  0  0  0  0  0  0
   -1.4467    5.7823    0.3350 H   0  0  0  0  0  0  0  0  0  0  0  0
   -3.1644    6.0570   -0.8722 N   0  3  0  0  0  0  0  0  0  0  0  0
   -3.3696    5.5607   -1.7383 H   0  0  0  0  0  0  0  0  0  0  0  0
   -3.5239    7.3035   -0.7531 C   0  0  0  0  0  0  0  0  0  0  0  0
   -3.2361    8.0376    0.3753 N   0  0  0  0  0  0  0  0  0  0  0  0
   -2.5888    7.6382    1.0519 H   0  0  0  0  0  0  0  0  0  0  0  0
   -3.3173    9.0517    0.3324 H   0  0  0  0  0  0  0  0  0  0  0  0
   -4.2023    7.9173   -1.7793 N   0  0  0  0  0  0  0  0  0  0  0  0
   -4.5660    7.3492   -2.5419 H   0  0  0  0  0  0  0  0  0  0  0  0
   -4.6384    8.8212   -1.6050 H   0  0  0  0  0  0  0  0  0  0  0  0
   -0.1029    1.1031    1.4754 C   0  0  0  0  0  0  0  0  0  0  0  0
    0.9609    0.7772    0.9662 O   0  0  0  0  0  0  0  0  0  0  0  0
   -0.1698    1.2880    2.8457 N   0  0  0  0  0  0  0  0  0  0  0  0
   -1.1151    1.3071    3.2188 H   0  0  0  0  0  0  0  0  0  0  0  0
    0.8835    0.8020    3.7317 C   0  0  0  0  0  0  0  0  0  0  0  0
    1.8421    1.2724    3.4875 H   0  0  0  0  0  0  0  0  0  0  0  0
    0.6414    1.0370    4.7724 H   0  0  0  0  0  0  0  0  0  0  0  0
    0.9915   -0.2840    3.6375 H   0  0  0  0  0  0  0  0  0  0  0  0
  1  2  1  0  0  0  0
  2  3  1  0  0  0  0
  2  4  1  0  0  0  0
  2  5  1  0  0  0  0
  5  6  2  0  0  0  0
  5  7  1  0  0  0  0
  7  8  1  0  0  0  0
  7  9  1  0  0  0  0
  9 10  1  0  0  0  0
  9 11  1  0  0  0  0
  9 29  1  0  0  0  0
 11 12  1  0  0  0  0
 11 13  1  0  0  0  0
 11 14  1  0  0  0  0
 14 15  1  0  0  0  0
 14 16  1  0  0  0  0
 14 17  1  0  0  0  0
 17 18  1  0  0  0  0
 17 19  1  0  0  0  0
 17 20  1  0  0  0  0
 20 21  1  0  0  0  0
 20 22  2  0  0  0  0
 22 23  1  0  0  0  0
 22 26  1  0  0  0  0
 23 24  1  0  0  0  0
 23 25  1  0  0  0  0
 26 27  1  0  0  0  0
 26 28  1  0  0  0  0
 29 30  2  0  0  0  0
 29 31  1  0  0  0  0
 31 32  1  0  0  0  0
 31 33  1  0  0  0  0
 33 34  1  0  0  0  0
 33 35  1  0  0  0  0
 33 36  1  0  0  0  0
M  CHG  1  20   1
M  END
$$$$

  -OEChem-02172215453D

 36 35  0     1  0  0  0  0  0999 V2000
   -4.1293   -2.0745    0.8571 H   0  0  0  0  0  0  0  0  0  0  0  0
   -4.0848   -1.0526    0.4686 C   0  0  0  0  0  0  0  0  0  0  0  0
   -4.9525   -0.4996    0.8362 H   0  0  0  0  0  0  0  0  0  0  0  0
   -4.1196   -1.0941   -0.6225 H   0  0  0  0  0  0  0  0  0  0  0  0
   -2.8042   -0.3779    0.9235 C   0  0  0  0  0  0  0  0  0  0  0  0
   -2.0985   -0.9433    1.7365 O   0  0  0  0  0  0  0  0  0  0  0  0
   -2.5111    0.8934    0.4564 N   0  0  0  0  0  0  0  0  0  0  0  0
   -3.1704    1.2330   -0.2355 H   0  0  0  0  0  0  0  0  0  0  0  0
   -1.2136    1.6108    0.5293 C   0  0  1  0  0  0  0  0  0  0  0  0
   -0.7703    1.5616   -0.4716 H   0  0  0  0  0  0  0  0  0  0  0  0
   -1.4757    3.0892    0.8782 C   0  0  0  0  0  0  0  0  0  0  0  0
   -2.0576    3.1418    1.8051 H   0  0  0  0  0  0  0  0  0  0  0  0
   -0.5162    3.5873    1.0636 H   0  0  0  0  0  0  0  0  0  0  0  0
   -2.2057    3.8432   -0.2414 C   0  0  0  0  0  0  0  0  0  0  0  0
   -1.6075    3.8071   -1.1587 H   0  0  0  0  0  0  0  0  0  0  0  0
   -3.1727    3.3713   -0.4416 H   0  0  0  0  0  0  0  0  0  0  0  0
   -2.4230    5.2943    0.1851 C   0  0  0  0  0  0  0  0  0  0  0  0
   -2.9999    5.3084    1.1167 H   0  0  0  0  0  0  0  0  0  0  0  0
   -1.4490    5.7603    0.3733 H   0  0  0  0  0  0  0  0  0  0  0  0
   -3.1443    6.0353   -0.8665 N   0  3  0  0  0  0  0  0  0  0  0  0
   -3.3277    5.5445   -1.7406 H   0  0  0  0  0  0  0  0  0  0  0  0
   -3.5133    7.2785   -0.7457 C   0  0  0  0  0  0  0  0  0  0  0  0
   -3.2516    8.0056    0.3935 N   0  0  0  0  0  0  0  0  0  0  0  0
   -2.6116    7.6060    1.0771 H   0  0  0  0  0  0  0  0  0  0  0  0
   -3.3405    9.0193    0.3577 H   0  0  0  0  0  0  0  0  0  0  0  0
   -4.1786    7.8931   -1.7800 N   0  0  0  0  0  0  0  0  0  0  0  0
   -4.5229    7.3257   -2.5522 H   0  0  0  0  0  0  0  0  0  0  0  0
   -4.6307    8.7892   -1.6059 H   0  0  0  0  0  0  0  0  0  0  0  0
   -0.0980    1.0973    1.4763 C   0  0  0  0  0  0  0  0  0  0  0  0
    1.0465    1.0777    1.0429 O   0  0  0  0  0  0  0  0  0  0  0  0
   -0.3038    1.0035    2.8412 N   0  0  0  0  0  0  0  0  0  0  0  0
   -1.2541    0.7352    3.0896 H   0  0  0  0  0  0  0  0  0  0  0  0
    0.7583    0.5693    3.7425 C   0  0  0  0  0  0  0  0  0  0  0  0
    1.6120    1.2535    3.6907 H   0  0  0  0  0  0  0  0  0  0  0  0
    0.3954    0.5509    4.7746 H   0  0  0  0  0  0  0  0  0  0  0  0
    1.0983   -0.4374    3.4760 H   0  0  0  0  0  0  0  0  0  0  0  0
  1  2  1  0  0  0  0
  2  3  1  0  0  0  0
  2  4  1  0  0  0  0
  2  5  1  0  0  0  0
  5  6  2  0  0  0  0
  5  7  1  0  0  0  0
  7  8  1  0  0  0  0
  7  9  1  0  0  0  0
  9 10  1  0  0  0  0
  9 11  1  0  0  0  0
  9 29  1  0  0  0  0
 11 12  1  0  0  0  0
 11 13  1  0  0  0  0
 11 14  1  0  0  0  0
 14 15  1  0  0  0  0
 14 16  1  0  0  0  0
 14 17  1  0  0  0  0
 17 18  1  0  0  0  0
 17 19  1  0  0  0  0
 17 20  1  0  0  0  0
 20 21  1  0  0  0  0
 20 22  2  0  0  0  0
 22 23  1  0  0  0  0
 22 26  1  0  0  0  0
 23 24  1  0  0  0  0
 23 25  1  0  0  0  0
 26 27  1  0  0  0  0
 26 28  1  0  0  0  0
 29 30  2  0  0  0  0
 29 31  1  0  0  0  0
 31 32  1  0  0  0  0
 31 33  1  0  0  0  0
 33 34  1  0  0  0  0
 33 35  1  0  0  0  0
 33 36  1  0  0  0  0
M  CHG  1  20   1
M  END
$$$$

  -OEChem-02172215453D

 36 35  0     1  0  0  0  0  0999 V2000
   -4.2642   -2.0130    0.8333 H   0  0  0  0  0  0  0  0  0  0  0  0
   -4.1767   -0.9880    0.4607 C   0  0  0  0  0  0  0  0  0  0  0  0
   -4.9841   -0.3893    0.8887 H   0  0  0  0  0  0  0  0  0  0  0  0
   -4.2768   -1.0033   -0.6272 H   0  0  0  0  0  0  0  0  0  0  0  0
   -2.8326   -0.4046    0.8524 C   0  0  0  0  0  0  0  0  0  0  0  0
   -2.0945   -1.0584    1.5631 O   0  0  0  0  0  0  0  0  0  0  0  0
   -2.5016    0.8664    0.4118 N   0  0  0  0  0  0  0  0  0  0  0  0
   -3.1922    1.2781   -0.2064 H   0  0  0  0  0  0  0  0  0  0  0  0
   -1.2071    1.5864    0.5232 C   0  0  1  0  0  0  0  0  0  0  0  0
   -0.7432    1.5443   -0.4682 H   0  0  0  0  0  0  0  0  0  0  0  0
   -1.4941    3.0612    0.8719 C   0  0  0  0  0  0  0  0  0  0  0  0
   -2.1007    3.1009    1.7834 H   0  0  0  0  0  0  0  0  0  0  0  0
   -0.5468    3.5700    1.0869 H   0  0  0  0  0  0  0  0  0  0  0  0
   -2.1989    3.8208   -0.2605 C   0  0  0  0  0  0  0  0  0  0  0  0
   -1.5741    3.8006   -1.1607 H   0  0  0  0  0  0  0  0  0  0  0  0
   -3.1567    3.3463   -0.4946 H   0  0  0  0  0  0  0  0  0  0  0  0
   -2.4354    5.2643    0.1811 C   0  0  0  0  0  0  0  0  0  0  0  0
   -3.0350    5.2617    1.0982 H   0  0  0  0  0  0  0  0  0  0  0  0
   -1.4684    5.7306    0.4012 H   0  0  0  0  0  0  0  0  0  0  0  0
   -3.1332    6.0219   -0.8744 N   0  3  0  0  0  0  0  0  0  0  0  0
   -3.2895    5.5489   -1.7634 H   0  0  0  0  0  0  0  0  0  0  0  0
   -3.5089    7.2616   -0.7380 C   0  0  0  0  0  0  0  0  0  0  0  0
   -3.2771    7.9667    0.4213 N   0  0  0  0  0  0  0  0  0  0  0  0
   -2.6526    7.5545    1.1118 H   0  0  0  0  0  0  0  0  0  0  0  0
   -3.3625    8.9813    0.4006 H   0  0  0  0  0  0  0  0  0  0  0  0
   -4.1479    7.8967   -1.7762 N   0  0  0  0  0  0  0  0  0  0  0  0
   -4.4743    7.3441   -2.5667 H   0  0  0  0  0  0  0  0  0  0  0  0
   -4.6045    8.7893   -1.5953 H   0  0  0  0  0  0  0  0  0  0  0  0
   -0.0908    1.1006    1.4879 C   0  0  0  0  0  0  0  0  0  0  0  0
    1.0665    1.3376    1.1652 O   0  0  0  0  0  0  0  0  0  0  0  0
   -0.3546    0.7125    2.7887 N   0  0  0  0  0  0  0  0  0  0  0  0
   -1.2550    0.2440    2.8936 H   0  0  0  0  0  0  0  0  0  0  0  0
    0.7100    0.2948    3.6950 C   0  0  0  0  0  0  0  0  0  0  0  0
    1.4231    1.1105    3.8546 H   0  0  0  0  0  0  0  0  0  0  0  0
    0.2913    0.0106    4.6654 H   0  0  0  0  0  0  0  0  0  0  0  0
    1.2473   -0.5665    3.2832 H   0  0  0  0  0  0  0  0  0  0  0  0
  1  2  1  0  0  0  0
  2  3  1  0  0  0  0
  2  4  1  0  0  0  0
  2  5  1  0  0  0  0
  5  6  2  0  0  0  0
  5  7  1  0  0  0  0
  7  8  1  0  0  0  0
  7  9  1  0  0  0  0
  9 10  1  0  0  0  0
  9 11  1  0  0  0  0
  9 29  1  0  0  0  0
 11 12  1  0  0  0  0
 11 13  1  0  0  0  0
 11 14  1  0  0  0  0
 14 15  1  0  0  0  0
 14 16  1  0  0  0  0
 14 17  1  0  0  0  0
 17 18  1  0  0  0  0
 17 19  1  0  0  0  0
 17 20  1  0  0  0  0
 20 21  1  0  0  0  0
 20 22  2  0  0  0  0
 22 23  1  0  0  0  0
 22 26  1  0  0  0  0
 23 24  1  0  0  0  0
 23 25  1  0  0  0  0
 26 27  1  0  0  0  0
 26 28  1  0  0  0  0
 29 30  2  0  0  0  0
 29 31  1  0  0  0  0
 31 32  1  0  0  0  0
 31 33  1  0  0  0  0
 33 34  1  0  0  0  0
 33 35  1  0  0  0  0
 33 36  1  0  0  0  0
M  CHG  1  20   1
M  END
$$$$

  -OEChem-02172215453D

 36 35  0     1  0  0  0  0  0999 V2000
   -4.3876   -1.9334    0.8101 H   0  0  0  0  0  0  0  0  0  0  0  0
   -4.2646   -0.9006    0.4700 C   0  0  0  0  0  0  0  0  0  0  0  0
   -4.9918   -0.2723    0.9897 H   0  0  0  0  0  0  0  0  0  0  0  0
   -4.4577   -0.8626   -0.6048 H   0  0  0  0  0  0  0  0  0  0  0  0
   -2.8562   -0.4196    0.7634 C   0  0  0  0  0  0  0  0  0  0  0  0
   -2.0833   -1.1796    1.3125 O   0  0  0  0  0  0  0  0  0  0  0  0
   -2.4906    0.8571    0.3701 N   0  0  0  0  0  0  0  0  0  0  0  0
   -3.2217    1.3568   -0.1232 H   0  0  0  0  0  0  0  0  0  0  0  0
   -1.1976    1.5736    0.5293 C   0  0  1  0  0  0  0  0  0  0  0  0
   -0.7120    1.5467   -0.4522 H   0  0  0  0  0  0  0  0  0  0  0  0
   -1.5092    3.0440    0.8874 C   0  0  0  0  0  0  0  0  0  0  0  0
   -2.1448    3.0663    1.7798 H   0  0  0  0  0  0  0  0  0  0  0  0
   -0.5769    3.5632    1.1391 H   0  0  0  0  0  0  0  0  0  0  0  0
   -2.1836    3.8128   -0.2576 C   0  0  0  0  0  0  0  0  0  0  0  0
   -1.5287    3.8083   -1.1363 H   0  0  0  0  0  0  0  0  0  0  0  0
   -3.1286    3.3337   -0.5307 H   0  0  0  0  0  0  0  0  0  0  0  0
   -2.4482    5.2504    0.1908 C   0  0  0  0  0  0  0  0  0  0  0  0
   -3.0780    5.2350    1.0875 H   0  0  0  0  0  0  0  0  0  0  0  0
   -1.4936    5.7242    0.4468 H   0  0  0  0  0  0  0  0  0  0  0  0
   -3.1179    6.0111   -0.8808 N   0  3  0  0  0  0  0  0  0  0  0  0
   -3.2389    5.5447   -1.7789 H   0  0  0  0  0  0  0  0  0  0  0  0
   -3.5107    7.2459   -0.7476 C   0  0  0  0  0  0  0  0  0  0  0  0
   -3.3260    7.9449    0.4241 N   0  0  0  0  0  0  0  0  0  0  0  0
   -2.7142    7.5374    1.1286 H   0  0  0  0  0  0  0  0  0  0  0  0
   -3.4229    8.9584    0.4066 H   0  0  0  0  0  0  0  0  0  0  0  0
   -4.1238    7.8802   -1.8020 N   0  0  0  0  0  0  0  0  0  0  0  0
   -4.4162    7.3287   -2.6064 H   0  0  0  0  0  0  0  0  0  0  0  0
   -4.6008    8.7634   -1.6288 H   0  0  0  0  0  0  0  0  0  0  0  0
   -0.0842    1.0910    1.5040 C   0  0  0  0  0  0  0  0  0  0  0  0
    1.0449    1.5253    1.3122 O   0  0  0  0  0  0  0  0  0  0  0  0
   -0.3329    0.4051    2.6776 N   0  0  0  0  0  0  0  0  0  0  0  0
   -1.1731   -0.1744    2.6475 H   0  0  0  0  0  0  0  0  0  0  0  0
    0.7392   -0.0299    3.5664 C   0  0  0  0  0  0  0  0  0  0  0  0
    1.3032    0.8315    3.9393 H   0  0  0  0  0  0  0  0  0  0  0  0
    0.3235   -0.5661    4.4251 H   0  0  0  0  0  0  0  0  0  0  0  0
    1.4268   -0.6994    3.0386 H   0  0  0  0  0  0  0  0  0  0  0  0
  1  2  1  0  0  0  0
  2  3  1  0  0  0  0
  2  4  1  0  0  0  0
  2  5  1  0  0  0  0
  5  6  2  0  0  0  0
  5  7  1  0  0  0  0
  7  8  1  0  0  0  0
  7  9  1  0  0  0  0
  9 10  1  0  0  0  0
  9 11  1  0  0  0  0
  9 29  1  0  0  0  0
 11 12  1  0  0  0  0
 11 13  1  0  0  0  0
 11 14  1  0  0  0  0
 14 15  1  0  0  0  0
 14 16  1  0  0  0  0
 14 17  1  0  0  0  0
 17 18  1  0  0  0  0
 17 19  1  0  0  0  0
 17 20  1  0  0  0  0
 20 21  1  0  0  0  0
 20 22  2  0  0  0  0
 22 23  1  0  0  0  0
 22 26  1  0  0  0  0
 23 24  1  0  0  0  0
 23 25  1  0  0  0  0
 26 27  1  0  0  0  0
 26 28  1  0  0  0  0
 29 30  2  0  0  0  0
 29 31  1  0  0  0  0
 31 32  1  0  0  0  0
 31 33  1  0  0  0  0
 33 34  1  0  0  0  0
 33 35  1  0  0  0  0
 33 36  1  0  0  0  0
M  CHG  1  20   1
M  END
$$$$

  -OEChem-02172215453D

 36 35  0     1  0  0  0  0  0999 V2000
   -4.4759   -1.8520    0.8585 H   0  0  0  0  0  0  0  0  0  0  0  0
   -4.3255   -0.8246    0.5128 C   0  0  0  0  0  0  0  0  0  0  0  0
   -4.9664   -0.1620    1.0991 H   0  0  0  0  0  0  0  0  0  0  0  0
   -4.6122   -0.7653   -0.5399 H   0  0  0  0  0  0  0  0  0  0  0  0
   -2.8710   -0.4261    0.6789 C   0  0  0  0  0  0  0  0  0  0  0  0
   -2.0758   -1.2669    1.0500 O   0  0  0  0  0  0  0  0  0  0  0  0
   -2.4841    0.8565    0.3287 N   0  0  0  0  0  0  0  0  0  0  0  0
   -3.2495    1.4269   -0.0123 H   0  0  0  0  0  0  0  0  0  0  0  0
   -1.1914    1.5647    0.5327 C   0  0  1  0  0  0  0  0  0  0  0  0
   -0.6860    1.5531   -0.4387 H   0  0  0  0  0  0  0  0  0  0  0  0
   -1.5291    3.0311    0.8936 C   0  0  0  0  0  0  0  0  0  0  0  0
   -2.1931    3.0390    1.7650 H   0  0  0  0  0  0  0  0  0  0  0  0
   -0.6149    3.5635    1.1797 H   0  0  0  0  0  0  0  0  0  0  0  0
   -2.1725    3.8046   -0.2673 C   0  0  0  0  0  0  0  0  0  0  0  0
   -1.4880    3.8153   -1.1231 H   0  0  0  0  0  0  0  0  0  0  0  0
   -3.1034    3.3214   -0.5792 H   0  0  0  0  0  0  0  0  0  0  0  0
   -2.4641    5.2344    0.1878 C   0  0  0  0  0  0  0  0  0  0  0  0
   -3.1234    5.2023    1.0622 H   0  0  0  0  0  0  0  0  0  0  0  0
   -1.5224    5.7119    0.4818 H   0  0  0  0  0  0  0  0  0  0  0  0
   -3.1047    6.0036   -0.8951 N   0  3  0  0  0  0  0  0  0  0  0  0
   -3.1914    5.5492   -1.8033 H   0  0  0  0  0  0  0  0  0  0  0  0
   -3.5107    7.2334   -0.7565 C   0  0  0  0  0  0  0  0  0  0  0  0
   -3.3675    7.9148    0.4310 N   0  0  0  0  0  0  0  0  0  0  0  0
   -2.7730    7.5011    1.1467 H   0  0  0  0  0  0  0  0  0  0  0  0
   -3.4721    8.9276    0.4269 H   0  0  0  0  0  0  0  0  0  0  0  0
   -4.0956    7.8798   -1.8193 N   0  0  0  0  0  0  0  0  0  0  0  0
   -4.3555    7.3407   -2.6429 H   0  0  0  0  0  0  0  0  0  0  0  0
   -4.5833    8.7576   -1.6485 H   0  0  0  0  0  0  0  0  0  0  0  0
   -0.0839    1.0733    1.5170 C   0  0  0  0  0  0  0  0  0  0  0  0
    0.9937    1.6552    1.4729 O   0  0  0  0  0  0  0  0  0  0  0  0
   -0.2638    0.1310    2.5110 N   0  0  0  0  0  0  0  0  0  0  0  0
   -1.0453   -0.5083    2.3590 H   0  0  0  0  0  0  0  0  0  0  0  0
    0.8239   -0.3337    3.3655 C   0  0  0  0  0  0  0  0  0  0  0  0
    1.2487    0.4990    3.9360 H   0  0  0  0  0  0  0  0  0  0  0  0
    0.4535   -1.0815    4.0736 H   0  0  0  0  0  0  0  0  0  0  0  0
    1.6172   -0.7891    2.7631 H   0  0  0  0  0  0  0  0  0  0  0  0
  1  2  1  0  0  0  0
  2  3  1  0  0  0  0
  2  4  1  0  0  0  0
  2  5  1  0  0  0  0
  5  6  2  0  0  0  0
  5  7  1  0  0  0  0
  7  8  1  0  0  0  0
  7  9  1  0  0  0  0
  9 10  1  0  0  0  0
  9 11  1  0  0  0  0
  9 29  1  0  0  0  0
 11 12  1  0  0  0  0
 11 13  1  0  0  0  0
 11 14  1  0  0  0  0
 14 15  1  0  0  0  0
 14 16  1  0  0  0  0
 14 17  1  0  0  0  0
 17 18  1  0  0  0  0
 17 19  1  0  0  0  0
 17 20  1  0  0  0  0
 20 21  1  0  0  0  0
 20 22  2  0  0  0  0
 22 23  1  0  0  0  0
 22 26  1  0  0  0  0
 23 24  1  0  0  0  0
 23 25  1  0  0  0  0
 26 27  1  0  0  0  0
 26 28  1  0  0  0  0
 29 30  2  0  0  0  0
 29 31  1  0  0  0  0
 31 32  1  0  0  0  0
 31 33  1  0  0  0  0
 33 34  1  0  0  0  0
 33 35  1  0  0  0  0
 33 36  1  0  0  0  0
M  CHG  1  20   1
M  END
$$$$

  -OEChem-02172215453D

 36 35  0     1  0  0  0  0  0999 V2000
   -4.5024   -1.8070    0.9031 H   0  0  0  0  0  0  0  0  0  0  0  0
   -4.3478   -0.7672    0.5996 C   0  0  0  0  0  0  0  0  0  0  0  0
   -4.9076   -0.1195    1.2784 H   0  0  0  0  0  0  0  0  0  0  0  0
   -4.7287   -0.6396   -0.4166 H   0  0  0  0  0  0  0  0  0  0  0  0
   -2.8711   -0.4237    0.6489 C   0  0  0  0  0  0  0  0  0  0  0  0
   -2.0727   -1.3121    0.8727 O   0  0  0  0  0  0  0  0  0  0  0  0
   -2.4731    0.8610    0.3217 N   0  0  0  0  0  0  0  0  0  0  0  0
   -3.2540    1.4645    0.0908 H   0  0  0  0  0  0  0  0  0  0  0  0
   -1.1790    1.5618    0.5448 C   0  0  1  0  0  0  0  0  0  0  0  0
   -0.6649    1.5559   -0.4221 H   0  0  0  0  0  0  0  0  0  0  0  0
   -1.5386    3.0274    0.8991 C   0  0  0  0  0  0  0  0  0  0  0  0
   -2.2181    3.0296    1.7587 H   0  0  0  0  0  0  0  0  0  0  0  0
   -0.6393    3.5761    1.1986 H   0  0  0  0  0  0  0  0  0  0  0  0
   -2.1679    3.7914   -0.2757 C   0  0  0  0  0  0  0  0  0  0  0  0
   -1.4670    3.8078   -1.1181 H   0  0  0  0  0  0  0  0  0  0  0  0
   -3.0872    3.2982   -0.6053 H   0  0  0  0  0  0  0  0  0  0  0  0
   -2.4827    5.2183    0.1713 C   0  0  0  0  0  0  0  0  0  0  0  0
   -3.1572    5.1810    1.0340 H   0  0  0  0  0  0  0  0  0  0  0  0
   -1.5514    5.7063    0.4809 H   0  0  0  0  0  0  0  0  0  0  0  0
   -3.1103    5.9767   -0.9266 N   0  3  0  0  0  0  0  0  0  0  0  0
   -3.1745    5.5176   -1.8342 H   0  0  0  0  0  0  0  0  0  0  0  0
   -3.5327    7.2024   -0.8016 C   0  0  0  0  0  0  0  0  0  0  0  0
   -3.4210    7.8906    0.3855 N   0  0  0  0  0  0  0  0  0  0  0  0
   -2.8405    7.4844    1.1169 H   0  0  0  0  0  0  0  0  0  0  0  0
   -3.5328    8.9025    0.3738 H   0  0  0  0  0  0  0  0  0  0  0  0
   -4.0990    7.8391   -1.8802 N   0  0  0  0  0  0  0  0  0  0  0  0
   -4.3378    7.2943   -2.7066 H   0  0  0  0  0  0  0  0  0  0  0  0
   -4.5935    8.7159   -1.7254 H   0  0  0  0  0  0  0  0  0  0  0  0
   -0.0720    1.0598    1.5305 C   0  0  0  0  0  0  0  0  0  0  0  0
    0.9346    1.7504    1.6389 O   0  0  0  0  0  0  0  0  0  0  0  0
   -0.1376   -0.0750    2.3147 N   0  0  0  0  0  0  0  0  0  0  0  0
   -0.8612   -0.7484    2.0602 H   0  0  0  0  0  0  0  0  0  0  0  0
    0.9707   -0.5514    3.1361 C   0  0  0  0  0  0  0  0  0  0  0  0
    1.2499    0.2009    3.8812 H   0  0  0  0  0  0  0  0  0  0  0  0
    0.6827   -1.4663    3.6630 H   0  0  0  0  0  0  0  0  0  0  0  0
    1.8436   -0.7713    2.5127 H   0  0  0  0  0  0  0  0  0  0  0  0
  1  2  1  0  0  0  0
  2  3  1  0  0  0  0
  2  4  1  0  0  0  0
  2  5  1  0  0  0  0
  5  6  2  0  0  0  0
  5  7  1  0  0  0  0
  7  8  1  0  0  0  0
  7  9  1  0  0  0  0
  9 10  1  0  0  0  0
  9 11  1  0  0  0  0
  9 29  1  0  0  0  0
 11 12  1  0  0  0  0
 11 13  1  0  0  0  0
 11 14  1  0  0  0  0
 14 15  1  0  0  0  0
 14 16  1  0  0  0  0
 14 17  1  0  0  0  0
 17 18  1  0  0  0  0
 17 19  1  0  0  0  0
 17 20  1  0  0  0  0
 20 21  1  0  0  0  0
 20 22  2  0  0  0  0
 22 23  1  0  0  0  0
 22 26  1  0  0  0  0
 23 24  1  0  0  0  0
 23 25  1  0  0  0  0
 26 27  1  0  0  0  0
 26 28  1  0  0  0  0
 29 30  2  0  0  0  0
 29 31  1  0  0  0  0
 31 32  1  0  0  0  0
 31 33  1  0  0  0  0
 33 34  1  0  0  0  0
 33 35  1  0  0  0  0
 33 36  1  0  0  0  0
M  CHG  1  20   1
M  END
$$$$

  -OEChem-02172215453D

 36 35  0     1  0  0  0  0  0999 V2000
   -3.8469   -1.9750    1.2797 H   0  0  0  0  0  0  0  0  0  0  0  0
   -3.8478   -0.9130    1.0171 C   0  0  0  0  0  0  0  0  0  0  0  0
   -4.1794   -0.3394    1.8855 H   0  0  0  0  0  0  0  0  0  0  0  0
   -4.5467   -0.7565    0.1920 H   0  0  0  0  0  0  0  0  0  0  0  0
   -2.4535   -0.4792    0.6064 C   0  0  0  0  0  0  0  0  0  0  0  0
   -1.6081   -1.3265    0.3997 O   0  0  0  0  0  0  0  0  0  0  0  0
   -2.2246    0.8390    0.2635 N   0  0  0  0  0  0  0  0  0  0  0  0
   -3.0626    1.4041    0.3363 H   0  0  0  0  0  0  0  0  0  0  0  0
   -0.9545    1.6042    0.3503 C   0  0  1  0  0  0  0  0  0  0  0  0
   -0.5671    1.6288   -0.6739 H   0  0  0  0  0  0  0  0  0  0  0  0
   -1.3391    3.0488    0.7558 C   0  0  0  0  0  0  0  0  0  0  0  0
   -1.9205    3.0185    1.6837 H   0  0  0  0  0  0  0  0  0  0  0  0
   -0.4371    3.6363    0.9591 H   0  0  0  0  0  0  0  0  0  0  0  0
   -2.1292    3.7784   -0.3422 C   0  0  0  0  0  0  0  0  0  0  0  0
   -1.5240    3.8259   -1.2547 H   0  0  0  0  0  0  0  0  0  0  0  0
   -3.0516    3.2368   -0.5739 H   0  0  0  0  0  0  0  0  0  0  0  0
   -2.4679    5.1912    0.1316 C   0  0  0  0  0  0  0  0  0  0  0  0
   -3.0442    5.1280    1.0614 H   0  0  0  0  0  0  0  0  0  0  0  0
   -1.5360    5.7300    0.3375 H   0  0  0  0  0  0  0  0  0  0  0  0
   -3.2472    5.9036   -0.8980 N   0  3  0  0  0  0  0  0  0  0  0  0
   -3.3822    5.4307   -1.7909 H   0  0  0  0  0  0  0  0  0  0  0  0
   -3.7191    7.1068   -0.7377 C   0  0  0  0  0  0  0  0  0  0  0  0
   -3.5211    7.8154    0.4258 N   0  0  0  0  0  0  0  0  0  0  0  0
   -2.8424    7.4530    1.0925 H   0  0  0  0  0  0  0  0  0  0  0  0
   -3.6927    8.8191    0.4192 H   0  0  0  0  0  0  0  0  0  0  0  0
   -4.4321    7.6979   -1.7535 N   0  0  0  0  0  0  0  0  0  0  0  0
   -4.7278    7.1294   -2.5448 H   0  0  0  0  0  0  0  0  0  0  0  0
   -4.9575    8.5468   -1.5513 H   0  0  0  0  0  0  0  0  0  0  0  0
    0.3056    1.1633    1.1708 C   0  0  0  0  0  0  0  0  0  0  0  0
    1.2975    1.8713    1.0835 O   0  0  0  0  0  0  0  0  0  0  0  0
    0.6333   -0.0504    1.7262 N   0  0  0  0  0  0  0  0  0  0  0  0
    1.6425   -0.1371    1.8220 H   0  0  0  0  0  0  0  0  0  0  0  0
   -0.1255   -0.5878    2.8503 C   0  0  0  0  0  0  0  0  0  0  0  0
    0.4406   -0.4573    3.7779 H   0  0  0  0  0  0  0  0  0  0  0  0
   -1.0874   -0.0799    2.9689 H   0  0  0  0  0  0  0  0  0  0  0  0
   -0.3093   -1.6576    2.7050 H   0  0  0  0  0  0  0  0  0  0  0  0
  1  2  1  0  0  0  0
  2  3  1  0  0  0  0
  2  4  1  0  0  0  0
  2  5  1  0  0  0  0
  5  6  2  0  0  0  0
  5  7  1  0  0  0  0
  7  8  1  0  0  0  0
  7  9  1  0  0  0  0
  9 10  1  0  0  0  0
  9 11  1  0  0  0  0
  9 29  1  0  0  0  0
 11 12  1  0  0  0  0
 11 13  1  0  0  0  0
 11 14  1  0  0  0  0
 14 15  1  0  0  0  0
 14 16  1  0  0  0  0
 14 17  1  0  0  0  0
 17 18  1  0  0  0  0
 17 19  1  0  0  0  0
 17 20  1  0  0  0  0
 20 21  1  0  0  0  0
 20 22  2  0  0  0  0
 22 23  1  0  0  0  0
 22 26  1  0  0  0  0
 23 24  1  0  0  0  0
 23 25  1  0  0  0  0
 26 27  1  0  0  0  0
 26 28  1  0  0  0  0
 29 30  2  0  0  0  0
 29 31  1  0  0  0  0
 31 32  1  0  0  0  0
 31 33  1  0  0  0  0
 33 34  1  0  0  0  0
 33 35  1  0  0  0  0
 33 36  1  0  0  0  0
M  CHG  1  20   1
M  END
$$$$

  -OEChem-02172215453D

 36 35  0     1  0  0  0  0  0999 V2000
   -4.0624   -2.0823    1.0929 H   0  0  0  0  0  0  0  0  0  0  0  0
   -4.0018   -1.1227    0.5704 C   0  0  0  0  0  0  0  0  0  0  0  0
   -4.9221   -0.5637    0.7550 H   0  0  0  0  0  0  0  0  0  0  0  0
   -3.9048   -1.3158   -0.5005 H   0  0  0  0  0  0  0  0  0  0  0  0
   -2.8042   -0.3359    1.0682 C   0  0  0  0  0  0  0  0  0  0  0  0
   -2.2765   -0.6794    2.1054 O   0  0  0  0  0  0  0  0  0  0  0  0
   -2.5081    0.8797    0.4792 N   0  0  0  0  0  0  0  0  0  0  0  0
   -3.1874    1.1067   -0.2388 H   0  0  0  0  0  0  0  0  0  0  0  0
   -1.1744    1.4908    0.2357 C   0  0  1  0  0  0  0  0  0  0  0  0
   -0.9718    1.4021   -0.8362 H   0  0  0  0  0  0  0  0  0  0  0  0
   -1.3585    2.9871    0.6024 C   0  0  0  0  0  0  0  0  0  0  0  0
   -1.7321    3.0527    1.6307 H   0  0  0  0  0  0  0  0  0  0  0  0
   -0.3933    3.5041    0.5776 H   0  0  0  0  0  0  0  0  0  0  0  0
   -2.2991    3.7461   -0.3448 C   0  0  0  0  0  0  0  0  0  0  0  0
   -1.9076    3.7039   -1.3670 H   0  0  0  0  0  0  0  0  0  0  0  0
   -3.2951    3.2925   -0.3353 H   0  0  0  0  0  0  0  0  0  0  0  0
   -2.3905    5.1975    0.1256 C   0  0  0  0  0  0  0  0  0  0  0  0
   -2.7507    5.2107    1.1602 H   0  0  0  0  0  0  0  0  0  0  0  0
   -1.3883    5.6412    0.1033 H   0  0  0  0  0  0  0  0  0  0  0  0
   -3.3019    5.9748   -0.7341 N   0  3  0  0  0  0  0  0  0  0  0  0
   -3.7134    5.4958   -1.5335 H   0  0  0  0  0  0  0  0  0  0  0  0
   -3.5984    7.2241   -0.5143 C   0  0  0  0  0  0  0  0  0  0  0  0
   -3.0727    7.9172    0.5528 N   0  0  0  0  0  0  0  0  0  0  0  0
   -2.5554    7.3954    1.2578 H   0  0  0  0  0  0  0  0  0  0  0  0
   -3.4937    8.8043    0.8213 H   0  0  0  0  0  0  0  0  0  0  0  0
   -4.4577    7.8803   -1.3633 N   0  0  0  0  0  0  0  0  0  0  0  0
   -4.7016    7.4425   -2.2496 H   0  0  0  0  0  0  0  0  0  0  0  0
   -4.5215    8.8949   -1.2993 H   0  0  0  0  0  0  0  0  0  0  0  0
    0.1504    0.9966    0.9075 C   0  0  0  0  0  0  0  0  0  0  0  0
    1.1715    1.6339    0.6921 O   0  0  0  0  0  0  0  0  0  0  0  0
    0.4401   -0.2869    1.3038 N   0  0  0  0  0  0  0  0  0  0  0  0
    1.2718   -0.6056    0.8140 H   0  0  0  0  0  0  0  0  0  0  0  0
    0.5777   -0.5021    2.7420 C   0  0  0  0  0  0  0  0  0  0  0  0
   -0.0980    0.1463    3.3105 H   0  0  0  0  0  0  0  0  0  0  0  0
    0.3399   -1.5415    2.9900 H   0  0  0  0  0  0  0  0  0  0  0  0
    1.6034   -0.2909    3.0615 H   0  0  0  0  0  0  0  0  0  0  0  0
  1  2  1  0  0  0  0
  2  3  1  0  0  0  0
  2  4  1  0  0  0  0
  2  5  1  0  0  0  0
  5  6  2  0  0  0  0
  5  7  1  0  0  0  0
  7  8  1  0  0  0  0
  7  9  1  0  0  0  0
  9 10  1  0  0  0  0
  9 11  1  0  0  0  0
  9 29  1  0  0  0  0
 11 12  1  0  0  0  0
 11 13  1  0  0  0  0
 11 14  1  0  0  0  0
 14 15  1  0  0  0  0
 14 16  1  0  0  0  0
 14 17  1  0  0  0  0
 17 18  1  0  0  0  0
 17 19  1  0  0  0  0
 17 20  1  0  0  0  0
 20 21  1  0  0  0  0
 20 22  2  0  0  0  0
 22 23  1  0  0  0  0
 22 26  1  0  0  0  0
 23 24  1  0  0  0  0
 23 25  1  0  0  0  0
 26 27  1  0  0  0  0
 26 28  1  0  0  0  0
 29 30  2  0  0  0  0
 29 31  1  0  0  0  0
 31 32  1  0  0  0  0
 31 33  1  0  0  0  0
 33 34  1  0  0  0  0
 33 35  1  0  0  0  0
 33 36  1  0  0  0  0
M  CHG  1  20   1
M  END
$$$$

  -OEChem-02172215453D

 36 35  0     1  0  0  0  0  0999 V2000
   -4.3644   -1.8294    1.0315 H   0  0  0  0  0  0  0  0  0  0  0  0
   -4.2534   -0.7791    0.7453 C   0  0  0  0  0  0  0  0  0  0  0  0
   -4.6958   -0.1574    1.5272 H   0  0  0  0  0  0  0  0  0  0  0  0
   -4.7877   -0.6137   -0.1932 H   0  0  0  0  0  0  0  0  0  0  0  0
   -2.7852   -0.4377    0.5749 C   0  0  0  0  0  0  0  0  0  0  0  0
   -1.9733   -1.3421    0.5710 O   0  0  0  0  0  0  0  0  0  0  0  0
   -2.4322    0.8673    0.2758 N   0  0  0  0  0  0  0  0  0  0  0  0
   -3.2395    1.4796    0.2401 H   0  0  0  0  0  0  0  0  0  0  0  0
   -1.1353    1.5719    0.4644 C   0  0  1  0  0  0  0  0  0  0  0  0
   -0.6553    1.5878   -0.5192 H   0  0  0  0  0  0  0  0  0  0  0  0
   -1.4848    3.0361    0.8404 C   0  0  0  0  0  0  0  0  0  0  0  0
   -2.1275    3.0355    1.7278 H   0  0  0  0  0  0  0  0  0  0  0  0
   -0.5718    3.5841    1.0986 H   0  0  0  0  0  0  0  0  0  0  0  0
   -2.1526    3.8094   -0.3072 C   0  0  0  0  0  0  0  0  0  0  0  0
   -1.4811    3.8347   -1.1726 H   0  0  0  0  0  0  0  0  0  0  0  0
   -3.0816    3.3171   -0.6107 H   0  0  0  0  0  0  0  0  0  0  0  0
   -2.4528    5.2320    0.1641 C   0  0  0  0  0  0  0  0  0  0  0  0
   -3.0984    5.1846    1.0483 H   0  0  0  0  0  0  0  0  0  0  0  0
   -1.5122    5.7173    0.4491 H   0  0  0  0  0  0  0  0  0  0  0  0
   -3.1167    6.0038   -0.9032 N   0  3  0  0  0  0  0  0  0  0  0  0
   -3.2126    5.5561   -1.8137 H   0  0  0  0  0  0  0  0  0  0  0  0
   -3.5340    7.2281   -0.7490 C   0  0  0  0  0  0  0  0  0  0  0  0
   -3.3821    7.9007    0.4424 N   0  0  0  0  0  0  0  0  0  0  0  0
   -2.7817    7.4840    1.1515 H   0  0  0  0  0  0  0  0  0  0  0  0
   -3.5022    8.9117    0.4524 H   0  0  0  0  0  0  0  0  0  0  0  0
   -4.1354    7.8795   -1.7997 N   0  0  0  0  0  0  0  0  0  0  0  0
   -4.4003    7.3460   -2.6256 H   0  0  0  0  0  0  0  0  0  0  0  0
   -4.6251    8.7537   -1.6165 H   0  0  0  0  0  0  0  0  0  0  0  0
   -0.0079    0.9925    1.3882 C   0  0  0  0  0  0  0  0  0  0  0  0
    0.5970    1.7451    2.1431 O   0  0  0  0  0  0  0  0  0  0  0  0
    0.3901   -0.3293    1.3860 N   0  0  0  0  0  0  0  0  0  0  0  0
   -0.2162   -0.9806    0.8823 H   0  0  0  0  0  0  0  0  0  0  0  0
    1.3853   -0.8836    2.2978 C   0  0  0  0  0  0  0  0  0  0  0  0
    1.0641   -0.7622    3.3377 H   0  0  0  0  0  0  0  0  0  0  0  0
    1.5223   -1.9515    2.1011 H   0  0  0  0  0  0  0  0  0  0  0  0
    2.3499   -0.3825    2.1651 H   0  0  0  0  0  0  0  0  0  0  0  0
  1  2  1  0  0  0  0
  2  3  1  0  0  0  0
  2  4  1  0  0  0  0
  2  5  1  0  0  0  0
  5  6  2  0  0  0  0
  5  7  1  0  0  0  0
  7  8  1  0  0  0  0
  7  9  1  0  0  0  0
  9 10  1  0  0  0  0
  9 11  1  0  0  0  0
  9 29  1  0  0  0  0
 11 12  1  0  0  0  0
 11 13  1  0  0  0  0
 11 14  1  0  0  0  0
 14 15  1  0  0  0  0
 14 16  1  0  0  0  0
 14 17  1  0  0  0  0
 17 18  1  0  0  0  0
 17 19  1  0  0  0  0
 17 20  1  0  0  0  0
 20 21  1  0  0  0  0
 20 22  2  0  0  0  0
 22 23  1  0  0  0  0
 22 26  1  0  0  0  0
 23 24  1  0  0  0  0
 23 25  1  0  0  0  0
 26 27  1  0  0  0  0
 26 28  1  0  0  0  0
 29 30  2  0  0  0  0
 29 31  1  0  0  0  0
 31 32  1  0  0  0  0
 31 33  1  0  0  0  0
 33 34  1  0  0  0  0
 33 35  1  0  0  0  0
 33 36  1  0  0  0  0
M  CHG  1  20   1
M  END
$$$$

  -OEChem-02172215453D

 36 35  0     1  0  0  0  0  0999 V2000
   -4.2516   -1.8757    1.0956 H   0  0  0  0  0  0  0  0  0  0  0  0
   -4.1753   -0.8319    0.7767 C   0  0  0  0  0  0  0  0  0  0  0  0
   -4.6488   -0.2020    1.5334 H   0  0  0  0  0  0  0  0  0  0  0  0
   -4.7043   -0.7163   -0.1724 H   0  0  0  0  0  0  0  0  0  0  0  0
   -2.7186   -0.4425    0.6110 C   0  0  0  0  0  0  0  0  0  0  0  0
   -1.8701   -1.3125    0.6542 O   0  0  0  0  0  0  0  0  0  0  0  0
   -2.4077    0.8632    0.2707 N   0  0  0  0  0  0  0  0  0  0  0  0
   -3.2278    1.4574    0.2208 H   0  0  0  0  0  0  0  0  0  0  0  0
   -1.1192    1.5855    0.4318 C   0  0  1  0  0  0  0  0  0  0  0  0
   -0.6435    1.5963   -0.5538 H   0  0  0  0  0  0  0  0  0  0  0  0
   -1.4610    3.0494    0.8052 C   0  0  0  0  0  0  0  0  0  0  0  0
   -2.0868    3.0537    1.7048 H   0  0  0  0  0  0  0  0  0  0  0  0
   -0.5382    3.5907    1.0439 H   0  0  0  0  0  0  0  0  0  0  0  0
   -2.1530    3.8178   -0.3302 C   0  0  0  0  0  0  0  0  0  0  0  0
   -1.5016    3.8396   -1.2110 H   0  0  0  0  0  0  0  0  0  0  0  0
   -3.0889    3.3247   -0.6105 H   0  0  0  0  0  0  0  0  0  0  0  0
   -2.4401    5.2413    0.1464 C   0  0  0  0  0  0  0  0  0  0  0  0
   -3.0643    5.1960    1.0459 H   0  0  0  0  0  0  0  0  0  0  0  0
   -1.4919    5.7242    0.4088 H   0  0  0  0  0  0  0  0  0  0  0  0
   -3.1276    6.0152   -0.9038 N   0  3  0  0  0  0  0  0  0  0  0  0
   -3.2524    5.5658   -1.8100 H   0  0  0  0  0  0  0  0  0  0  0  0
   -3.5376    7.2404   -0.7369 C   0  0  0  0  0  0  0  0  0  0  0  0
   -3.3546    7.9108    0.4516 N   0  0  0  0  0  0  0  0  0  0  0  0
   -2.7410    7.4885    1.1459 H   0  0  0  0  0  0  0  0  0  0  0  0
   -3.4592    8.9235    0.4616 H   0  0  0  0  0  0  0  0  0  0  0  0
   -4.1655    7.8954   -1.7696 N   0  0  0  0  0  0  0  0  0  0  0  0
   -4.4614    7.3624   -2.5849 H   0  0  0  0  0  0  0  0  0  0  0  0
   -4.6457    8.7716   -1.5707 H   0  0  0  0  0  0  0  0  0  0  0  0
   -0.0046    1.0076    1.3657 C   0  0  0  0  0  0  0  0  0  0  0  0
    0.4431    1.6954    2.2766 O   0  0  0  0  0  0  0  0  0  0  0  0
    0.5673   -0.2324    1.1576 N   0  0  0  0  0  0  0  0  0  0  0  0
   -0.0076   -0.8794    0.6126 H   0  0  0  0  0  0  0  0  0  0  0  0
    1.5497   -0.8148    2.0656 C   0  0  0  0  0  0  0  0  0  0  0  0
    1.1180   -0.9481    3.0630 H   0  0  0  0  0  0  0  0  0  0  0  0
    1.8734   -1.7922    1.6946 H   0  0  0  0  0  0  0  0  0  0  0  0
    2.4307   -0.1693    2.1461 H   0  0  0  0  0  0  0  0  0  0  0  0
  1  2  1  0  0  0  0
  2  3  1  0  0  0  0
  2  4  1  0  0  0  0
  2  5  1  0  0  0  0
  5  6  2  0  0  0  0
  5  7  1  0  0  0  0
  7  8  1  0  0  0  0
  7  9  1  0  0  0  0
  9 10  1  0  0  0  0
  9 11  1  0  0  0  0
  9 29  1  0  0  0  0
 11 12  1  0  0  0  0
 11 13  1  0  0  0  0
 11 14  1  0  0  0  0
 14 15  1  0  0  0  0
 14 16  1  0  0  0  0
 14 17  1  0  0  0  0
 17 18  1  0  0  0  0
 17 19  1  0  0  0  0
 17 20  1  0  0  0  0
 20 21  1  0  0  0  0
 20 22  2  0  0  0  0
 22 23  1  0  0  0  0
 22 26  1  0  0  0  0
 23 24  1  0  0  0  0
 23 25  1  0  0  0  0
 26 27  1  0  0  0  0
 26 28  1  0  0  0  0
 29 30  2  0  0  0  0
 29 31  1  0  0  0  0
 31 32  1  0  0  0  0
 31 33  1  0  0  0  0
 33 34  1  0  0  0  0
 33 35  1  0  0  0  0
 33 36  1  0  0  0  0
M  CHG  1  20   1
M  END
$$$$

  -OEChem-02172215453D

 36 35  0     1  0  0  0  0  0999 V2000
   -4.0831   -1.9412    1.1643 H   0  0  0  0  0  0  0  0  0  0  0  0
   -4.0673   -0.8955    0.8425 C   0  0  0  0  0  0  0  0  0  0  0  0
   -4.5239   -0.2839    1.6242 H   0  0  0  0  0  0  0  0  0  0  0  0
   -4.6515   -0.8020   -0.0760 H   0  0  0  0  0  0  0  0  0  0  0  0
   -2.6386   -0.4479    0.5990 C   0  0  0  0  0  0  0  0  0  0  0  0
   -1.7471   -1.2768    0.6037 O   0  0  0  0  0  0  0  0  0  0  0  0
   -2.3896    0.8630    0.2291 N   0  0  0  0  0  0  0  0  0  0  0  0
   -3.2260    1.4364    0.2262 H   0  0  0  0  0  0  0  0  0  0  0  0
   -1.1149    1.6029    0.3964 C   0  0  1  0  0  0  0  0  0  0  0  0
   -0.6231    1.6190   -0.5815 H   0  0  0  0  0  0  0  0  0  0  0  0
   -1.4559    3.0622    0.7786 C   0  0  0  0  0  0  0  0  0  0  0  0
   -2.0822    3.0620    1.6779 H   0  0  0  0  0  0  0  0  0  0  0  0
   -0.5290    3.5930    1.0250 H   0  0  0  0  0  0  0  0  0  0  0  0
   -2.1499    3.8365   -0.3504 C   0  0  0  0  0  0  0  0  0  0  0  0
   -1.4999    3.8633   -1.2322 H   0  0  0  0  0  0  0  0  0  0  0  0
   -3.0860    3.3430   -0.6302 H   0  0  0  0  0  0  0  0  0  0  0  0
   -2.4373    5.2573    0.1343 C   0  0  0  0  0  0  0  0  0  0  0  0
   -3.0610    5.2068    1.0339 H   0  0  0  0  0  0  0  0  0  0  0  0
   -1.4895    5.7399    0.3982 H   0  0  0  0  0  0  0  0  0  0  0  0
   -3.1265    6.0370   -0.9102 N   0  3  0  0  0  0  0  0  0  0  0  0
   -3.2513    5.5939   -1.8195 H   0  0  0  0  0  0  0  0  0  0  0  0
   -3.5365    7.2607   -0.7342 C   0  0  0  0  0  0  0  0  0  0  0  0
   -3.3516    7.9227    0.4588 N   0  0  0  0  0  0  0  0  0  0  0  0
   -2.7434    7.4934    1.1537 H   0  0  0  0  0  0  0  0  0  0  0  0
   -3.4610    8.9347    0.4790 H   0  0  0  0  0  0  0  0  0  0  0  0
   -4.1643    7.9232   -1.7619 N   0  0  0  0  0  0  0  0  0  0  0  0
   -4.4594    7.3959   -2.5813 H   0  0  0  0  0  0  0  0  0  0  0  0
   -4.6465    8.7963   -1.5556 H   0  0  0  0  0  0  0  0  0  0  0  0
   -0.0367    1.0151    1.3582 C   0  0  0  0  0  0  0  0  0  0  0  0
    0.2250    1.5926    2.4077 O   0  0  0  0  0  0  0  0  0  0  0  0
    0.7270   -0.0768    0.9919 N   0  0  0  0  0  0  0  0  0  0  0  0
    0.2613   -0.7027    0.3329 H   0  0  0  0  0  0  0  0  0  0  0  0
    1.7060   -0.6773    1.8923 C   0  0  0  0  0  0  0  0  0  0  0  0
    1.2154   -1.0539    2.7961 H   0  0  0  0  0  0  0  0  0  0  0  0
    2.2106   -1.5128    1.3976 H   0  0  0  0  0  0  0  0  0  0  0  0
    2.4643    0.0576    2.1829 H   0  0  0  0  0  0  0  0  0  0  0  0
  1  2  1  0  0  0  0
  2  3  1  0  0  0  0
  2  4  1  0  0  0  0
  2  5  1  0  0  0  0
  5  6  2  0  0  0  0
  5  7  1  0  0  0  0
  7  8  1  0  0  0  0
  7  9  1  0  0  0  0
  9 10  1  0  0  0  0
  9 11  1  0  0  0  0
  9 29  1  0  0  0  0
 11 12  1  0  0  0  0
 11 13  1  0  0  0  0
 11 14  1  0  0  0  0
 14 15  1  0  0  0  0
 14 16  1  0  0  0  0
 14 17  1  0  0  0  0
 17 18  1  0  0  0  0
 17 19  1  0  0  0  0
 17 20  1  0  0  0  0
 20 21  1  0  0  0  0
 20 22  2  0  0  0  0
 22 23  1  0  0  0  0
 22 26  1  0  0  0  0
 23 24  1  0  0  0  0
 23 25  1  0  0  0  0
 26 27  1  0  0  0  0
 26 28  1  0  0  0  0
 29 30  2  0  0  0  0
 29 31  1  0  0  0  0
 31 32  1  0  0  0  0
 31 33  1  0  0  0  0
 33 34  1  0  0  0  0
 33 35  1  0  0  0  0
 33 36  1  0  0  0  0
M  CHG  1  20   1
M  END
$$$$

  -OEChem-02172215453D

 36 35  0     1  0  0  0  0  0999 V2000
   -3.9605   -1.9636    1.2397 H   0  0  0  0  0  0  0  0  0  0  0  0
   -3.9871   -0.9284    0.8870 C   0  0  0  0  0  0  0  0  0  0  0  0
   -4.4444   -0.3087    1.6615 H   0  0  0  0  0  0  0  0  0  0  0  0
   -4.5956   -0.8814   -0.0191 H   0  0  0  0  0  0  0  0  0  0  0  0
   -2.5804   -0.4438    0.5945 C   0  0  0  0  0  0  0  0  0  0  0  0
   -1.6615   -1.2439    0.5854 O   0  0  0  0  0  0  0  0  0  0  0  0
   -2.3752    0.8653    0.1922 N   0  0  0  0  0  0  0  0  0  0  0  0
   -3.2208    1.4245    0.2165 H   0  0  0  0  0  0  0  0  0  0  0  0
   -1.1083    1.6147    0.3572 C   0  0  1  0  0  0  0  0  0  0  0  0
   -0.6084    1.6336   -0.6164 H   0  0  0  0  0  0  0  0  0  0  0  0
   -1.4456    3.0690    0.7505 C   0  0  0  0  0  0  0  0  0  0  0  0
   -2.0706    3.0620    1.6507 H   0  0  0  0  0  0  0  0  0  0  0  0
   -0.5155    3.5925    1.0015 H   0  0  0  0  0  0  0  0  0  0  0  0
   -2.1476    3.8494   -0.3685 C   0  0  0  0  0  0  0  0  0  0  0  0
   -1.5046    3.8817   -1.2551 H   0  0  0  0  0  0  0  0  0  0  0  0
   -3.0857    3.3570   -0.6438 H   0  0  0  0  0  0  0  0  0  0  0  0
   -2.4315    5.2667    0.1271 C   0  0  0  0  0  0  0  0  0  0  0  0
   -3.0496    5.2099    1.0305 H   0  0  0  0  0  0  0  0  0  0  0  0
   -1.4823    5.7486    0.3877 H   0  0  0  0  0  0  0  0  0  0  0  0
   -3.1284    6.0500   -0.9094 N   0  3  0  0  0  0  0  0  0  0  0  0
   -3.2623    5.6089   -1.8182 H   0  0  0  0  0  0  0  0  0  0  0  0
   -3.5387    7.2725   -0.7265 C   0  0  0  0  0  0  0  0  0  0  0  0
   -3.3462    7.9295    0.4678 N   0  0  0  0  0  0  0  0  0  0  0  0
   -2.7271    7.5015    1.1536 H   0  0  0  0  0  0  0  0  0  0  0  0
   -3.4661    8.9401    0.4959 H   0  0  0  0  0  0  0  0  0  0  0  0
   -4.1769    7.9366   -1.7470 N   0  0  0  0  0  0  0  0  0  0  0  0
   -4.4743    7.4122   -2.5676 H   0  0  0  0  0  0  0  0  0  0  0  0
   -4.6608    8.8073   -1.5343 H   0  0  0  0  0  0  0  0  0  0  0  0
   -0.0595    1.0216    1.3419 C   0  0  0  0  0  0  0  0  0  0  0  0
    0.0133    1.4575    2.4856 O   0  0  0  0  0  0  0  0  0  0  0  0
    0.8970    0.1299    0.8934 N   0  0  0  0  0  0  0  0  0  0  0  0
    0.6080   -0.4250    0.0896 H   0  0  0  0  0  0  0  0  0  0  0  0
    1.8670   -0.4757    1.7996 C   0  0  0  0  0  0  0  0  0  0  0  0
    1.3567   -1.0755    2.5609 H   0  0  0  0  0  0  0  0  0  0  0  0
    2.5490   -1.1266    1.2443 H   0  0  0  0  0  0  0  0  0  0  0  0
    2.4617    0.2963    2.2996 H   0  0  0  0  0  0  0  0  0  0  0  0
  1  2  1  0  0  0  0
  2  3  1  0  0  0  0
  2  4  1  0  0  0  0
  2  5  1  0  0  0  0
  5  6  2  0  0  0  0
  5  7  1  0  0  0  0
  7  8  1  0  0  0  0
  7  9  1  0  0  0  0
  9 10  1  0  0  0  0
  9 11  1  0  0  0  0
  9 29  1  0  0  0  0
 11 12  1  0  0  0  0
 11 13  1  0  0  0  0
 11 14  1  0  0  0  0
 14 15  1  0  0  0  0
 14 16  1  0  0  0  0
 14 17  1  0  0  0  0
 17 18  1  0  0  0  0
 17 19  1  0  0  0  0
 17 20  1  0  0  0  0
 20 21  1  0  0  0  0
 20 22  2  0  0  0  0
 22 23  1  0  0  0  0
 22 26  1  0  0  0  0
 23 24  1  0  0  0  0
 23 25  1  0  0  0  0
 26 27  1  0  0  0  0
 26 28  1  0  0  0  0
 29 30  2  0  0  0  0
 29 31  1  0  0  0  0
 31 32  1  0  0  0  0
 31 33  1  0  0  0  0
 33 34  1  0  0  0  0
 33 35  1  0  0  0  0
 33 36  1  0  0  0  0
M  CHG  1  20   1
M  END
$$$$

  -OEChem-02172215453D

 36 35  0     1  0  0  0  0  0999 V2000
   -3.8822   -1.9812    1.2636 H   0  0  0  0  0  0  0  0  0  0  0  0
   -3.9312   -0.9399    0.9318 C   0  0  0  0  0  0  0  0  0  0  0  0
   -4.3504   -0.3362    1.7404 H   0  0  0  0  0  0  0  0  0  0  0  0
   -4.5852   -0.8793    0.0589 H   0  0  0  0  0  0  0  0  0  0  0  0
   -2.5424   -0.4435    0.5786 C   0  0  0  0  0  0  0  0  0  0  0  0
   -1.6129   -1.2315    0.5420 O   0  0  0  0  0  0  0  0  0  0  0  0
   -2.3643    0.8636    0.1554 N   0  0  0  0  0  0  0  0  0  0  0  0
   -3.2142    1.4139    0.2065 H   0  0  0  0  0  0  0  0  0  0  0  0
   -1.1030    1.6200    0.3221 C   0  0  1  0  0  0  0  0  0  0  0  0
   -0.5987    1.6409   -0.6490 H   0  0  0  0  0  0  0  0  0  0  0  0
   -1.4388    3.0706    0.7261 C   0  0  0  0  0  0  0  0  0  0  0  0
   -2.0635    3.0573    1.6266 H   0  0  0  0  0  0  0  0  0  0  0  0
   -0.5079    3.5898    0.9822 H   0  0  0  0  0  0  0  0  0  0  0  0
   -2.1456    3.8572   -0.3849 C   0  0  0  0  0  0  0  0  0  0  0  0
   -1.5074    3.8941   -1.2747 H   0  0  0  0  0  0  0  0  0  0  0  0
   -3.0843    3.3652   -0.6585 H   0  0  0  0  0  0  0  0  0  0  0  0
   -2.4288    5.2715    0.1192 C   0  0  0  0  0  0  0  0  0  0  0  0
   -3.0418    5.2100    1.0255 H   0  0  0  0  0  0  0  0  0  0  0  0
   -1.4789    5.7534    0.3767 H   0  0  0  0  0  0  0  0  0  0  0  0
   -3.1305    6.0586   -0.9111 N   0  3  0  0  0  0  0  0  0  0  0  0
   -3.2672    5.6211   -1.8214 H   0  0  0  0  0  0  0  0  0  0  0  0
   -3.5422    7.2797   -0.7219 C   0  0  0  0  0  0  0  0  0  0  0  0
   -3.3473    7.9332    0.4743 N   0  0  0  0  0  0  0  0  0  0  0  0
   -2.7277    7.5027    1.1582 H   0  0  0  0  0  0  0  0  0  0  0  0
   -3.4655    8.9440    0.5056 H   0  0  0  0  0  0  0  0  0  0  0  0
   -4.1862    7.9446   -1.7381 N   0  0  0  0  0  0  0  0  0  0  0  0
   -4.4865    7.4196   -2.5572 H   0  0  0  0  0  0  0  0  0  0  0  0
   -4.6771    8.8098   -1.5191 H   0  0  0  0  0  0  0  0  0  0  0  0
   -0.0731    1.0283    1.3236 C   0  0  0  0  0  0  0  0  0  0  0  0
   -0.1873    1.2829    2.5173 O   0  0  0  0  0  0  0  0  0  0  0  0
    1.0618    0.3837    0.8670 N   0  0  0  0  0  0  0  0  0  0  0  0
    0.9905   -0.0145   -0.0660 H   0  0  0  0  0  0  0  0  0  0  0  0
    2.0192   -0.2267    1.7836 C   0  0  0  0  0  0  0  0  0  0  0  0
    1.5386   -1.0204    2.3658 H   0  0  0  0  0  0  0  0  0  0  0  0
    2.8539   -0.6616    1.2254 H   0  0  0  0  0  0  0  0  0  0  0  0
    2.4220    0.5208    2.4755 H   0  0  0  0  0  0  0  0  0  0  0  0
  1  2  1  0  0  0  0
  2  3  1  0  0  0  0
  2  4  1  0  0  0  0
  2  5  1  0  0  0  0
  5  6  2  0  0  0  0
  5  7  1  0  0  0  0
  7  8  1  0  0  0  0
  7  9  1  0  0  0  0
  9 10  1  0  0  0  0
  9 11  1  0  0  0  0
  9 29  1  0  0  0  0
 11 12  1  0  0  0  0
 11 13  1  0  0  0  0
 11 14  1  0  0  0  0
 14 15  1  0  0  0  0
 14 16  1  0  0  0  0
 14 17  1  0  0  0  0
 17 18  1  0  0  0  0
 17 19  1  0  0  0  0
 17 20  1  0  0  0  0
 20 21  1  0  0  0  0
 20 22  2  0  0  0  0
 22 23  1  0  0  0  0
 22 26  1  0  0  0  0
 23 24  1  0  0  0  0
 23 25  1  0  0  0  0
 26 27  1  0  0  0  0
 26 28  1  0  0  0  0
 29 30  2  0  0  0  0
 29 31  1  0  0  0  0
 31 32  1  0  0  0  0
 31 33  1  0  0  0  0
 33 34  1  0  0  0  0
 33 35  1  0  0  0  0
 33 36  1  0  0  0  0
M  CHG  1  20   1
M  END
$$$$

  -OEChem-02172215453D

 36 35  0     1  0  0  0  0  0999 V2000
   -3.8467   -1.9750    1.3007 H   0  0  0  0  0  0  0  0  0  0  0  0
   -3.9067   -0.9375    0.9588 C   0  0  0  0  0  0  0  0  0  0  0  0
   -4.3011   -0.3251    1.7732 H   0  0  0  0  0  0  0  0  0  0  0  0
   -4.5868   -0.8866    0.1052 H   0  0  0  0  0  0  0  0  0  0  0  0
   -2.5299   -0.4434    0.5588 C   0  0  0  0  0  0  0  0  0  0  0  0
   -1.6030   -1.2322    0.4838 O   0  0  0  0  0  0  0  0  0  0  0  0
   -2.3620    0.8626    0.1281 N   0  0  0  0  0  0  0  0  0  0  0  0
   -3.2109    1.4111    0.2067 H   0  0  0  0  0  0  0  0  0  0  0  0
   -1.1008    1.6173    0.3011 C   0  0  1  0  0  0  0  0  0  0  0  0
   -0.5930    1.6403   -0.6680 H   0  0  0  0  0  0  0  0  0  0  0  0
   -1.4358    3.0635    0.7162 C   0  0  0  0  0  0  0  0  0  0  0  0
   -2.0622    3.0432    1.6157 H   0  0  0  0  0  0  0  0  0  0  0  0
   -0.5054    3.5808    0.9773 H   0  0  0  0  0  0  0  0  0  0  0  0
   -2.1423    3.8558   -0.3918 C   0  0  0  0  0  0  0  0  0  0  0  0
   -1.5031    3.8982   -1.2806 H   0  0  0  0  0  0  0  0  0  0  0  0
   -3.0802    3.3640   -0.6692 H   0  0  0  0  0  0  0  0  0  0  0  0
   -2.4282    5.2677    0.1171 C   0  0  0  0  0  0  0  0  0  0  0  0
   -3.0427    5.2022    1.0222 H   0  0  0  0  0  0  0  0  0  0  0  0
   -1.4790    5.7498    0.3776 H   0  0  0  0  0  0  0  0  0  0  0  0
   -3.1294    6.0577   -0.9116 N   0  3  0  0  0  0  0  0  0  0  0  0
   -3.2650    5.6232   -1.8237 H   0  0  0  0  0  0  0  0  0  0  0  0
   -3.5428    7.2776   -0.7181 C   0  0  0  0  0  0  0  0  0  0  0  0
   -3.3505    7.9262    0.4810 N   0  0  0  0  0  0  0  0  0  0  0  0
   -2.7344    7.4921    1.1656 H   0  0  0  0  0  0  0  0  0  0  0  0
   -3.4688    8.9368    0.5162 H   0  0  0  0  0  0  0  0  0  0  0  0
   -4.1837    7.9472   -1.7331 N   0  0  0  0  0  0  0  0  0  0  0  0
   -4.4819    7.4263   -2.5555 H   0  0  0  0  0  0  0  0  0  0  0  0
   -4.6738    8.8124   -1.5123 H   0  0  0  0  0  0  0  0  0  0  0  0
   -0.0810    1.0252    1.3107 C   0  0  0  0  0  0  0  0  0  0  0  0
   -0.3315    1.0954    2.5088 O   0  0  0  0  0  0  0  0  0  0  0  0
    1.1870    0.6550    0.9001 N   0  0  0  0  0  0  0  0  0  0  0  0
    1.2917    0.4387   -0.0873 H   0  0  0  0  0  0  0  0  0  0  0  0
    2.1590    0.0805    1.8247 C   0  0  0  0  0  0  0  0  0  0  0  0
    1.7759   -0.8531    2.2508 H   0  0  0  0  0  0  0  0  0  0  0  0
    3.0971   -0.1348    1.3038 H   0  0  0  0  0  0  0  0  0  0  0  0
    2.3726    0.7774    2.6422 H   0  0  0  0  0  0  0  0  0  0  0  0
  1  2  1  0  0  0  0
  2  3  1  0  0  0  0
  2  4  1  0  0  0  0
  2  5  1  0  0  0  0
  5  6  2  0  0  0  0
  5  7  1  0  0  0  0
  7  8  1  0  0  0  0
  7  9  1  0  0  0  0
  9 10  1  0  0  0  0
  9 11  1  0  0  0  0
  9 29  1  0  0  0  0
 11 12  1  0  0  0  0
 11 13  1  0  0  0  0
 11 14  1  0  0  0  0
 14 15  1  0  0  0  0
 14 16  1  0  0  0  0
 14 17  1  0  0  0  0
 17 18  1  0  0  0  0
 17 19  1  0  0  0  0
 17 20  1  0  0  0  0
 20 21  1  0  0  0  0
 20 22  2  0  0  0  0
 22 23  1  0  0  0  0
 22 26  1  0  0  0  0
 23 24  1  0  0  0  0
 23 25  1  0  0  0  0
 26 27  1  0  0  0  0
 26 28  1  0  0  0  0
 29 30  2  0  0  0  0
 29 31  1  0  0  0  0
 31 32  1  0  0  0  0
 31 33  1  0  0  0  0
 33 34  1  0  0  0  0
 33 35  1  0  0  0  0
 33 36  1  0  0  0  0
M  CHG  1  20   1
M  END
$$$$

  -OEChem-02172215453D

 36 35  0     1  0  0  0  0  0999 V2000
   -3.8234   -1.9824    1.3042 H   0  0  0  0  0  0  0  0  0  0  0  0
   -3.8880   -0.9391    0.9821 C   0  0  0  0  0  0  0  0  0  0  0  0
   -4.2438   -0.3373    1.8215 H   0  0  0  0  0  0  0  0  0  0  0  0
   -4.6008   -0.8686    0.1577 H   0  0  0  0  0  0  0  0  0  0  0  0
   -2.5241   -0.4500    0.5355 C   0  0  0  0  0  0  0  0  0  0  0  0
   -1.6062   -1.2438    0.4135 O   0  0  0  0  0  0  0  0  0  0  0  0
   -2.3624    0.8560    0.1018 N   0  0  0  0  0  0  0  0  0  0  0  0
   -3.2083    1.4037    0.2096 H   0  0  0  0  0  0  0  0  0  0  0  0
   -1.0995    1.6071    0.2828 C   0  0  1  0  0  0  0  0  0  0  0  0
   -0.5873    1.6297   -0.6839 H   0  0  0  0  0  0  0  0  0  0  0  0
   -1.4338    3.0506    0.7072 C   0  0  0  0  0  0  0  0  0  0  0  0
   -2.0610    3.0243    1.6057 H   0  0  0  0  0  0  0  0  0  0  0  0
   -0.5031    3.5644    0.9742 H   0  0  0  0  0  0  0  0  0  0  0  0
   -2.1372    3.8526   -0.3972 C   0  0  0  0  0  0  0  0  0  0  0  0
   -1.4955    3.8994   -1.2839 H   0  0  0  0  0  0  0  0  0  0  0  0
   -3.0744    3.3632   -0.6811 H   0  0  0  0  0  0  0  0  0  0  0  0
   -2.4251    5.2633    0.1172 C   0  0  0  0  0  0  0  0  0  0  0  0
   -3.0449    5.1930    1.0186 H   0  0  0  0  0  0  0  0  0  0  0  0
   -1.4779    5.7447    0.3855 H   0  0  0  0  0  0  0  0  0  0  0  0
   -3.1229    6.0586   -0.9105 N   0  3  0  0  0  0  0  0  0  0  0  0
   -3.2577    5.6268   -1.8239 H   0  0  0  0  0  0  0  0  0  0  0  0
   -3.5377    7.2780   -0.7148 C   0  0  0  0  0  0  0  0  0  0  0  0
   -3.3514    7.9247    0.4862 N   0  0  0  0  0  0  0  0  0  0  0  0
   -2.7391    7.4909    1.1744 H   0  0  0  0  0  0  0  0  0  0  0  0
   -3.4776    8.9343    0.5249 H   0  0  0  0  0  0  0  0  0  0  0  0
   -4.1759    7.9510   -1.7295 N   0  0  0  0  0  0  0  0  0  0  0  0
   -4.4736    7.4330   -2.5540 H   0  0  0  0  0  0  0  0  0  0  0  0
   -4.6644    8.8168   -1.5074 H   0  0  0  0  0  0  0  0  0  0  0  0
   -0.0866    1.0138    1.2985 C   0  0  0  0  0  0  0  0  0  0  0  0
   -0.4294    0.9119    2.4713 O   0  0  0  0  0  0  0  0  0  0  0  0
    1.2580    0.9279    0.9831 N   0  0  0  0  0  0  0  0  0  0  0  0
    1.4898    0.8911   -0.0052 H   0  0  0  0  0  0  0  0  0  0  0  0
    2.2435    0.4183    1.9317 C   0  0  0  0  0  0  0  0  0  0  0  0
    1.9990   -0.6092    2.2229 H   0  0  0  0  0  0  0  0  0  0  0  0
    3.2416    0.4228    1.4825 H   0  0  0  0  0  0  0  0  0  0  0  0
    2.2697    1.0414    2.8320 H   0  0  0  0  0  0  0  0  0  0  0  0
  1  2  1  0  0  0  0
  2  3  1  0  0  0  0
  2  4  1  0  0  0  0
  2  5  1  0  0  0  0
  5  6  2  0  0  0  0
  5  7  1  0  0  0  0
  7  8  1  0  0  0  0
  7  9  1  0  0  0  0
  9 10  1  0  0  0  0
  9 11  1  0  0  0  0
  9 29  1  0  0  0  0
 11 12  1  0  0  0  0
 11 13  1  0  0  0  0
 11 14  1  0  0  0  0
 14 15  1  0  0  0  0
 14 16  1  0  0  0  0
 14 17  1  0  0  0  0
 17 18  1  0  0  0  0
 17 19  1  0  0  0  0
 17 20  1  0  0  0  0
 20 21  1  0  0  0  0
 20 22  2  0  0  0  0
 22 23  1  0  0  0  0
 22 26  1  0  0  0  0
 23 24  1  0  0  0  0
 23 25  1  0  0  0  0
 26 27  1  0  0  0  0
 26 28  1  0  0  0  0
 29 30  2  0  0  0  0
 29 31  1  0  0  0  0
 31 32  1  0  0  0  0
 31 33  1  0  0  0  0
 33 34  1  0  0  0  0
 33 35  1  0  0  0  0
 33 36  1  0  0  0  0
M  CHG  1  20   1
M  END
$$$$

  -OEChem-02172215453D

 36 35  0     1  0  0  0  0  0999 V2000
   -3.8294   -1.9816    1.2841 H   0  0  0  0  0  0  0  0  0  0  0  0
   -3.8858   -0.9277    0.9954 C   0  0  0  0  0  0  0  0  0  0  0  0
   -4.1988   -0.3445    1.8646 H   0  0  0  0  0  0  0  0  0  0  0  0
   -4.6268   -0.8195    0.2004 H   0  0  0  0  0  0  0  0  0  0  0  0
   -2.5299   -0.4501    0.5134 C   0  0  0  0  0  0  0  0  0  0  0  0
   -1.6291   -1.2539    0.3390 O   0  0  0  0  0  0  0  0  0  0  0  0
   -2.3625    0.8567    0.0854 N   0  0  0  0  0  0  0  0  0  0  0  0
   -3.2022    1.4086    0.2175 H   0  0  0  0  0  0  0  0  0  0  0  0
   -1.0942    1.5973    0.2753 C   0  0  1  0  0  0  0  0  0  0  0  0
   -0.5797    1.6206   -0.6899 H   0  0  0  0  0  0  0  0  0  0  0  0
   -1.4298    3.0375    0.7085 C   0  0  0  0  0  0  0  0  0  0  0  0
   -2.0607    3.0054    1.6042 H   0  0  0  0  0  0  0  0  0  0  0  0
   -0.5015    3.5517    0.9823 H   0  0  0  0  0  0  0  0  0  0  0  0
   -2.1277    3.8441   -0.3969 C   0  0  0  0  0  0  0  0  0  0  0  0
   -1.4808    3.8951   -1.2795 H   0  0  0  0  0  0  0  0  0  0  0  0
   -3.0628    3.3552   -0.6894 H   0  0  0  0  0  0  0  0  0  0  0  0
   -2.4202    5.2523    0.1207 C   0  0  0  0  0  0  0  0  0  0  0  0
   -3.0450    5.1784    1.0180 H   0  0  0  0  0  0  0  0  0  0  0  0
   -1.4752    5.7338    0.3956 H   0  0  0  0  0  0  0  0  0  0  0  0
   -3.1128    6.0492   -0.9090 N   0  3  0  0  0  0  0  0  0  0  0  0
   -3.2420    5.6193   -1.8243 H   0  0  0  0  0  0  0  0  0  0  0  0
   -3.5305    7.2674   -0.7120 C   0  0  0  0  0  0  0  0  0  0  0  0
   -3.3517    7.9096    0.4928 N   0  0  0  0  0  0  0  0  0  0  0  0
   -2.7428    7.4739    1.1826 H   0  0  0  0  0  0  0  0  0  0  0  0
   -3.4816    8.9185    0.5361 H   0  0  0  0  0  0  0  0  0  0  0  0
   -4.1654    7.9427   -1.7271 N   0  0  0  0  0  0  0  0  0  0  0  0
   -4.4578    7.4269   -2.5549 H   0  0  0  0  0  0  0  0  0  0  0  0
   -4.6578    8.8059   -1.5036 H   0  0  0  0  0  0  0  0  0  0  0  0
   -0.0809    1.0019    1.2905 C   0  0  0  0  0  0  0  0  0  0  0  0
   -0.4756    0.7319    2.4194 O   0  0  0  0  0  0  0  0  0  0  0  0
    1.2777    1.1955    1.1060 N   0  0  0  0  0  0  0  0  0  0  0  0
    1.5920    1.3403    0.1512 H   0  0  0  0  0  0  0  0  0  0  0  0
    2.2653    0.7607    2.0900 C   0  0  0  0  0  0  0  0  0  0  0  0
    2.1834   -0.3178    2.2640 H   0  0  0  0  0  0  0  0  0  0  0  0
    3.2773    0.9779    1.7347 H   0  0  0  0  0  0  0  0  0  0  0  0
    2.1166    1.2819    3.0420 H   0  0  0  0  0  0  0  0  0  0  0  0
  1  2  1  0  0  0  0
  2  3  1  0  0  0  0
  2  4  1  0  0  0  0
  2  5  1  0  0  0  0
  5  6  2  0  0  0  0
  5  7  1  0  0  0  0
  7  8  1  0  0  0  0
  7  9  1  0  0  0  0
  9 10  1  0  0  0  0
  9 11  1  0  0  0  0
  9 29  1  0  0  0  0
 11 12  1  0  0  0  0
 11 13  1  0  0  0  0
 11 14  1  0  0  0  0
 14 15  1  0  0  0  0
 14 16  1  0  0  0  0
 14 17  1  0  0  0  0
 17 18  1  0  0  0  0
 17 19  1  0  0  0  0
 17 20  1  0  0  0  0
 20 21  1  0  0  0  0
 20 22  2  0  0  0  0
 22 23  1  0  0  0  0
 22 26  1  0  0  0  0
 23 24  1  0  0  0  0
 23 25  1  0  0  0  0
 26 27  1  0  0  0  0
 26 28  1  0  0  0  0
 29 30  2  0  0  0  0
 29 31  1  0  0  0  0
 31 32  1  0  0  0  0
 31 33  1  0  0  0  0
 33 34  1  0  0  0  0
 33 35  1  0  0  0  0
 33 36  1  0  0  0  0
M  CHG  1  20   1
M  END
$$$$

  -OEChem-02172215453D

 36 35  0     1  0  0  0  0  0999 V2000
   -3.8260   -1.9535    1.3135 H   0  0  0  0  0  0  0  0  0  0  0  0
   -3.8852   -0.9038    1.0116 C   0  0  0  0  0  0  0  0  0  0  0  0
   -4.1679   -0.3072    1.8820 H   0  0  0  0  0  0  0  0  0  0  0  0
   -4.6491   -0.8016    0.2378 H   0  0  0  0  0  0  0  0  0  0  0  0
   -2.5410   -0.4434    0.4823 C   0  0  0  0  0  0  0  0  0  0  0  0
   -1.6708   -1.2612    0.2328 O   0  0  0  0  0  0  0  0  0  0  0  0
   -2.3598    0.8667    0.0718 N   0  0  0  0  0  0  0  0  0  0  0  0
   -3.1887    1.4263    0.2352 H   0  0  0  0  0  0  0  0  0  0  0  0
   -1.0818    1.5893    0.2721 C   0  0  1  0  0  0  0  0  0  0  0  0
   -0.5676    1.6193   -0.6932 H   0  0  0  0  0  0  0  0  0  0  0  0
   -1.4224    3.0259    0.7187 C   0  0  0  0  0  0  0  0  0  0  0  0
   -2.0591    2.9829    1.6097 H   0  0  0  0  0  0  0  0  0  0  0  0
   -0.4992    3.5436    1.0029 H   0  0  0  0  0  0  0  0  0  0  0  0
   -2.1143    3.8392   -0.3858 C   0  0  0  0  0  0  0  0  0  0  0  0
   -1.4611    3.8965   -1.2636 H   0  0  0  0  0  0  0  0  0  0  0  0
   -3.0460    3.3497   -0.6877 H   0  0  0  0  0  0  0  0  0  0  0  0
   -2.4169    5.2442    0.1341 C   0  0  0  0  0  0  0  0  0  0  0  0
   -3.0495    5.1651    1.0254 H   0  0  0  0  0  0  0  0  0  0  0  0
   -1.4765    5.7292    0.4190 H   0  0  0  0  0  0  0  0  0  0  0  0
   -3.1036    6.0393   -0.9015 N   0  3  0  0  0  0  0  0  0  0  0  0
   -3.2221    5.6092   -1.8180 H   0  0  0  0  0  0  0  0  0  0  0  0
   -3.5300    7.2551   -0.7096 C   0  0  0  0  0  0  0  0  0  0  0  0
   -3.3675    7.8990    0.4964 N   0  0  0  0  0  0  0  0  0  0  0  0
   -2.7670    7.4658    1.1952 H   0  0  0  0  0  0  0  0  0  0  0  0
   -3.5055    8.9071    0.5387 H   0  0  0  0  0  0  0  0  0  0  0  0
   -4.1557    7.9266   -1.7333 N   0  0  0  0  0  0  0  0  0  0  0  0
   -4.4333    7.4100   -2.5658 H   0  0  0  0  0  0  0  0  0  0  0  0
   -4.6518    8.7902   -1.5190 H   0  0  0  0  0  0  0  0  0  0  0  0
   -0.0610    0.9835    1.2782 C   0  0  0  0  0  0  0  0  0  0  0  0
   -0.4735    0.5315    2.3404 O   0  0  0  0  0  0  0  0  0  0  0  0
    1.2508    1.4300    1.2615 N   0  0  0  0  0  0  0  0  0  0  0  0
    1.6073    1.7677    0.3729 H   0  0  0  0  0  0  0  0  0  0  0  0
    2.2201    1.0580    2.2893 C   0  0  0  0  0  0  0  0  0  0  0  0
    2.3148   -0.0318    2.3514 H   0  0  0  0  0  0  0  0  0  0  0  0
    3.2029    1.4781    2.0541 H   0  0  0  0  0  0  0  0  0  0  0  0
    1.9090    1.4391    3.2679 H   0  0  0  0  0  0  0  0  0  0  0  0
  1  2  1  0  0  0  0
  2  3  1  0  0  0  0
  2  4  1  0  0  0  0
  2  5  1  0  0  0  0
  5  6  2  0  0  0  0
  5  7  1  0  0  0  0
  7  8  1  0  0  0  0
  7  9  1  0  0  0  0
  9 10  1  0  0  0  0
  9 11  1  0  0  0  0
  9 29  1  0  0  0  0
 11 12  1  0  0  0  0
 11 13  1  0  0  0  0
 11 14  1  0  0  0  0
 14 15  1  0  0  0  0
 14 16  1  0  0  0  0
 14 17  1  0  0  0  0
 17 18  1  0  0  0  0
 17 19  1  0  0  0  0
 17 20  1  0  0  0  0
 20 21  1  0  0  0  0
 20 22  2  0  0  0  0
 22 23  1  0  0  0  0
 22 26  1  0  0  0  0
 23 24  1  0  0  0  0
 23 25  1  0  0  0  0
 26 27  1  0  0  0  0
 26 28  1  0  0  0  0
 29 30  2  0  0  0  0
 29 31  1  0  0  0  0
 31 32  1  0  0  0  0
 31 33  1  0  0  0  0
 33 34  1  0  0  0  0
 33 35  1  0  0  0  0
 33 36  1  0  0  0  0
M  CHG  1  20   1
M  END
$$$$

  -OEChem-02172215453D

 36 35  0     1  0  0  0  0  0999 V2000
   -3.9476   -1.8231    1.3542 H   0  0  0  0  0  0  0  0  0  0  0  0
   -3.9382   -0.7595    1.0982 C   0  0  0  0  0  0  0  0  0  0  0  0
   -4.0710   -0.1803    2.0143 H   0  0  0  0  0  0  0  0  0  0  0  0
   -4.7644   -0.5543    0.4140 H   0  0  0  0  0  0  0  0  0  0  0  0
   -2.6178   -0.4008    0.4449 C   0  0  0  0  0  0  0  0  0  0  0  0
   -1.9194   -1.2833   -0.0220 O   0  0  0  0  0  0  0  0  0  0  0  0
   -2.3510    0.9065    0.0775 N   0  0  0  0  0  0  0  0  0  0  0  0
   -3.1478    1.5014    0.2667 H   0  0  0  0  0  0  0  0  0  0  0  0
   -1.0439    1.5802    0.2852 C   0  0  1  0  0  0  0  0  0  0  0  0
   -0.6630    1.8469   -0.7053 H   0  0  0  0  0  0  0  0  0  0  0  0
   -1.3430    2.8716    1.0831 C   0  0  0  0  0  0  0  0  0  0  0  0
   -1.8768    2.6079    2.0032 H   0  0  0  0  0  0  0  0  0  0  0  0
   -0.4045    3.3502    1.3812 H   0  0  0  0  0  0  0  0  0  0  0  0
   -2.1570    3.8940    0.2731 C   0  0  0  0  0  0  0  0  0  0  0  0
   -1.6049    4.1680   -0.6328 H   0  0  0  0  0  0  0  0  0  0  0  0
   -3.1151    3.4603   -0.0320 H   0  0  0  0  0  0  0  0  0  0  0  0
   -2.4094    5.1365    1.1276 C   0  0  0  0  0  0  0  0  0  0  0  0
   -2.9397    4.8408    2.0401 H   0  0  0  0  0  0  0  0  0  0  0  0
   -1.4466    5.5747    1.4135 H   0  0  0  0  0  0  0  0  0  0  0  0
   -3.2099    6.1207    0.3748 N   0  3  0  0  0  0  0  0  0  0  0  0
   -3.4244    5.9018   -0.5974 H   0  0  0  0  0  0  0  0  0  0  0  0
   -3.6222    7.2498    0.8772 C   0  0  0  0  0  0  0  0  0  0  0  0
   -3.3360    7.6160    2.1728 N   0  0  0  0  0  0  0  0  0  0  0  0
   -2.6611    7.0578    2.6915 H   0  0  0  0  0  0  0  0  0  0  0  0
   -3.4701    8.5867    2.4495 H   0  0  0  0  0  0  0  0  0  0  0  0
   -4.3585    8.1117    0.0994 N   0  0  0  0  0  0  0  0  0  0  0  0
   -4.7207    7.7836   -0.7939 H   0  0  0  0  0  0  0  0  0  0  0  0
   -4.8372    8.8884    0.5524 H   0  0  0  0  0  0  0  0  0  0  0  0
    0.1317    0.8118    0.9696 C   0  0  0  0  0  0  0  0  0  0  0  0
   -0.0984   -0.0456    1.8110 O   0  0  0  0  0  0  0  0  0  0  0  0
    1.3439    1.4667    1.1384 N   0  0  0  0  0  0  0  0  0  0  0  0
    1.5770    2.1811    0.4563 H   0  0  0  0  0  0  0  0  0  0  0  0
    2.4261    0.9364    1.9662 C   0  0  0  0  0  0  0  0  0  0  0  0
    2.6955   -0.0756    1.6446 H   0  0  0  0  0  0  0  0  0  0  0  0
    3.3133    1.5719    1.8864 H   0  0  0  0  0  0  0  0  0  0  0  0
    2.1233    0.9000    3.0179 H   0  0  0  0  0  0  0  0  0  0  0  0
  1  2  1  0  0  0  0
  2  3  1  0  0  0  0
  2  4  1  0  0  0  0
  2  5  1  0  0  0  0
  5  6  2  0  0  0  0
  5  7  1  0  0  0  0
  7  8  1  0  0  0  0
  7  9  1  0  0  0  0
  9 10  1  0  0  0  0
  9 11  1  0  0  0  0
  9 29  1  0  0  0  0
 11 12  1  0  0  0  0
 11 13  1  0  0  0  0
 11 14  1  0  0  0  0
 14 15  1  0  0  0  0
 14 16  1  0  0  0  0
 14 17  1  0  0  0  0
 17 18  1  0  0  0  0
 17 19  1  0  0  0  0
 17 20  1  0  0  0  0
 20 21  1  0  0  0  0
 20 22  2  0  0  0  0
 22 23  1  0  0  0  0
 22 26  1  0  0  0  0
 23 24  1  0  0  0  0
 23 25  1  0  0  0  0
 26 27  1  0  0  0  0
 26 28  1  0  0  0  0
 29 30  2  0  0  0  0
 29 31  1  0  0  0  0
 31 32  1  0  0  0  0
 31 33  1  0  0  0  0
 33 34  1  0  0  0  0
 33 35  1  0  0  0  0
 33 36  1  0  0  0  0
M  CHG  1  20   1
M  END
$$$$

  -OEChem-02172215453D

 36 35  0     1  0  0  0  0  0999 V2000
   -3.7420   -2.1273    1.1493 H   0  0  0  0  0  0  0  0  0  0  0  0
   -3.6835   -1.2312    0.5247 C   0  0  0  0  0  0  0  0  0  0  0  0
   -4.6920   -0.8409    0.3707 H   0  0  0  0  0  0  0  0  0  0  0  0
   -3.2506   -1.5080   -0.4395 H   0  0  0  0  0  0  0  0  0  0  0  0
   -2.8162   -0.1883    1.2026 C   0  0  0  0  0  0  0  0  0  0  0  0
   -2.5761   -0.2768    2.3955 O   0  0  0  0  0  0  0  0  0  0  0  0
   -2.5527    1.0221    0.5862 N   0  0  0  0  0  0  0  0  0  0  0  0
   -3.0355    1.0748   -0.3048 H   0  0  0  0  0  0  0  0  0  0  0  0
   -1.2002    1.6349    0.5464 C   0  0  1  0  0  0  0  0  0  0  0  0
   -0.9015    1.7774   -0.4967 H   0  0  0  0  0  0  0  0  0  0  0  0
   -1.3867    3.0093    1.2355 C   0  0  0  0  0  0  0  0  0  0  0  0
   -1.8165    2.8509    2.2322 H   0  0  0  0  0  0  0  0  0  0  0  0
   -0.4167    3.4961    1.3708 H   0  0  0  0  0  0  0  0  0  0  0  0
   -2.2749    3.9708    0.4306 C   0  0  0  0  0  0  0  0  0  0  0  0
   -1.8349    4.1417   -0.5578 H   0  0  0  0  0  0  0  0  0  0  0  0
   -3.2701    3.5346    0.2930 H   0  0  0  0  0  0  0  0  0  0  0  0
   -2.4002    5.2934    1.1873 C   0  0  0  0  0  0  0  0  0  0  0  0
   -2.8224    5.0953    2.1789 H   0  0  0  0  0  0  0  0  0  0  0  0
   -1.4028    5.7279    1.3160 H   0  0  0  0  0  0  0  0  0  0  0  0
   -3.2682    6.2302    0.4498 N   0  3  0  0  0  0  0  0  0  0  0  0
   -3.6178    5.9263   -0.4578 H   0  0  0  0  0  0  0  0  0  0  0  0
   -3.5935    7.4108    0.8938 C   0  0  0  0  0  0  0  0  0  0  0  0
   -3.1426    7.8807    2.1069 N   0  0  0  0  0  0  0  0  0  0  0  0
   -2.4297    7.3453    2.5980 H   0  0  0  0  0  0  0  0  0  0  0  0
   -3.2359    8.8717    2.3205 H   0  0  0  0  0  0  0  0  0  0  0  0
   -4.4117    8.2183    0.1400 N   0  0  0  0  0  0  0  0  0  0  0  0
   -4.8969    7.8157   -0.6595 H   0  0  0  0  0  0  0  0  0  0  0  0
   -4.8211    9.0406    0.5805 H   0  0  0  0  0  0  0  0  0  0  0  0
   -0.0183    0.8669    1.2215 C   0  0  0  0  0  0  0  0  0  0  0  0
    0.0570   -0.3475    1.0895 O   0  0  0  0  0  0  0  0  0  0  0  0
    1.1808    1.5086    1.4959 N   0  0  0  0  0  0  0  0  0  0  0  0
    1.1820    2.5219    1.5189 H   0  0  0  0  0  0  0  0  0  0  0  0
    2.3966    0.8022    1.8934 C   0  0  0  0  0  0  0  0  0  0  0  0
    2.7492    0.1578    1.0809 H   0  0  0  0  0  0  0  0  0  0  0  0
    3.1898    1.5155    2.1374 H   0  0  0  0  0  0  0  0  0  0  0  0
    2.2078    0.1815    2.7760 H   0  0  0  0  0  0  0  0  0  0  0  0
  1  2  1  0  0  0  0
  2  3  1  0  0  0  0
  2  4  1  0  0  0  0
  2  5  1  0  0  0  0
  5  6  2  0  0  0  0
  5  7  1  0  0  0  0
  7  8  1  0  0  0  0
  7  9  1  0  0  0  0
  9 10  1  0  0  0  0
  9 11  1  0  0  0  0
  9 29  1  0  0  0  0
 11 12  1  0  0  0  0
 11 13  1  0  0  0  0
 11 14  1  0  0  0  0
 14 15  1  0  0  0  0
 14 16  1  0  0  0  0
 14 17  1  0  0  0  0
 17 18  1  0  0  0  0
 17 19  1  0  0  0  0
 17 20  1  0  0  0  0
 20 21  1  0  0  0  0
 20 22  2  0  0  0  0
 22 23  1  0  0  0  0
 22 26  1  0  0  0  0
 23 24  1  0  0  0  0
 23 25  1  0  0  0  0
 26 27  1  0  0  0  0
 26 28  1  0  0  0  0
 29 30  2  0  0  0  0
 29 31  1  0  0  0  0
 31 32  1  0  0  0  0
 31 33  1  0  0  0  0
 33 34  1  0  0  0  0
 33 35  1  0  0  0  0
 33 36  1  0  0  0  0
M  CHG  1  20   1
M  END
$$$$

  -OEChem-02172215453D

 36 35  0     1  0  0  0  0  0999 V2000
   -3.7042   -2.1432    1.1673 H   0  0  0  0  0  0  0  0  0  0  0  0
   -3.6800   -1.2294    0.5665 C   0  0  0  0  0  0  0  0  0  0  0  0
   -4.6952   -0.8353    0.4813 H   0  0  0  0  0  0  0  0  0  0  0  0
   -3.3025   -1.4779   -0.4283 H   0  0  0  0  0  0  0  0  0  0  0  0
   -2.7736   -0.2056    1.2218 C   0  0  0  0  0  0  0  0  0  0  0  0
   -2.4256   -0.3524    2.3819 O   0  0  0  0  0  0  0  0  0  0  0  0
   -2.5550    1.0249    0.6264 N   0  0  0  0  0  0  0  0  0  0  0  0
   -3.0784    1.1011   -0.2397 H   0  0  0  0  0  0  0  0  0  0  0  0
   -1.2145    1.6593    0.5582 C   0  0  1  0  0  0  0  0  0  0  0  0
   -0.9426    1.8038   -0.4922 H   0  0  0  0  0  0  0  0  0  0  0  0
   -1.3823    3.0381    1.2394 C   0  0  0  0  0  0  0  0  0  0  0  0
   -1.7826    2.8921    2.2497 H   0  0  0  0  0  0  0  0  0  0  0  0
   -0.4084    3.5274    1.3343 H   0  0  0  0  0  0  0  0  0  0  0  0
   -2.2928    3.9848    0.4433 C   0  0  0  0  0  0  0  0  0  0  0  0
   -1.8776    4.1422   -0.5581 H   0  0  0  0  0  0  0  0  0  0  0  0
   -3.2889    3.5424    0.3362 H   0  0  0  0  0  0  0  0  0  0  0  0
   -2.4055    5.3179    1.1817 C   0  0  0  0  0  0  0  0  0  0  0  0
   -2.8028    5.1333    2.1861 H   0  0  0  0  0  0  0  0  0  0  0  0
   -1.4077    5.7602    1.2796 H   0  0  0  0  0  0  0  0  0  0  0  0
   -3.2952    6.2366    0.4475 N   0  3  0  0  0  0  0  0  0  0  0  0
   -3.6811    5.9056   -0.4356 H   0  0  0  0  0  0  0  0  0  0  0  0
   -3.6167    7.4230    0.8775 C   0  0  0  0  0  0  0  0  0  0  0  0
   -3.1411    7.9168    2.0711 N   0  0  0  0  0  0  0  0  0  0  0  0
   -2.6699    7.2699    2.7002 H   0  0  0  0  0  0  0  0  0  0  0  0
   -3.5965    8.7316    2.4778 H   0  0  0  0  0  0  0  0  0  0  0  0
   -4.4530    8.2144    0.1268 N   0  0  0  0  0  0  0  0  0  0  0  0
   -4.6603    7.9405   -0.8318 H   0  0  0  0  0  0  0  0  0  0  0  0
   -4.5392    9.1995    0.3712 H   0  0  0  0  0  0  0  0  0  0  0  0
   -0.0257    0.8657    1.1852 C   0  0  0  0  0  0  0  0  0  0  0  0
    0.1403   -0.2901    0.8162 O   0  0  0  0  0  0  0  0  0  0  0  0
    1.0751    1.4977    1.7437 N   0  0  0  0  0  0  0  0  0  0  0  0
    0.9490    2.4487    2.0709 H   0  0  0  0  0  0  0  0  0  0  0  0
    2.2709    0.7744    2.1693 C   0  0  0  0  0  0  0  0  0  0  0  0
    2.7504    0.2876    1.3131 H   0  0  0  0  0  0  0  0  0  0  0  0
    2.9917    1.4628    2.6211 H   0  0  0  0  0  0  0  0  0  0  0  0
    2.0131    0.0086    2.9091 H   0  0  0  0  0  0  0  0  0  0  0  0
  1  2  1  0  0  0  0
  2  3  1  0  0  0  0
  2  4  1  0  0  0  0
  2  5  1  0  0  0  0
  5  6  2  0  0  0  0
  5  7  1  0  0  0  0
  7  8  1  0  0  0  0
  7  9  1  0  0  0  0
  9 10  1  0  0  0  0
  9 11  1  0  0  0  0
  9 29  1  0  0  0  0
 11 12  1  0  0  0  0
 11 13  1  0  0  0  0
 11 14  1  0  0  0  0
 14 15  1  0  0  0  0
 14 16  1  0  0  0  0
 14 17  1  0  0  0  0
 17 18  1  0  0  0  0
 17 19  1  0  0  0  0
 17 20  1  0  0  0  0
 20 21  1  0  0  0  0
 20 22  2  0  0  0  0
 22 23  1  0  0  0  0
 22 26  1  0  0  0  0
 23 24  1  0  0  0  0
 23 25  1  0  0  0  0
 26 27  1  0  0  0  0
 26 28  1  0  0  0  0
 29 30  2  0  0  0  0
 29 31  1  0  0  0  0
 31 32  1  0  0  0  0
 31 33  1  0  0  0  0
 33 34  1  0  0  0  0
 33 35  1  0  0  0  0
 33 36  1  0  0  0  0
M  CHG  1  20   1
M  END
$$$$

  -OEChem-02172215453D

 36 35  0     1  0  0  0  0  0999 V2000
   -3.6883   -2.1549    1.1513 H   0  0  0  0  0  0  0  0  0  0  0  0
   -3.6838   -1.2286    0.5695 C   0  0  0  0  0  0  0  0  0  0  0  0
   -4.6990   -0.8271    0.5366 H   0  0  0  0  0  0  0  0  0  0  0  0
   -3.3517   -1.4583   -0.4458 H   0  0  0  0  0  0  0  0  0  0  0  0
   -2.7435   -0.2236    1.2053 C   0  0  0  0  0  0  0  0  0  0  0  0
   -2.3276   -0.4110    2.3369 O   0  0  0  0  0  0  0  0  0  0  0  0
   -2.5512    1.0190    0.6247 N   0  0  0  0  0  0  0  0  0  0  0  0
   -3.0966    1.1105   -0.2264 H   0  0  0  0  0  0  0  0  0  0  0  0
   -1.2216    1.6730    0.5508 C   0  0  1  0  0  0  0  0  0  0  0  0
   -0.9600    1.8224   -0.5017 H   0  0  0  0  0  0  0  0  0  0  0  0
   -1.3796    3.0515    1.2316 C   0  0  0  0  0  0  0  0  0  0  0  0
   -1.7674    2.9081    2.2472 H   0  0  0  0  0  0  0  0  0  0  0  0
   -0.4014    3.5369    1.3091 H   0  0  0  0  0  0  0  0  0  0  0  0
   -2.2999    3.9947    0.4435 C   0  0  0  0  0  0  0  0  0  0  0  0
   -1.8954    4.1489   -0.5629 H   0  0  0  0  0  0  0  0  0  0  0  0
   -3.2962    3.5500    0.3488 H   0  0  0  0  0  0  0  0  0  0  0  0
   -2.4063    5.3315    1.1762 C   0  0  0  0  0  0  0  0  0  0  0  0
   -2.7919    5.1514    2.1860 H   0  0  0  0  0  0  0  0  0  0  0  0
   -1.4079    5.7761    1.2591 H   0  0  0  0  0  0  0  0  0  0  0  0
   -3.3061    6.2440    0.4462 N   0  3  0  0  0  0  0  0  0  0  0  0
   -3.7017    5.9066   -0.4304 H   0  0  0  0  0  0  0  0  0  0  0  0
   -3.6257    7.4326    0.8720 C   0  0  0  0  0  0  0  0  0  0  0  0
   -3.1378    7.9348    2.0572 N   0  0  0  0  0  0  0  0  0  0  0  0
   -2.6592    7.2929    2.6858 H   0  0  0  0  0  0  0  0  0  0  0  0
   -3.5852    8.7550    2.4615 H   0  0  0  0  0  0  0  0  0  0  0  0
   -4.4712    8.2175    0.1247 N   0  0  0  0  0  0  0  0  0  0  0  0
   -4.6936    7.9330   -0.8273 H   0  0  0  0  0  0  0  0  0  0  0  0
   -4.5503    9.2060    0.3577 H   0  0  0  0  0  0  0  0  0  0  0  0
   -0.0298    0.8735    1.1585 C   0  0  0  0  0  0  0  0  0  0  0  0
    0.2415   -0.2002    0.6358 O   0  0  0  0  0  0  0  0  0  0  0  0
    0.9250    1.4472    1.9833 N   0  0  0  0  0  0  0  0  0  0  0  0
    0.6478    2.2827    2.4866 H   0  0  0  0  0  0  0  0  0  0  0  0
    2.0763    0.6993    2.4806 C   0  0  0  0  0  0  0  0  0  0  0  0
    2.7080    0.3674    1.6495 H   0  0  0  0  0  0  0  0  0  0  0  0
    2.6808    1.3269    3.1422 H   0  0  0  0  0  0  0  0  0  0  0  0
    1.7468   -0.1808    3.0435 H   0  0  0  0  0  0  0  0  0  0  0  0
  1  2  1  0  0  0  0
  2  3  1  0  0  0  0
  2  4  1  0  0  0  0
  2  5  1  0  0  0  0
  5  6  2  0  0  0  0
  5  7  1  0  0  0  0
  7  8  1  0  0  0  0
  7  9  1  0  0  0  0
  9 10  1  0  0  0  0
  9 11  1  0  0  0  0
  9 29  1  0  0  0  0
 11 12  1  0  0  0  0
 11 13  1  0  0  0  0
 11 14  1  0  0  0  0
 14 15  1  0  0  0  0
 14 16  1  0  0  0  0
 14 17  1  0  0  0  0
 17 18  1  0  0  0  0
 17 19  1  0  0  0  0
 17 20  1  0  0  0  0
 20 21  1  0  0  0  0
 20 22  2  0  0  0  0
 22 23  1  0  0  0  0
 22 26  1  0  0  0  0
 23 24  1  0  0  0  0
 23 25  1  0  0  0  0
 26 27  1  0  0  0  0
 26 28  1  0  0  0  0
 29 30  2  0  0  0  0
 29 31  1  0  0  0  0
 31 32  1  0  0  0  0
 31 33  1  0  0  0  0
 33 34  1  0  0  0  0
 33 35  1  0  0  0  0
 33 36  1  0  0  0  0
M  CHG  1  20   1
M  END
$$$$

  -OEChem-02172215453D

 36 35  0     1  0  0  0  0  0999 V2000
   -3.7031   -2.1641    1.1266 H   0  0  0  0  0  0  0  0  0  0  0  0
   -3.7119   -1.2247    0.5662 C   0  0  0  0  0  0  0  0  0  0  0  0
   -4.7225   -0.8105    0.5876 H   0  0  0  0  0  0  0  0  0  0  0  0
   -3.4285   -1.4343   -0.4681 H   0  0  0  0  0  0  0  0  0  0  0  0
   -2.7315   -0.2462    1.1832 C   0  0  0  0  0  0  0  0  0  0  0  0
   -2.2573   -0.4774    2.2830 O   0  0  0  0  0  0  0  0  0  0  0  0
   -2.5471    1.0046    0.6171 N   0  0  0  0  0  0  0  0  0  0  0  0
   -3.1071    1.1155   -0.2222 H   0  0  0  0  0  0  0  0  0  0  0  0
   -1.2263    1.6749    0.5497 C   0  0  1  0  0  0  0  0  0  0  0  0
   -0.9672    1.8277   -0.5035 H   0  0  0  0  0  0  0  0  0  0  0  0
   -1.3825    3.0536    1.2281 C   0  0  0  0  0  0  0  0  0  0  0  0
   -1.7720    2.9138    2.2433 H   0  0  0  0  0  0  0  0  0  0  0  0
   -0.4003    3.5324    1.3060 H   0  0  0  0  0  0  0  0  0  0  0  0
   -2.3034    3.9965    0.4407 C   0  0  0  0  0  0  0  0  0  0  0  0
   -1.9003    4.1501   -0.5665 H   0  0  0  0  0  0  0  0  0  0  0  0
   -3.3003    3.5524    0.3478 H   0  0  0  0  0  0  0  0  0  0  0  0
   -2.4063    5.3338    1.1729 C   0  0  0  0  0  0  0  0  0  0  0  0
   -2.7903    5.1554    2.1834 H   0  0  0  0  0  0  0  0  0  0  0  0
   -1.4070    5.7763    1.2543 H   0  0  0  0  0  0  0  0  0  0  0  0
   -3.3066    6.2466    0.4443 N   0  3  0  0  0  0  0  0  0  0  0  0
   -3.7033    5.9079   -0.4311 H   0  0  0  0  0  0  0  0  0  0  0  0
   -3.6244    7.4361    0.8686 C   0  0  0  0  0  0  0  0  0  0  0  0
   -3.1340    7.9406    2.0518 N   0  0  0  0  0  0  0  0  0  0  0  0
   -2.6381    7.3063    2.6746 H   0  0  0  0  0  0  0  0  0  0  0  0
   -3.5790    8.7618    2.4575 H   0  0  0  0  0  0  0  0  0  0  0  0
   -4.4733    8.2186    0.1229 N   0  0  0  0  0  0  0  0  0  0  0  0
   -4.6993    7.9313   -0.8272 H   0  0  0  0  0  0  0  0  0  0  0  0
   -4.5496    9.2079    0.3524 H   0  0  0  0  0  0  0  0  0  0  0  0
   -0.0277    0.8841    1.1492 C   0  0  0  0  0  0  0  0  0  0  0  0
    0.3750   -0.0776    0.5081 O   0  0  0  0  0  0  0  0  0  0  0  0
    0.7435    1.3531    2.2004 N   0  0  0  0  0  0  0  0  0  0  0  0
    0.3011    2.0339    2.8087 H   0  0  0  0  0  0  0  0  0  0  0  0
    1.8616    0.5846    2.7394 C   0  0  0  0  0  0  0  0  0  0  0  0
    2.6193    0.4132    1.9671 H   0  0  0  0  0  0  0  0  0  0  0  0
    2.3314    1.1261    3.5660 H   0  0  0  0  0  0  0  0  0  0  0  0
    1.5153   -0.3858    3.1118 H   0  0  0  0  0  0  0  0  0  0  0  0
  1  2  1  0  0  0  0
  2  3  1  0  0  0  0
  2  4  1  0  0  0  0
  2  5  1  0  0  0  0
  5  6  2  0  0  0  0
  5  7  1  0  0  0  0
  7  8  1  0  0  0  0
  7  9  1  0  0  0  0
  9 10  1  0  0  0  0
  9 11  1  0  0  0  0
  9 29  1  0  0  0  0
 11 12  1  0  0  0  0
 11 13  1  0  0  0  0
 11 14  1  0  0  0  0
 14 15  1  0  0  0  0
 14 16  1  0  0  0  0
 14 17  1  0  0  0  0
 17 18  1  0  0  0  0
 17 19  1  0  0  0  0
 17 20  1  0  0  0  0
 20 21  1  0  0  0  0
 20 22  2  0  0  0  0
 22 23  1  0  0  0  0
 22 26  1  0  0  0  0
 23 24  1  0  0  0  0
 23 25  1  0  0  0  0
 26 27  1  0  0  0  0
 26 28  1  0  0  0  0
 29 30  2  0  0  0  0
 29 31  1  0  0  0  0
 31 32  1  0  0  0  0
 31 33  1  0  0  0  0
 33 34  1  0  0  0  0
 33 35  1  0  0  0  0
 33 36  1  0  0  0  0
M  CHG  1  20   1
M  END
$$$$

  -OEChem-02172215453D

 36 35  0     1  0  0  0  0  0999 V2000
   -3.7580   -2.1600    1.0365 H   0  0  0  0  0  0  0  0  0  0  0  0
   -3.7761   -1.1915    0.5282 C   0  0  0  0  0  0  0  0  0  0  0  0
   -4.7672   -0.7488    0.6501 H   0  0  0  0  0  0  0  0  0  0  0  0
   -3.5801   -1.3529   -0.5344 H   0  0  0  0  0  0  0  0  0  0  0  0
   -2.7206   -0.2767    1.1186 C   0  0  0  0  0  0  0  0  0  0  0  0
   -2.1928   -0.5759    2.1761 O   0  0  0  0  0  0  0  0  0  0  0  0
   -2.5197    0.9830    0.5773 N   0  0  0  0  0  0  0  0  0  0  0  0
   -3.0892    1.1331   -0.2497 H   0  0  0  0  0  0  0  0  0  0  0  0
   -1.2068    1.6709    0.5487 C   0  0  1  0  0  0  0  0  0  0  0  0
   -0.9307    1.8350   -0.4986 H   0  0  0  0  0  0  0  0  0  0  0  0
   -1.3812    3.0439    1.2321 C   0  0  0  0  0  0  0  0  0  0  0  0
   -1.7934    2.8970    2.2364 H   0  0  0  0  0  0  0  0  0  0  0  0
   -0.3991    3.5185    1.3388 H   0  0  0  0  0  0  0  0  0  0  0  0
   -2.2883    3.9906    0.4331 C   0  0  0  0  0  0  0  0  0  0  0  0
   -1.8650    4.1520   -0.5644 H   0  0  0  0  0  0  0  0  0  0  0  0
   -3.2818    3.5444    0.3173 H   0  0  0  0  0  0  0  0  0  0  0  0
   -2.4086    5.3219    1.1737 C   0  0  0  0  0  0  0  0  0  0  0  0
   -2.8120    5.1363    2.1757 H   0  0  0  0  0  0  0  0  0  0  0  0
   -1.4113    5.7641    1.2776 H   0  0  0  0  0  0  0  0  0  0  0  0
   -3.2952    6.2412    0.4363 N   0  3  0  0  0  0  0  0  0  0  0  0
   -3.6465    5.9253   -0.4668 H   0  0  0  0  0  0  0  0  0  0  0  0
   -3.6215    7.4262    0.8672 C   0  0  0  0  0  0  0  0  0  0  0  0
   -3.1533    7.9171    2.0650 N   0  0  0  0  0  0  0  0  0  0  0  0
   -2.4160    7.3995    2.5390 H   0  0  0  0  0  0  0  0  0  0  0  0
   -3.2376    8.9142    2.2536 H   0  0  0  0  0  0  0  0  0  0  0  0
   -4.4523    8.2188    0.1114 N   0  0  0  0  0  0  0  0  0  0  0  0
   -4.9425    7.8053   -0.6795 H   0  0  0  0  0  0  0  0  0  0  0  0
   -4.8538    9.0510    0.5399 H   0  0  0  0  0  0  0  0  0  0  0  0
   -0.0058    0.8996    1.1635 C   0  0  0  0  0  0  0  0  0  0  0  0
    0.5748    0.1021    0.4397 O   0  0  0  0  0  0  0  0  0  0  0  0
    0.5370    1.2129    2.3988 N   0  0  0  0  0  0  0  0  0  0  0  0
   -0.0890    1.6889    3.0405 H   0  0  0  0  0  0  0  0  0  0  0  0
    1.6177    0.4214    2.9789 C   0  0  0  0  0  0  0  0  0  0  0  0
    2.5077    0.4588    2.3417 H   0  0  0  0  0  0  0  0  0  0  0  0
    1.8854    0.8091    3.9667 H   0  0  0  0  0  0  0  0  0  0  0  0
    1.3094   -0.6241    3.0892 H   0  0  0  0  0  0  0  0  0  0  0  0
  1  2  1  0  0  0  0
  2  3  1  0  0  0  0
  2  4  1  0  0  0  0
  2  5  1  0  0  0  0
  5  6  2  0  0  0  0
  5  7  1  0  0  0  0
  7  8  1  0  0  0  0
  7  9  1  0  0  0  0
  9 10  1  0  0  0  0
  9 11  1  0  0  0  0
  9 29  1  0  0  0  0
 11 12  1  0  0  0  0
 11 13  1  0  0  0  0
 11 14  1  0  0  0  0
 14 15  1  0  0  0  0
 14 16  1  0  0  0  0
 14 17  1  0  0  0  0
 17 18  1  0  0  0  0
 17 19  1  0  0  0  0
 17 20  1  0  0  0  0
 20 21  1  0  0  0  0
 20 22  2  0  0  0  0
 22 23  1  0  0  0  0
 22 26  1  0  0  0  0
 23 24  1  0  0  0  0
 23 25  1  0  0  0  0
 26 27  1  0  0  0  0
 26 28  1  0  0  0  0
 29 30  2  0  0  0  0
 29 31  1  0  0  0  0
 31 32  1  0  0  0  0
 31 33  1  0  0  0  0
 33 34  1  0  0  0  0
 33 35  1  0  0  0  0
 33 36  1  0  0  0  0
M  CHG  1  20   1
M  END
$$$$

  -OEChem-02172215453D

 36 35  0     1  0  0  0  0  0999 V2000
   -3.8425   -2.1598    0.9991 H   0  0  0  0  0  0  0  0  0  0  0  0
   -3.8481   -1.1809    0.5104 C   0  0  0  0  0  0  0  0  0  0  0  0
   -4.8231   -0.7144    0.6681 H   0  0  0  0  0  0  0  0  0  0  0  0
   -3.6868   -1.3260   -0.5605 H   0  0  0  0  0  0  0  0  0  0  0  0
   -2.7521   -0.3061    1.0884 C   0  0  0  0  0  0  0  0  0  0  0  0
   -2.1912   -0.6503    2.1141 O   0  0  0  0  0  0  0  0  0  0  0  0
   -2.5298    0.9547    0.5589 N   0  0  0  0  0  0  0  0  0  0  0  0
   -3.1099    1.1366   -0.2543 H   0  0  0  0  0  0  0  0  0  0  0  0
   -1.2196    1.6480    0.5519 C   0  0  1  0  0  0  0  0  0  0  0  0
   -0.9381    1.8159   -0.4932 H   0  0  0  0  0  0  0  0  0  0  0  0
   -1.3950    3.0198    1.2354 C   0  0  0  0  0  0  0  0  0  0  0  0
   -1.8190    2.8732    2.2353 H   0  0  0  0  0  0  0  0  0  0  0  0
   -0.4102    3.4857    1.3561 H   0  0  0  0  0  0  0  0  0  0  0  0
   -2.2884    3.9731    0.4300 C   0  0  0  0  0  0  0  0  0  0  0  0
   -1.8549    4.1358   -0.5628 H   0  0  0  0  0  0  0  0  0  0  0  0
   -3.2832    3.5333    0.3038 H   0  0  0  0  0  0  0  0  0  0  0  0
   -2.4073    5.3016    1.1749 C   0  0  0  0  0  0  0  0  0  0  0  0
   -2.8201    5.1137    2.1726 H   0  0  0  0  0  0  0  0  0  0  0  0
   -1.4077    5.7357    1.2895 H   0  0  0  0  0  0  0  0  0  0  0  0
   -3.2807    6.2316    0.4348 N   0  3  0  0  0  0  0  0  0  0  0  0
   -3.6228    5.9265   -0.4754 H   0  0  0  0  0  0  0  0  0  0  0  0
   -3.6014    7.4163    0.8706 C   0  0  0  0  0  0  0  0  0  0  0  0
   -3.1394    7.8948    2.0759 N   0  0  0  0  0  0  0  0  0  0  0  0
   -2.4130    7.3653    2.5538 H   0  0  0  0  0  0  0  0  0  0  0  0
   -3.2103    8.8922    2.2673 H   0  0  0  0  0  0  0  0  0  0  0  0
   -4.4157    8.2229    0.1116 N   0  0  0  0  0  0  0  0  0  0  0  0
   -4.8982    7.8212   -0.6899 H   0  0  0  0  0  0  0  0  0  0  0  0
   -4.8165    9.0539    0.5432 H   0  0  0  0  0  0  0  0  0  0  0  0
   -0.0107    0.9004    1.1779 C   0  0  0  0  0  0  0  0  0  0  0  0
    0.7661    0.3440    0.4139 O   0  0  0  0  0  0  0  0  0  0  0  0
    0.3159    1.0170    2.5183 N   0  0  0  0  0  0  0  0  0  0  0  0
   -0.4760    1.2079    3.1261 H   0  0  0  0  0  0  0  0  0  0  0  0
    1.4290    0.2709    3.0969 C   0  0  0  0  0  0  0  0  0  0  0  0
    2.3709    0.5416    2.6082 H   0  0  0  0  0  0  0  0  0  0  0  0
    1.5208    0.4935    4.1644 H   0  0  0  0  0  0  0  0  0  0  0  0
    1.2696   -0.8065    2.9787 H   0  0  0  0  0  0  0  0  0  0  0  0
  1  2  1  0  0  0  0
  2  3  1  0  0  0  0
  2  4  1  0  0  0  0
  2  5  1  0  0  0  0
  5  6  2  0  0  0  0
  5  7  1  0  0  0  0
  7  8  1  0  0  0  0
  7  9  1  0  0  0  0
  9 10  1  0  0  0  0
  9 11  1  0  0  0  0
  9 29  1  0  0  0  0
 11 12  1  0  0  0  0
 11 13  1  0  0  0  0
 11 14  1  0  0  0  0
 14 15  1  0  0  0  0
 14 16  1  0  0  0  0
 14 17  1  0  0  0  0
 17 18  1  0  0  0  0
 17 19  1  0  0  0  0
 17 20  1  0  0  0  0
 20 21  1  0  0  0  0
 20 22  2  0  0  0  0
 22 23  1  0  0  0  0
 22 26  1  0  0  0  0
 23 24  1  0  0  0  0
 23 25  1  0  0  0  0
 26 27  1  0  0  0  0
 26 28  1  0  0  0  0
 29 30  2  0  0  0  0
 29 31  1  0  0  0  0
 31 32  1  0  0  0  0
 31 33  1  0  0  0  0
 33 34  1  0  0  0  0
 33 35  1  0  0  0  0
 33 36  1  0  0  0  0
M  CHG  1  20   1
M  END
$$$$

  -OEChem-02172215453D

 36 35  0     1  0  0  0  0  0999 V2000
   -3.9798   -2.1447    0.9576 H   0  0  0  0  0  0  0  0  0  0  0  0
   -3.9517   -1.1602    0.4810 C   0  0  0  0  0  0  0  0  0  0  0  0
   -4.9037   -0.6553    0.6602 H   0  0  0  0  0  0  0  0  0  0  0  0
   -3.8144   -1.2987   -0.5941 H   0  0  0  0  0  0  0  0  0  0  0  0
   -2.8101   -0.3396    1.0502 C   0  0  0  0  0  0  0  0  0  0  0  0
   -2.2298   -0.7368    2.0444 O   0  0  0  0  0  0  0  0  0  0  0  0
   -2.5487    0.9169    0.5300 N   0  0  0  0  0  0  0  0  0  0  0  0
   -3.1378    1.1357   -0.2675 H   0  0  0  0  0  0  0  0  0  0  0  0
   -1.2370    1.6098    0.5450 C   0  0  1  0  0  0  0  0  0  0  0  0
   -0.9488    1.7777   -0.4986 H   0  0  0  0  0  0  0  0  0  0  0  0
   -1.4133    2.9799    1.2297 C   0  0  0  0  0  0  0  0  0  0  0  0
   -1.8496    2.8307    2.2238 H   0  0  0  0  0  0  0  0  0  0  0  0
   -0.4269    3.4383    1.3664 H   0  0  0  0  0  0  0  0  0  0  0  0
   -2.2899    3.9448    0.4206 C   0  0  0  0  0  0  0  0  0  0  0  0
   -1.8423    4.1114   -0.5652 H   0  0  0  0  0  0  0  0  0  0  0  0
   -3.2866    3.5146    0.2791 H   0  0  0  0  0  0  0  0  0  0  0  0
   -2.4042    5.2681    1.1761 C   0  0  0  0  0  0  0  0  0  0  0  0
   -2.8279    5.0756    2.1683 H   0  0  0  0  0  0  0  0  0  0  0  0
   -1.4012    5.6907    1.3034 H   0  0  0  0  0  0  0  0  0  0  0  0
   -3.2608    6.2145    0.4373 N   0  3  0  0  0  0  0  0  0  0  0  0
   -3.5945    5.9232   -0.4804 H   0  0  0  0  0  0  0  0  0  0  0  0
   -3.5730    7.3978    0.8833 C   0  0  0  0  0  0  0  0  0  0  0  0
   -3.1170    7.8580    2.0980 N   0  0  0  0  0  0  0  0  0  0  0  0
   -2.4013    7.3140    2.5761 H   0  0  0  0  0  0  0  0  0  0  0  0
   -3.1712    8.8553    2.2952 H   0  0  0  0  0  0  0  0  0  0  0  0
   -4.3709    8.2223    0.1260 N   0  0  0  0  0  0  0  0  0  0  0  0
   -4.8502    7.8360   -0.6851 H   0  0  0  0  0  0  0  0  0  0  0  0
   -4.7653    9.0536    0.5630 H   0  0  0  0  0  0  0  0  0  0  0  0
   -0.0159    0.8971    1.1870 C   0  0  0  0  0  0  0  0  0  0  0  0
    0.9354    0.6418    0.4615 O   0  0  0  0  0  0  0  0  0  0  0  0
    0.1256    0.7833    2.5588 N   0  0  0  0  0  0  0  0  0  0  0  0
   -0.7627    0.6773    3.0471 H   0  0  0  0  0  0  0  0  0  0  0  0
    1.2828    0.1221    3.1531 C   0  0  0  0  0  0  0  0  0  0  0  0
    2.2079    0.6364    2.8715 H   0  0  0  0  0  0  0  0  0  0  0  0
    1.2043    0.1309    4.2446 H   0  0  0  0  0  0  0  0  0  0  0  0
    1.3432   -0.9189    2.8176 H   0  0  0  0  0  0  0  0  0  0  0  0
  1  2  1  0  0  0  0
  2  3  1  0  0  0  0
  2  4  1  0  0  0  0
  2  5  1  0  0  0  0
  5  6  2  0  0  0  0
  5  7  1  0  0  0  0
  7  8  1  0  0  0  0
  7  9  1  0  0  0  0
  9 10  1  0  0  0  0
  9 11  1  0  0  0  0
  9 29  1  0  0  0  0
 11 12  1  0  0  0  0
 11 13  1  0  0  0  0
 11 14  1  0  0  0  0
 14 15  1  0  0  0  0
 14 16  1  0  0  0  0
 14 17  1  0  0  0  0
 17 18  1  0  0  0  0
 17 19  1  0  0  0  0
 17 20  1  0  0  0  0
 20 21  1  0  0  0  0
 20 22  2  0  0  0  0
 22 23  1  0  0  0  0
 22 26  1  0  0  0  0
 23 24  1  0  0  0  0
 23 25  1  0  0  0  0
 26 27  1  0  0  0  0
 26 28  1  0  0  0  0
 29 30  2  0  0  0  0
 29 31  1  0  0  0  0
 31 32  1  0  0  0  0
 31 33  1  0  0  0  0
 33 34  1  0  0  0  0
 33 35  1  0  0  0  0
 33 36  1  0  0  0  0
M  CHG  1  20   1
M  END
$$$$

  -OEChem-02172215453D

 36 35  0     1  0  0  0  0  0999 V2000
   -4.1754   -2.0828    0.8843 H   0  0  0  0  0  0  0  0  0  0  0  0
   -4.1019   -1.0809    0.4509 C   0  0  0  0  0  0  0  0  0  0  0  0
   -5.0042   -0.5209    0.7074 H   0  0  0  0  0  0  0  0  0  0  0  0
   -4.0339   -1.1764   -0.6354 H   0  0  0  0  0  0  0  0  0  0  0  0
   -2.8751   -0.3693    0.9891 C   0  0  0  0  0  0  0  0  0  0  0  0
   -2.2659   -0.8678    1.9164 O   0  0  0  0  0  0  0  0  0  0  0  0
   -2.5512    0.8831    0.4943 N   0  0  0  0  0  0  0  0  0  0  0  0
   -3.1600    1.1727   -0.2649 H   0  0  0  0  0  0  0  0  0  0  0  0
   -1.2356    1.5716    0.5411 C   0  0  1  0  0  0  0  0  0  0  0  0
   -0.9359    1.7439   -0.4986 H   0  0  0  0  0  0  0  0  0  0  0  0
   -1.4249    2.9371    1.2315 C   0  0  0  0  0  0  0  0  0  0  0  0
   -1.8785    2.7793    2.2165 H   0  0  0  0  0  0  0  0  0  0  0  0
   -0.4414    3.3946    1.3924 H   0  0  0  0  0  0  0  0  0  0  0  0
   -2.2816    3.9128    0.4142 C   0  0  0  0  0  0  0  0  0  0  0  0
   -1.8125    4.0889   -0.5603 H   0  0  0  0  0  0  0  0  0  0  0  0
   -3.2770    3.4886    0.2479 H   0  0  0  0  0  0  0  0  0  0  0  0
   -2.4051    5.2277    1.1826 C   0  0  0  0  0  0  0  0  0  0  0  0
   -2.8496    5.0258    2.1641 H   0  0  0  0  0  0  0  0  0  0  0  0
   -1.4033    5.6448    1.3352 H   0  0  0  0  0  0  0  0  0  0  0  0
   -3.2428    6.1854    0.4375 N   0  3  0  0  0  0  0  0  0  0  0  0
   -3.5571    5.9065   -0.4909 H   0  0  0  0  0  0  0  0  0  0  0  0
   -3.5594    7.3652    0.8894 C   0  0  0  0  0  0  0  0  0  0  0  0
   -3.1269    7.8120    2.1177 N   0  0  0  0  0  0  0  0  0  0  0  0
   -2.4164    7.2650    2.6000 H   0  0  0  0  0  0  0  0  0  0  0  0
   -3.1868    8.8071    2.3249 H   0  0  0  0  0  0  0  0  0  0  0  0
   -4.3392    8.1989    0.1232 N   0  0  0  0  0  0  0  0  0  0  0  0
   -4.8047    7.8202   -0.6993 H   0  0  0  0  0  0  0  0  0  0  0  0
   -4.7367    9.0304    0.5575 H   0  0  0  0  0  0  0  0  0  0  0  0
    0.0019    0.8993    1.1977 C   0  0  0  0  0  0  0  0  0  0  0  0
    1.0551    0.9433    0.5761 O   0  0  0  0  0  0  0  0  0  0  0  0
    0.0266    0.5190    2.5268 N   0  0  0  0  0  0  0  0  0  0  0  0
   -0.8819    0.2075    2.8756 H   0  0  0  0  0  0  0  0  0  0  0  0
    1.2084   -0.0840    3.1343 C   0  0  0  0  0  0  0  0  0  0  0  0
    2.0601    0.6028    3.0859 H   0  0  0  0  0  0  0  0  0  0  0  0
    1.0157   -0.3174    4.1859 H   0  0  0  0  0  0  0  0  0  0  0  0
    1.4748   -1.0114    2.6160 H   0  0  0  0  0  0  0  0  0  0  0  0
  1  2  1  0  0  0  0
  2  3  1  0  0  0  0
  2  4  1  0  0  0  0
  2  5  1  0  0  0  0
  5  6  2  0  0  0  0
  5  7  1  0  0  0  0
  7  8  1  0  0  0  0
  7  9  1  0  0  0  0
  9 10  1  0  0  0  0
  9 11  1  0  0  0  0
  9 29  1  0  0  0  0
 11 12  1  0  0  0  0
 11 13  1  0  0  0  0
 11 14  1  0  0  0  0
 14 15  1  0  0  0  0
 14 16  1  0  0  0  0
 14 17  1  0  0  0  0
 17 18  1  0  0  0  0
 17 19  1  0  0  0  0
 17 20  1  0  0  0  0
 20 21  1  0  0  0  0
 20 22  2  0  0  0  0
 22 23  1  0  0  0  0
 22 26  1  0  0  0  0
 23 24  1  0  0  0  0
 23 25  1  0  0  0  0
 26 27  1  0  0  0  0
 26 28  1  0  0  0  0
 29 30  2  0  0  0  0
 29 31  1  0  0  0  0
 31 32  1  0  0  0  0
 31 33  1  0  0  0  0
 33 34  1  0  0  0  0
 33 35  1  0  0  0  0
 33 36  1  0  0  0  0
M  CHG  1  20   1
M  END
$$$$

  -OEChem-02172215453D

 36 35  0     1  0  0  0  0  0999 V2000
   -4.3789   -1.9734    0.8239 H   0  0  0  0  0  0  0  0  0  0  0  0
   -4.2454   -0.9594    0.4353 C   0  0  0  0  0  0  0  0  0  0  0  0
   -5.0795   -0.3414    0.7754 H   0  0  0  0  0  0  0  0  0  0  0  0
   -4.2501   -1.0028   -0.6565 H   0  0  0  0  0  0  0  0  0  0  0  0
   -2.9332   -0.3798    0.9291 C   0  0  0  0  0  0  0  0  0  0  0  0
   -2.3048   -0.9961    1.7668 O   0  0  0  0  0  0  0  0  0  0  0  0
   -2.5412    0.8651    0.4652 N   0  0  0  0  0  0  0  0  0  0  0  0
   -3.1723    1.2363   -0.2377 H   0  0  0  0  0  0  0  0  0  0  0  0
   -1.2193    1.5424    0.5439 C   0  0  1  0  0  0  0  0  0  0  0  0
   -0.9038    1.7192   -0.4901 H   0  0  0  0  0  0  0  0  0  0  0  0
   -1.4316    2.9032    1.2392 C   0  0  0  0  0  0  0  0  0  0  0  0
   -1.9090    2.7356    2.2114 H   0  0  0  0  0  0  0  0  0  0  0  0
   -0.4558    3.3664    1.4292 H   0  0  0  0  0  0  0  0  0  0  0  0
   -2.2688    3.8839    0.4075 C   0  0  0  0  0  0  0  0  0  0  0  0
   -1.7742    4.0693   -0.5524 H   0  0  0  0  0  0  0  0  0  0  0  0
   -3.2584    3.4604    0.2099 H   0  0  0  0  0  0  0  0  0  0  0  0
   -2.4154    5.1912    1.1842 C   0  0  0  0  0  0  0  0  0  0  0  0
   -2.8842    4.9795    2.1517 H   0  0  0  0  0  0  0  0  0  0  0  0
   -1.4184    5.6083    1.3665 H   0  0  0  0  0  0  0  0  0  0  0  0
   -3.2350    6.1555    0.4276 N   0  3  0  0  0  0  0  0  0  0  0  0
   -3.5228    5.8878   -0.5126 H   0  0  0  0  0  0  0  0  0  0  0  0
   -3.5642    7.3295    0.8850 C   0  0  0  0  0  0  0  0  0  0  0  0
   -3.1630    7.7611    2.1293 N   0  0  0  0  0  0  0  0  0  0  0  0
   -2.4646    7.2092    2.6237 H   0  0  0  0  0  0  0  0  0  0  0  0
   -3.2329    8.7525    2.3497 H   0  0  0  0  0  0  0  0  0  0  0  0
   -4.3245    8.1724    0.1093 N   0  0  0  0  0  0  0  0  0  0  0  0
   -4.7655    7.8067   -0.7325 H   0  0  0  0  0  0  0  0  0  0  0  0
   -4.7300    9.0007    0.5416 H   0  0  0  0  0  0  0  0  0  0  0  0
    0.0288    0.8997    1.2145 C   0  0  0  0  0  0  0  0  0  0  0  0
    1.1159    1.1697    0.7203 O   0  0  0  0  0  0  0  0  0  0  0  0
    0.0062    0.2503    2.4335 N   0  0  0  0  0  0  0  0  0  0  0  0
   -0.8965   -0.1656    2.6727 H   0  0  0  0  0  0  0  0  0  0  0  0
    1.1971   -0.3520    3.0227 C   0  0  0  0  0  0  0  0  0  0  0  0
    1.9623    0.4088    3.2087 H   0  0  0  0  0  0  0  0  0  0  0  0
    0.9470   -0.8274    3.9761 H   0  0  0  0  0  0  0  0  0  0  0  0
    1.6129   -1.1134    2.3541 H   0  0  0  0  0  0  0  0  0  0  0  0
  1  2  1  0  0  0  0
  2  3  1  0  0  0  0
  2  4  1  0  0  0  0
  2  5  1  0  0  0  0
  5  6  2  0  0  0  0
  5  7  1  0  0  0  0
  7  8  1  0  0  0  0
  7  9  1  0  0  0  0
  9 10  1  0  0  0  0
  9 11  1  0  0  0  0
  9 29  1  0  0  0  0
 11 12  1  0  0  0  0
 11 13  1  0  0  0  0
 11 14  1  0  0  0  0
 14 15  1  0  0  0  0
 14 16  1  0  0  0  0
 14 17  1  0  0  0  0
 17 18  1  0  0  0  0
 17 19  1  0  0  0  0
 17 20  1  0  0  0  0
 20 21  1  0  0  0  0
 20 22  2  0  0  0  0
 22 23  1  0  0  0  0
 22 26  1  0  0  0  0
 23 24  1  0  0  0  0
 23 25  1  0  0  0  0
 26 27  1  0  0  0  0
 26 28  1  0  0  0  0
 29 30  2  0  0  0  0
 29 31  1  0  0  0  0
 31 32  1  0  0  0  0
 31 33  1  0  0  0  0
 33 34  1  0  0  0  0
 33 35  1  0  0  0  0
 33 36  1  0  0  0  0
M  CHG  1  20   1
M  END
$$$$

  -OEChem-02172215453D

 36 35  0     1  0  0  0  0  0999 V2000
   -4.5146   -1.9065    0.7703 H   0  0  0  0  0  0  0  0  0  0  0  0
   -4.3475   -0.8850    0.4155 C   0  0  0  0  0  0  0  0  0  0  0  0
   -5.1519   -0.2482    0.7910 H   0  0  0  0  0  0  0  0  0  0  0  0
   -4.3711   -0.8895   -0.6770 H   0  0  0  0  0  0  0  0  0  0  0  0
   -3.0057   -0.3748    0.9073 C   0  0  0  0  0  0  0  0  0  0  0  0
   -2.4001   -1.0422    1.7209 O   0  0  0  0  0  0  0  0  0  0  0  0
   -2.5612    0.8577    0.4564 N   0  0  0  0  0  0  0  0  0  0  0  0
   -3.1884    1.2658   -0.2290 H   0  0  0  0  0  0  0  0  0  0  0  0
   -1.2269    1.5133    0.5443 C   0  0  1  0  0  0  0  0  0  0  0  0
   -0.9068    1.6883   -0.4886 H   0  0  0  0  0  0  0  0  0  0  0  0
   -1.4462    2.8751    1.2405 C   0  0  0  0  0  0  0  0  0  0  0  0
   -1.9363    2.7047    2.2060 H   0  0  0  0  0  0  0  0  0  0  0  0
   -0.4745    3.3394    1.4467 H   0  0  0  0  0  0  0  0  0  0  0  0
   -2.2690    3.8635    0.4023 C   0  0  0  0  0  0  0  0  0  0  0  0
   -1.7595    4.0525   -0.5491 H   0  0  0  0  0  0  0  0  0  0  0  0
   -3.2578    3.4463    0.1882 H   0  0  0  0  0  0  0  0  0  0  0  0
   -2.4201    5.1673    1.1851 C   0  0  0  0  0  0  0  0  0  0  0  0
   -2.9034    4.9517    2.1449 H   0  0  0  0  0  0  0  0  0  0  0  0
   -1.4239    5.5785    1.3843 H   0  0  0  0  0  0  0  0  0  0  0  0
   -3.2257    6.1402    0.4244 N   0  3  0  0  0  0  0  0  0  0  0  0
   -3.4992    5.8817   -0.5225 H   0  0  0  0  0  0  0  0  0  0  0  0
   -3.5553    7.3128    0.8855 C   0  0  0  0  0  0  0  0  0  0  0  0
   -3.1679    7.7351    2.1373 N   0  0  0  0  0  0  0  0  0  0  0  0
   -2.4761    7.1776    2.6348 H   0  0  0  0  0  0  0  0  0  0  0  0
   -3.2335    8.7261    2.3611 H   0  0  0  0  0  0  0  0  0  0  0  0
   -4.3058    8.1625    0.1080 N   0  0  0  0  0  0  0  0  0  0  0  0
   -4.7428    7.8001   -0.7372 H   0  0  0  0  0  0  0  0  0  0  0  0
   -4.7191    8.9847    0.5448 H   0  0  0  0  0  0  0  0  0  0  0  0
    0.0313    0.8842    1.2159 C   0  0  0  0  0  0  0  0  0  0  0  0
    1.1151    1.3091    0.8349 O   0  0  0  0  0  0  0  0  0  0  0  0
    0.0263   -0.0017    2.2742 N   0  0  0  0  0  0  0  0  0  0  0  0
   -0.8654   -0.4639    2.4623 H   0  0  0  0  0  0  0  0  0  0  0  0
    1.2372   -0.6045    2.8201 C   0  0  0  0  0  0  0  0  0  0  0  0
    1.9089    0.1673    3.2103 H   0  0  0  0  0  0  0  0  0  0  0  0
    0.9833   -1.2851    3.6384 H   0  0  0  0  0  0  0  0  0  0  0  0
    1.7646   -1.1739    2.0475 H   0  0  0  0  0  0  0  0  0  0  0  0
  1  2  1  0  0  0  0
  2  3  1  0  0  0  0
  2  4  1  0  0  0  0
  2  5  1  0  0  0  0
  5  6  2  0  0  0  0
  5  7  1  0  0  0  0
  7  8  1  0  0  0  0
  7  9  1  0  0  0  0
  9 10  1  0  0  0  0
  9 11  1  0  0  0  0
  9 29  1  0  0  0  0
 11 12  1  0  0  0  0
 11 13  1  0  0  0  0
 11 14  1  0  0  0  0
 14 15  1  0  0  0  0
 14 16  1  0  0  0  0
 14 17  1  0  0  0  0
 17 18  1  0  0  0  0
 17 19  1  0  0  0  0
 17 20  1  0  0  0  0
 20 21  1  0  0  0  0
 20 22  2  0  0  0  0
 22 23  1  0  0  0  0
 22 26  1  0  0  0  0
 23 24  1  0  0  0  0
 23 25  1  0  0  0  0
 26 27  1  0  0  0  0
 26 28  1  0  0  0  0
 29 30  2  0  0  0  0
 29 31  1  0  0  0  0
 31 32  1  0  0  0  0
 31 33  1  0  0  0  0
 33 34  1  0  0  0  0
 33 35  1  0  0  0  0
 33 36  1  0  0  0  0
M  CHG  1  20   1
M  END
$$$$

  -OEChem-02172215453D

 36 35  0     1  0  0  0  0  0999 V2000
   -3.8520   -2.0628    1.0385 H   0  0  0  0  0  0  0  0  0  0  0  0
   -3.6727   -1.1481    0.4657 C   0  0  0  0  0  0  0  0  0  0  0  0
   -4.6264   -0.6377    0.3125 H   0  0  0  0  0  0  0  0  0  0  0  0
   -3.2498   -1.4214   -0.5040 H   0  0  0  0  0  0  0  0  0  0  0  0
   -2.7136   -0.2443    1.2162 C   0  0  0  0  0  0  0  0  0  0  0  0
   -2.4894   -0.4682    2.3887 O   0  0  0  0  0  0  0  0  0  0  0  0
   -2.3334    0.9578    0.6539 N   0  0  0  0  0  0  0  0  0  0  0  0
   -2.7931    1.1001   -0.2397 H   0  0  0  0  0  0  0  0  0  0  0  0
   -1.0247    1.6573    0.7518 C   0  0  1  0  0  0  0  0  0  0  0  0
   -0.6552    1.7957   -0.2692 H   0  0  0  0  0  0  0  0  0  0  0  0
   -1.3885    3.0358    1.3620 C   0  0  0  0  0  0  0  0  0  0  0  0
   -1.9204    2.8721    2.3066 H   0  0  0  0  0  0  0  0  0  0  0  0
   -0.4767    3.5941    1.6003 H   0  0  0  0  0  0  0  0  0  0  0  0
   -2.2321    3.9218    0.4348 C   0  0  0  0  0  0  0  0  0  0  0  0
   -1.6862    4.1092   -0.4962 H   0  0  0  0  0  0  0  0  0  0  0  0
   -3.1759    3.4245    0.1895 H   0  0  0  0  0  0  0  0  0  0  0  0
   -2.5161    5.2394    1.1546 C   0  0  0  0  0  0  0  0  0  0  0  0
   -3.0322    5.0231    2.0970 H   0  0  0  0  0  0  0  0  0  0  0  0
   -1.5631    5.7278    1.3870 H   0  0  0  0  0  0  0  0  0  0  0  0
   -3.3462    6.1267    0.3197 N   0  3  0  0  0  0  0  0  0  0  0  0
   -3.5639    5.8120   -0.6244 H   0  0  0  0  0  0  0  0  0  0  0  0
   -3.7776    7.2875    0.7224 C   0  0  0  0  0  0  0  0  0  0  0  0
   -3.4832    7.7750    1.9759 N   0  0  0  0  0  0  0  0  0  0  0  0
   -2.7869    7.2789    2.5292 H   0  0  0  0  0  0  0  0  0  0  0  0
   -3.6293    8.7646    2.1647 H   0  0  0  0  0  0  0  0  0  0  0  0
   -4.5455    8.0571   -0.1187 N   0  0  0  0  0  0  0  0  0  0  0  0
   -4.9161    7.6361   -0.9683 H   0  0  0  0  0  0  0  0  0  0  0  0
   -5.0390    8.8581    0.2716 H   0  0  0  0  0  0  0  0  0  0  0  0
    0.2277    1.1347    1.5376 C   0  0  0  0  0  0  0  0  0  0  0  0
    1.2367    1.8233    1.5051 O   0  0  0  0  0  0  0  0  0  0  0  0
    0.3451    0.1439    2.4825 N   0  0  0  0  0  0  0  0  0  0  0  0
    1.1295    0.3483    3.0969 H   0  0  0  0  0  0  0  0  0  0  0  0
    0.3057   -1.2532    2.0619 C   0  0  0  0  0  0  0  0  0  0  0  0
    1.3237   -1.6471    1.9771 H   0  0  0  0  0  0  0  0  0  0  0  0
   -0.2378   -1.8533    2.7992 H   0  0  0  0  0  0  0  0  0  0  0  0
   -0.1833   -1.3700    1.0900 H   0  0  0  0  0  0  0  0  0  0  0  0
  1  2  1  0  0  0  0
  2  3  1  0  0  0  0
  2  4  1  0  0  0  0
  2  5  1  0  0  0  0
  5  6  2  0  0  0  0
  5  7  1  0  0  0  0
  7  8  1  0  0  0  0
  7  9  1  0  0  0  0
  9 10  1  0  0  0  0
  9 11  1  0  0  0  0
  9 29  1  0  0  0  0
 11 12  1  0  0  0  0
 11 13  1  0  0  0  0
 11 14  1  0  0  0  0
 14 15  1  0  0  0  0
 14 16  1  0  0  0  0
 14 17  1  0  0  0  0
 17 18  1  0  0  0  0
 17 19  1  0  0  0  0
 17 20  1  0  0  0  0
 20 21  1  0  0  0  0
 20 22  2  0  0  0  0
 22 23  1  0  0  0  0
 22 26  1  0  0  0  0
 23 24  1  0  0  0  0
 23 25  1  0  0  0  0
 26 27  1  0  0  0  0
 26 28  1  0  0  0  0
 29 30  2  0  0  0  0
 29 31  1  0  0  0  0
 31 32  1  0  0  0  0
 31 33  1  0  0  0  0
 33 34  1  0  0  0  0
 33 35  1  0  0  0  0
 33 36  1  0  0  0  0
M  CHG  1  20   1
M  END
$$$$

  -OEChem-02172215453D

 36 35  0     1  0  0  0  0  0999 V2000
   -4.1733   -1.9210    1.1394 H   0  0  0  0  0  0  0  0  0  0  0  0
   -4.0721   -0.8827    0.8090 C   0  0  0  0  0  0  0  0  0  0  0  0
   -4.5624   -0.2348    1.5388 H   0  0  0  0  0  0  0  0  0  0  0  0
   -4.5667   -0.7756   -0.1593 H   0  0  0  0  0  0  0  0  0  0  0  0
   -2.6049   -0.5154    0.6861 C   0  0  0  0  0  0  0  0  0  0  0  0
   -1.7839   -1.3967    0.8152 O   0  0  0  0  0  0  0  0  0  0  0  0
   -2.2808    0.7693    0.2854 N   0  0  0  0  0  0  0  0  0  0  0  0
   -3.1001    1.3254    0.0714 H   0  0  0  0  0  0  0  0  0  0  0  0
   -0.9962    1.5210    0.2913 C   0  0  1  0  0  0  0  0  0  0  0  0
   -0.7963    1.7473   -0.7618 H   0  0  0  0  0  0  0  0  0  0  0  0
   -1.2716    2.8475    1.0399 C   0  0  0  0  0  0  0  0  0  0  0  0
   -1.6755    2.6169    2.0319 H   0  0  0  0  0  0  0  0  0  0  0  0
   -0.3313    3.3900    1.1915 H   0  0  0  0  0  0  0  0  0  0  0  0
   -2.2295    3.7830    0.2863 C   0  0  0  0  0  0  0  0  0  0  0  0
   -1.8045    4.0310   -0.6931 H   0  0  0  0  0  0  0  0  0  0  0  0
   -3.1951    3.2933    0.1278 H   0  0  0  0  0  0  0  0  0  0  0  0
   -2.4299    5.0562    1.1083 C   0  0  0  0  0  0  0  0  0  0  0  0
   -2.8245    4.7856    2.0942 H   0  0  0  0  0  0  0  0  0  0  0  0
   -1.4587    5.5452    1.2465 H   0  0  0  0  0  0  0  0  0  0  0  0
   -3.3636    5.9721    0.4268 N   0  3  0  0  0  0  0  0  0  0  0  0
   -3.6771    5.7100   -0.5068 H   0  0  0  0  0  0  0  0  0  0  0  0
   -3.7550    7.1057    0.9349 C   0  0  0  0  0  0  0  0  0  0  0  0
   -3.3173    7.5383    2.1663 N   0  0  0  0  0  0  0  0  0  0  0  0
   -2.5440    7.0369    2.5990 H   0  0  0  0  0  0  0  0  0  0  0  0
   -3.4498    8.5167    2.4154 H   0  0  0  0  0  0  0  0  0  0  0  0
   -4.6216    7.9051    0.2281 N   0  0  0  0  0  0  0  0  0  0  0  0
   -5.0807    7.5266   -0.5982 H   0  0  0  0  0  0  0  0  0  0  0  0
   -5.0669    8.6860    0.7072 H   0  0  0  0  0  0  0  0  0  0  0  0
    0.3915    1.0016    0.7941 C   0  0  0  0  0  0  0  0  0  0  0  0
    1.3699    1.6438    0.4419 O   0  0  0  0  0  0  0  0  0  0  0  0
    0.7644   -0.2042    1.3336 N   0  0  0  0  0  0  0  0  0  0  0  0
    1.7589   -0.3662    1.1945 H   0  0  0  0  0  0  0  0  0  0  0  0
    0.2739   -0.5852    2.6539 C   0  0  0  0  0  0  0  0  0  0  0  0
    0.9925   -0.2847    3.4229 H   0  0  0  0  0  0  0  0  0  0  0  0
   -0.6857   -0.1090    2.8786 H   0  0  0  0  0  0  0  0  0  0  0  0
    0.1402   -1.6708    2.7060 H   0  0  0  0  0  0  0  0  0  0  0  0
  1  2  1  0  0  0  0
  2  3  1  0  0  0  0
  2  4  1  0  0  0  0
  2  5  1  0  0  0  0
  5  6  2  0  0  0  0
  5  7  1  0  0  0  0
  7  8  1  0  0  0  0
  7  9  1  0  0  0  0
  9 10  1  0  0  0  0
  9 11  1  0  0  0  0
  9 29  1  0  0  0  0
 11 12  1  0  0  0  0
 11 13  1  0  0  0  0
 11 14  1  0  0  0  0
 14 15  1  0  0  0  0
 14 16  1  0  0  0  0
 14 17  1  0  0  0  0
 17 18  1  0  0  0  0
 17 19  1  0  0  0  0
 17 20  1  0  0  0  0
 20 21  1  0  0  0  0
 20 22  2  0  0  0  0
 22 23  1  0  0  0  0
 22 26  1  0  0  0  0
 23 24  1  0  0  0  0
 23 25  1  0  0  0  0
 26 27  1  0  0  0  0
 26 28  1  0  0  0  0
 29 30  2  0  0  0  0
 29 31  1  0  0  0  0
 31 32  1  0  0  0  0
 31 33  1  0  0  0  0
 33 34  1  0  0  0  0
 33 35  1  0  0  0  0
 33 36  1  0  0  0  0
M  CHG  1  20   1
M  END
$$$$

  -OEChem-02172215453D

 36 35  0     1  0  0  0  0  0999 V2000
   -3.8483   -2.2193    1.2975 H   0  0  0  0  0  0  0  0  0  0  0  0
   -3.9030   -1.2882    0.7259 C   0  0  0  0  0  0  0  0  0  0  0  0
   -4.8789   -0.8273    0.8957 H   0  0  0  0  0  0  0  0  0  0  0  0
   -3.7956   -1.5242   -0.3354 H   0  0  0  0  0  0  0  0  0  0  0  0
   -2.7984   -0.3460    1.1639 C   0  0  0  0  0  0  0  0  0  0  0  0
   -2.2562   -0.5244    2.2374 O   0  0  0  0  0  0  0  0  0  0  0  0
   -2.6368    0.8650    0.5217 N   0  0  0  0  0  0  0  0  0  0  0  0
   -3.3565    0.9955   -0.1821 H   0  0  0  0  0  0  0  0  0  0  0  0
   -1.3493    1.5035    0.1498 C   0  0  1  0  0  0  0  0  0  0  0  0
   -1.3608    1.6525   -0.9347 H   0  0  0  0  0  0  0  0  0  0  0  0
   -1.3636    2.8761    0.8625 C   0  0  0  0  0  0  0  0  0  0  0  0
   -1.5195    2.7158    1.9356 H   0  0  0  0  0  0  0  0  0  0  0  0
   -0.3886    3.3622    0.7458 H   0  0  0  0  0  0  0  0  0  0  0  0
   -2.4288    3.8370    0.3180 C   0  0  0  0  0  0  0  0  0  0  0  0
   -2.2530    4.0171   -0.7481 H   0  0  0  0  0  0  0  0  0  0  0  0
   -3.4262    3.4012    0.4367 H   0  0  0  0  0  0  0  0  0  0  0  0
   -2.3446    5.1492    1.0958 C   0  0  0  0  0  0  0  0  0  0  0  0
   -2.4924    4.9375    2.1606 H   0  0  0  0  0  0  0  0  0  0  0  0
   -1.3446    5.5777    0.9640 H   0  0  0  0  0  0  0  0  0  0  0  0
   -3.3668    6.1019    0.6253 N   0  3  0  0  0  0  0  0  0  0  0  0
   -3.9550    5.8092   -0.1533 H   0  0  0  0  0  0  0  0  0  0  0  0
   -3.5494    7.2758    1.1590 C   0  0  0  0  0  0  0  0  0  0  0  0
   -2.7881    7.7176    2.2175 N   0  0  0  0  0  0  0  0  0  0  0  0
   -2.1736    7.0487    2.6774 H   0  0  0  0  0  0  0  0  0  0  0  0
   -3.1086    8.5228    2.7518 H   0  0  0  0  0  0  0  0  0  0  0  0
   -4.5242    8.1064    0.6597 N   0  0  0  0  0  0  0  0  0  0  0  0
   -4.9606    7.8705   -0.2295 H   0  0  0  0  0  0  0  0  0  0  0  0
   -4.5167    9.0852    0.9415 H   0  0  0  0  0  0  0  0  0  0  0  0
    0.0462    0.8636    0.4377 C   0  0  0  0  0  0  0  0  0  0  0  0
    1.0193    1.4083   -0.0616 O   0  0  0  0  0  0  0  0  0  0  0  0
    0.3145   -0.4386    0.7864 N   0  0  0  0  0  0  0  0  0  0  0  0
    1.0409   -0.7988    0.1719 H   0  0  0  0  0  0  0  0  0  0  0  0
    0.6554   -0.6815    2.1857 C   0  0  0  0  0  0  0  0  0  0  0  0
    0.1906    0.0570    2.8481 H   0  0  0  0  0  0  0  0  0  0  0  0
    0.3130   -1.6760    2.4889 H   0  0  0  0  0  0  0  0  0  0  0  0
    1.7401   -0.6277    2.3250 H   0  0  0  0  0  0  0  0  0  0  0  0
  1  2  1  0  0  0  0
  2  3  1  0  0  0  0
  2  4  1  0  0  0  0
  2  5  1  0  0  0  0
  5  6  2  0  0  0  0
  5  7  1  0  0  0  0
  7  8  1  0  0  0  0
  7  9  1  0  0  0  0
  9 10  1  0  0  0  0
  9 11  1  0  0  0  0
  9 29  1  0  0  0  0
 11 12  1  0  0  0  0
 11 13  1  0  0  0  0
 11 14  1  0  0  0  0
 14 15  1  0  0  0  0
 14 16  1  0  0  0  0
 14 17  1  0  0  0  0
 17 18  1  0  0  0  0
 17 19  1  0  0  0  0
 17 20  1  0  0  0  0
 20 21  1  0  0  0  0
 20 22  2  0  0  0  0
 22 23  1  0  0  0  0
 22 26  1  0  0  0  0
 23 24  1  0  0  0  0
 23 25  1  0  0  0  0
 26 27  1  0  0  0  0
 26 28  1  0  0  0  0
 29 30  2  0  0  0  0
 29 31  1  0  0  0  0
 31 32  1  0  0  0  0
 31 33  1  0  0  0  0
 33 34  1  0  0  0  0
 33 35  1  0  0  0  0
 33 36  1  0  0  0  0
M  CHG  1  20   1
M  END
$$$$

  -OEChem-02172215453D

 36 35  0     1  0  0  0  0  0999 V2000
   -4.4816   -1.8676    0.9657 H   0  0  0  0  0  0  0  0  0  0  0  0
   -4.3278   -0.8585    0.5718 C   0  0  0  0  0  0  0  0  0  0  0  0
   -5.0961   -0.2008    0.9851 H   0  0  0  0  0  0  0  0  0  0  0  0
   -4.4283   -0.8912   -0.5157 H   0  0  0  0  0  0  0  0  0  0  0  0
   -2.9495   -0.3534    0.9551 C   0  0  0  0  0  0  0  0  0  0  0  0
   -2.2846   -1.0143    1.7275 O   0  0  0  0  0  0  0  0  0  0  0  0
   -2.5347    0.8775    0.4741 N   0  0  0  0  0  0  0  0  0  0  0  0
   -3.2159    1.3001   -0.1479 H   0  0  0  0  0  0  0  0  0  0  0  0
   -1.1902    1.5196    0.4571 C   0  0  1  0  0  0  0  0  0  0  0  0
   -0.9323    1.6888   -0.5930 H   0  0  0  0  0  0  0  0  0  0  0  0
   -1.3971    2.8939    1.1500 C   0  0  0  0  0  0  0  0  0  0  0  0
   -1.8246    2.7251    2.1448 H   0  0  0  0  0  0  0  0  0  0  0  0
   -0.4360    3.3978    1.2937 H   0  0  0  0  0  0  0  0  0  0  0  0
   -2.2829    3.8609    0.3519 C   0  0  0  0  0  0  0  0  0  0  0  0
   -1.8334    4.0510   -0.6289 H   0  0  0  0  0  0  0  0  0  0  0  0
   -3.2774    3.4297    0.2009 H   0  0  0  0  0  0  0  0  0  0  0  0
   -2.4025    5.1655    1.1393 C   0  0  0  0  0  0  0  0  0  0  0  0
   -2.8223    4.9441    2.1269 H   0  0  0  0  0  0  0  0  0  0  0  0
   -1.4010    5.5893    1.2769 H   0  0  0  0  0  0  0  0  0  0  0  0
   -3.2636    6.1312    0.4324 N   0  3  0  0  0  0  0  0  0  0  0  0
   -3.6237    5.8563   -0.4801 H   0  0  0  0  0  0  0  0  0  0  0  0
   -3.5737    7.2998    0.9170 C   0  0  0  0  0  0  0  0  0  0  0  0
   -3.1116    7.7225    2.1431 N   0  0  0  0  0  0  0  0  0  0  0  0
   -2.6334    7.0467    2.7361 H   0  0  0  0  0  0  0  0  0  0  0  0
   -3.5479    8.5295    2.5850 H   0  0  0  0  0  0  0  0  0  0  0  0
   -4.3770    8.1469    0.1910 N   0  0  0  0  0  0  0  0  0  0  0  0
   -4.5601    7.9284   -0.7864 H   0  0  0  0  0  0  0  0  0  0  0  0
   -4.4308    9.1232    0.4768 H   0  0  0  0  0  0  0  0  0  0  0  0
    0.0942    0.8311    1.0353 C   0  0  0  0  0  0  0  0  0  0  0  0
    1.0640    1.5291    1.3087 O   0  0  0  0  0  0  0  0  0  0  0  0
    0.2911   -0.5364    1.0576 N   0  0  0  0  0  0  0  0  0  0  0  0
   -0.5647   -1.0927    1.0716 H   0  0  0  0  0  0  0  0  0  0  0  0
    1.5002   -1.1603    1.5862 C   0  0  0  0  0  0  0  0  0  0  0  0
    1.6192   -0.9257    2.6491 H   0  0  0  0  0  0  0  0  0  0  0  0
    1.4431   -2.2475    1.4756 H   0  0  0  0  0  0  0  0  0  0  0  0
    2.3849   -0.8074    1.0458 H   0  0  0  0  0  0  0  0  0  0  0  0
  1  2  1  0  0  0  0
  2  3  1  0  0  0  0
  2  4  1  0  0  0  0
  2  5  1  0  0  0  0
  5  6  2  0  0  0  0
  5  7  1  0  0  0  0
  7  8  1  0  0  0  0
  7  9  1  0  0  0  0
  9 10  1  0  0  0  0
  9 11  1  0  0  0  0
  9 29  1  0  0  0  0
 11 12  1  0  0  0  0
 11 13  1  0  0  0  0
 11 14  1  0  0  0  0
 14 15  1  0  0  0  0
 14 16  1  0  0  0  0
 14 17  1  0  0  0  0
 17 18  1  0  0  0  0
 17 19  1  0  0  0  0
 17 20  1  0  0  0  0
 20 21  1  0  0  0  0
 20 22  2  0  0  0  0
 22 23  1  0  0  0  0
 22 26  1  0  0  0  0
 23 24  1  0  0  0  0
 23 25  1  0  0  0  0
 26 27  1  0  0  0  0
 26 28  1  0  0  0  0
 29 30  2  0  0  0  0
 29 31  1  0  0  0  0
 31 32  1  0  0  0  0
 31 33  1  0  0  0  0
 33 34  1  0  0  0  0
 33 35  1  0  0  0  0
 33 36  1  0  0  0  0
M  CHG  1  20   1
M  END
$$$$

  -OEChem-02172215453D

 36 35  0     1  0  0  0  0  0999 V2000
   -4.4158   -1.8587    1.0722 H   0  0  0  0  0  0  0  0  0  0  0  0
   -4.2745   -0.8547    0.6606 C   0  0  0  0  0  0  0  0  0  0  0  0
   -4.9914   -0.1798    1.1339 H   0  0  0  0  0  0  0  0  0  0  0  0
   -4.4663   -0.8885   -0.4145 H   0  0  0  0  0  0  0  0  0  0  0  0
   -2.8584   -0.3780    0.9226 C   0  0  0  0  0  0  0  0  0  0  0  0
   -2.1095   -1.1009    1.5487 O   0  0  0  0  0  0  0  0  0  0  0  0
   -2.4796    0.8697    0.4545 N   0  0  0  0  0  0  0  0  0  0  0  0
   -3.2095    1.3367   -0.0728 H   0  0  0  0  0  0  0  0  0  0  0  0
   -1.1520    1.5429    0.4488 C   0  0  1  0  0  0  0  0  0  0  0  0
   -0.8863    1.7165   -0.5985 H   0  0  0  0  0  0  0  0  0  0  0  0
   -1.3762    2.9158    1.1371 C   0  0  0  0  0  0  0  0  0  0  0  0
   -1.7983    2.7468    2.1343 H   0  0  0  0  0  0  0  0  0  0  0  0
   -0.4180    3.4287    1.2720 H   0  0  0  0  0  0  0  0  0  0  0  0
   -2.2711    3.8723    0.3367 C   0  0  0  0  0  0  0  0  0  0  0  0
   -1.8236    4.0659   -0.6444 H   0  0  0  0  0  0  0  0  0  0  0  0
   -3.2609    3.4310    0.1855 H   0  0  0  0  0  0  0  0  0  0  0  0
   -2.4041    5.1754    1.1247 C   0  0  0  0  0  0  0  0  0  0  0  0
   -2.8217    4.9480    2.1119 H   0  0  0  0  0  0  0  0  0  0  0  0
   -1.4066    5.6080    1.2640 H   0  0  0  0  0  0  0  0  0  0  0  0
   -3.2737    6.1360    0.4208 N   0  3  0  0  0  0  0  0  0  0  0  0
   -3.6322    5.8629   -0.4930 H   0  0  0  0  0  0  0  0  0  0  0  0
   -3.5922    7.3002    0.9109 C   0  0  0  0  0  0  0  0  0  0  0  0
   -3.1318    7.7207    2.1382 N   0  0  0  0  0  0  0  0  0  0  0  0
   -2.6473    7.0470    2.7284 H   0  0  0  0  0  0  0  0  0  0  0  0
   -3.5693    8.5256    2.5823 H   0  0  0  0  0  0  0  0  0  0  0  0
   -4.4009    8.1457    0.1895 N   0  0  0  0  0  0  0  0  0  0  0  0
   -4.5817    7.9328   -0.7895 H   0  0  0  0  0  0  0  0  0  0  0  0
   -4.4651    9.1188    0.4838 H   0  0  0  0  0  0  0  0  0  0  0  0
    0.1201    0.8411    1.0354 C   0  0  0  0  0  0  0  0  0  0  0  0
    0.9839    1.5071    1.5950 O   0  0  0  0  0  0  0  0  0  0  0  0
    0.4215   -0.4791    0.7568 N   0  0  0  0  0  0  0  0  0  0  0  0
   -0.3994   -1.0657    0.6039 H   0  0  0  0  0  0  0  0  0  0  0  0
    1.6115   -1.1406    1.2835 C   0  0  0  0  0  0  0  0  0  0  0  0
    1.5831   -1.1671    2.3781 H   0  0  0  0  0  0  0  0  0  0  0  0
    1.6662   -2.1686    0.9124 H   0  0  0  0  0  0  0  0  0  0  0  0
    2.5186   -0.6143    0.9678 H   0  0  0  0  0  0  0  0  0  0  0  0
  1  2  1  0  0  0  0
  2  3  1  0  0  0  0
  2  4  1  0  0  0  0
  2  5  1  0  0  0  0
  5  6  2  0  0  0  0
  5  7  1  0  0  0  0
  7  8  1  0  0  0  0
  7  9  1  0  0  0  0
  9 10  1  0  0  0  0
  9 11  1  0  0  0  0
  9 29  1  0  0  0  0
 11 12  1  0  0  0  0
 11 13  1  0  0  0  0
 11 14  1  0  0  0  0
 14 15  1  0  0  0  0
 14 16  1  0  0  0  0
 14 17  1  0  0  0  0
 17 18  1  0  0  0  0
 17 19  1  0  0  0  0
 17 20  1  0  0  0  0
 20 21  1  0  0  0  0
 20 22  2  0  0  0  0
 22 23  1  0  0  0  0
 22 26  1  0  0  0  0
 23 24  1  0  0  0  0
 23 25  1  0  0  0  0
 26 27  1  0  0  0  0
 26 28  1  0  0  0  0
 29 30  2  0  0  0  0
 29 31  1  0  0  0  0
 31 32  1  0  0  0  0
 31 33  1  0  0  0  0
 33 34  1  0  0  0  0
 33 35  1  0  0  0  0
 33 36  1  0  0  0  0
M  CHG  1  20   1
M  END
$$$$

  -OEChem-02172215453D

 36 35  0     1  0  0  0  0  0999 V2000
   -4.3112   -1.8728    1.1633 H   0  0  0  0  0  0  0  0  0  0  0  0
   -4.2031   -0.8709    0.7373 C   0  0  0  0  0  0  0  0  0  0  0  0
   -4.8736   -0.1916    1.2688 H   0  0  0  0  0  0  0  0  0  0  0  0
   -4.4878   -0.9070   -0.3170 H   0  0  0  0  0  0  0  0  0  0  0  0
   -2.7676   -0.3994    0.8732 C   0  0  0  0  0  0  0  0  0  0  0  0
   -1.9492   -1.1593    1.3510 O   0  0  0  0  0  0  0  0  0  0  0  0
   -2.4331    0.8630    0.4093 N   0  0  0  0  0  0  0  0  0  0  0  0
   -3.2083    1.3642   -0.0107 H   0  0  0  0  0  0  0  0  0  0  0  0
   -1.1239    1.5671    0.4242 C   0  0  1  0  0  0  0  0  0  0  0  0
   -0.8409    1.7506   -0.6170 H   0  0  0  0  0  0  0  0  0  0  0  0
   -1.3606    2.9337    1.1156 C   0  0  0  0  0  0  0  0  0  0  0  0
   -1.7837    2.7579    2.1110 H   0  0  0  0  0  0  0  0  0  0  0  0
   -0.4010    3.4448    1.2520 H   0  0  0  0  0  0  0  0  0  0  0  0
   -2.2590    3.8892    0.3193 C   0  0  0  0  0  0  0  0  0  0  0  0
   -1.8101    4.0921   -0.6592 H   0  0  0  0  0  0  0  0  0  0  0  0
   -3.2455    3.4421    0.1627 H   0  0  0  0  0  0  0  0  0  0  0  0
   -2.4011    5.1861    1.1161 C   0  0  0  0  0  0  0  0  0  0  0  0
   -2.8188    4.9509    2.1013 H   0  0  0  0  0  0  0  0  0  0  0  0
   -1.4066    5.6243    1.2593 H   0  0  0  0  0  0  0  0  0  0  0  0
   -3.2752    6.1445    0.4156 N   0  3  0  0  0  0  0  0  0  0  0  0
   -3.6314    5.8720   -0.4992 H   0  0  0  0  0  0  0  0  0  0  0  0
   -3.6033    7.3040    0.9106 C   0  0  0  0  0  0  0  0  0  0  0  0
   -3.1491    7.7217    2.1414 N   0  0  0  0  0  0  0  0  0  0  0  0
   -2.6566    7.0505    2.7281 H   0  0  0  0  0  0  0  0  0  0  0  0
   -3.5931    8.5210    2.5893 H   0  0  0  0  0  0  0  0  0  0  0  0
   -4.4206    8.1442    0.1926 N   0  0  0  0  0  0  0  0  0  0  0  0
   -4.6044    7.9310   -0.7858 H   0  0  0  0  0  0  0  0  0  0  0  0
   -4.4974    9.1153    0.4901 H   0  0  0  0  0  0  0  0  0  0  0  0
    0.1269    0.8556    1.0361 C   0  0  0  0  0  0  0  0  0  0  0  0
    0.8305    1.4294    1.8604 O   0  0  0  0  0  0  0  0  0  0  0  0
    0.5815   -0.3409    0.5119 N   0  0  0  0  0  0  0  0  0  0  0  0
   -0.1578   -0.9243    0.1232 H   0  0  0  0  0  0  0  0  0  0  0  0
    1.7405   -1.0365    1.0633 C   0  0  0  0  0  0  0  0  0  0  0  0
    1.5544   -1.3227    2.1040 H   0  0  0  0  0  0  0  0  0  0  0  0
    1.9474   -1.9425    0.4856 H   0  0  0  0  0  0  0  0  0  0  0  0
    2.6293   -0.3972    1.0269 H   0  0  0  0  0  0  0  0  0  0  0  0
  1  2  1  0  0  0  0
  2  3  1  0  0  0  0
  2  4  1  0  0  0  0
  2  5  1  0  0  0  0
  5  6  2  0  0  0  0
  5  7  1  0  0  0  0
  7  8  1  0  0  0  0
  7  9  1  0  0  0  0
  9 10  1  0  0  0  0
  9 11  1  0  0  0  0
  9 29  1  0  0  0  0
 11 12  1  0  0  0  0
 11 13  1  0  0  0  0
 11 14  1  0  0  0  0
 14 15  1  0  0  0  0
 14 16  1  0  0  0  0
 14 17  1  0  0  0  0
 17 18  1  0  0  0  0
 17 19  1  0  0  0  0
 17 20  1  0  0  0  0
 20 21  1  0  0  0  0
 20 22  2  0  0  0  0
 22 23  1  0  0  0  0
 22 26  1  0  0  0  0
 23 24  1  0  0  0  0
 23 25  1  0  0  0  0
 26 27  1  0  0  0  0
 26 28  1  0  0  0  0
 29 30  2  0  0  0  0
 29 31  1  0  0  0  0
 31 32  1  0  0  0  0
 31 33  1  0  0  0  0
 33 34  1  0  0  0  0
 33 35  1  0  0  0  0
 33 36  1  0  0  0  0
M  CHG  1  20   1
M  END
$$$$

  -OEChem-02172215453D

 36 35  0     1  0  0  0  0  0999 V2000
   -4.2028   -1.8899    1.2455 H   0  0  0  0  0  0  0  0  0  0  0  0
   -4.1346   -0.8865    0.8146 C   0  0  0  0  0  0  0  0  0  0  0  0
   -4.7474   -0.2085    1.4131 H   0  0  0  0  0  0  0  0  0  0  0  0
   -4.5225   -0.9171   -0.2063 H   0  0  0  0  0  0  0  0  0  0  0  0
   -2.6910   -0.4196    0.8097 C   0  0  0  0  0  0  0  0  0  0  0  0
   -1.8237   -1.2032    1.1435 O   0  0  0  0  0  0  0  0  0  0  0  0
   -2.4006    0.8565    0.3511 N   0  0  0  0  0  0  0  0  0  0  0  0
   -3.2131    1.3875    0.0586 H   0  0  0  0  0  0  0  0  0  0  0  0
   -1.1077    1.5852    0.3971 C   0  0  1  0  0  0  0  0  0  0  0  0
   -0.8043    1.7826   -0.6355 H   0  0  0  0  0  0  0  0  0  0  0  0
   -1.3563    2.9428    1.0971 C   0  0  0  0  0  0  0  0  0  0  0  0
   -1.7936    2.7571    2.0849 H   0  0  0  0  0  0  0  0  0  0  0  0
   -0.3946    3.4453    1.2531 H   0  0  0  0  0  0  0  0  0  0  0  0
   -2.2497    3.9023    0.3005 C   0  0  0  0  0  0  0  0  0  0  0  0
   -1.7917    4.1159   -0.6714 H   0  0  0  0  0  0  0  0  0  0  0  0
   -3.2324    3.4524    0.1286 H   0  0  0  0  0  0  0  0  0  0  0  0
   -2.4046    5.1914    1.1077 C   0  0  0  0  0  0  0  0  0  0  0  0
   -2.8313    4.9459    2.0866 H   0  0  0  0  0  0  0  0  0  0  0  0
   -1.4132    5.6316    1.2654 H   0  0  0  0  0  0  0  0  0  0  0  0
   -3.2748    6.1537    0.4070 N   0  3  0  0  0  0  0  0  0  0  0  0
   -3.6202    5.8892   -0.5144 H   0  0  0  0  0  0  0  0  0  0  0  0
   -3.6116    7.3071    0.9099 C   0  0  0  0  0  0  0  0  0  0  0  0
   -3.1713    7.7142    2.1494 N   0  0  0  0  0  0  0  0  0  0  0  0
   -2.6887    7.0364    2.7364 H   0  0  0  0  0  0  0  0  0  0  0  0
   -3.6253    8.5061    2.6004 H   0  0  0  0  0  0  0  0  0  0  0  0
   -4.4228    8.1523    0.1907 N   0  0  0  0  0  0  0  0  0  0  0  0
   -4.5972    7.9465   -0.7910 H   0  0  0  0  0  0  0  0  0  0  0  0
   -4.5011    9.1214    0.4944 H   0  0  0  0  0  0  0  0  0  0  0  0
    0.1212    0.8693    1.0373 C   0  0  0  0  0  0  0  0  0  0  0  0
    0.6290    1.3005    2.0672 O   0  0  0  0  0  0  0  0  0  0  0  0
    0.7717   -0.1353    0.3434 N   0  0  0  0  0  0  0  0  0  0  0  0
    0.1861   -0.6394   -0.3177 H   0  0  0  0  0  0  0  0  0  0  0  0
    1.8958   -0.8650    0.9214 C   0  0  0  0  0  0  0  0  0  0  0  0
    1.5855   -1.3836    1.8351 H   0  0  0  0  0  0  0  0  0  0  0  0
    2.2708   -1.6077    0.2108 H   0  0  0  0  0  0  0  0  0  0  0  0
    2.7151   -0.1810    1.1666 H   0  0  0  0  0  0  0  0  0  0  0  0
  1  2  1  0  0  0  0
  2  3  1  0  0  0  0
  2  4  1  0  0  0  0
  2  5  1  0  0  0  0
  5  6  2  0  0  0  0
  5  7  1  0  0  0  0
  7  8  1  0  0  0  0
  7  9  1  0  0  0  0
  9 10  1  0  0  0  0
  9 11  1  0  0  0  0
  9 29  1  0  0  0  0
 11 12  1  0  0  0  0
 11 13  1  0  0  0  0
 11 14  1  0  0  0  0
 14 15  1  0  0  0  0
 14 16  1  0  0  0  0
 14 17  1  0  0  0  0
 17 18  1  0  0  0  0
 17 19  1  0  0  0  0
 17 20  1  0  0  0  0
 20 21  1  0  0  0  0
 20 22  2  0  0  0  0
 22 23  1  0  0  0  0
 22 26  1  0  0  0  0
 23 24  1  0  0  0  0
 23 25  1  0  0  0  0
 26 27  1  0  0  0  0
 26 28  1  0  0  0  0
 29 30  2  0  0  0  0
 29 31  1  0  0  0  0
 31 32  1  0  0  0  0
 31 33  1  0  0  0  0
 33 34  1  0  0  0  0
 33 35  1  0  0  0  0
 33 36  1  0  0  0  0
M  CHG  1  20   1
M  END
$$$$

  -OEChem-02172215453D

 36 35  0     1  0  0  0  0  0999 V2000
   -4.1331   -1.8908    1.2797 H   0  0  0  0  0  0  0  0  0  0  0  0
   -4.0904   -0.8891    0.8413 C   0  0  0  0  0  0  0  0  0  0  0  0
   -4.6533   -0.2055    1.4806 H   0  0  0  0  0  0  0  0  0  0  0  0
   -4.5509   -0.9197   -0.1489 H   0  0  0  0  0  0  0  0  0  0  0  0
   -2.6485   -0.4313    0.7300 C   0  0  0  0  0  0  0  0  0  0  0  0
   -1.7604   -1.2366    0.9367 O   0  0  0  0  0  0  0  0  0  0  0  0
   -2.3822    0.8549    0.2849 N   0  0  0  0  0  0  0  0  0  0  0  0
   -3.2113    1.4076    0.0997 H   0  0  0  0  0  0  0  0  0  0  0  0
   -1.0984    1.5923    0.3766 C   0  0  1  0  0  0  0  0  0  0  0  0
   -0.7675    1.8107   -0.6432 H   0  0  0  0  0  0  0  0  0  0  0  0
   -1.3639    2.9339    1.0975 C   0  0  0  0  0  0  0  0  0  0  0  0
   -1.8248    2.7297    2.0709 H   0  0  0  0  0  0  0  0  0  0  0  0
   -0.4037    3.4281    1.2877 H   0  0  0  0  0  0  0  0  0  0  0  0
   -2.2433    3.9039    0.2974 C   0  0  0  0  0  0  0  0  0  0  0  0
   -1.7649    4.1347   -0.6607 H   0  0  0  0  0  0  0  0  0  0  0  0
   -3.2194    3.4524    0.0956 H   0  0  0  0  0  0  0  0  0  0  0  0
   -2.4238    5.1801    1.1195 C   0  0  0  0  0  0  0  0  0  0  0  0
   -2.8731    4.9188    2.0845 H   0  0  0  0  0  0  0  0  0  0  0  0
   -1.4388    5.6222    1.3072 H   0  0  0  0  0  0  0  0  0  0  0  0
   -3.2825    6.1474    0.4115 N   0  3  0  0  0  0  0  0  0  0  0  0
   -3.6114    5.8905   -0.5178 H   0  0  0  0  0  0  0  0  0  0  0  0
   -3.6387    7.2920    0.9214 C   0  0  0  0  0  0  0  0  0  0  0  0
   -3.2296    7.6822    2.1771 N   0  0  0  0  0  0  0  0  0  0  0  0
   -2.5292    7.1246    2.6624 H   0  0  0  0  0  0  0  0  0  0  0  0
   -3.4169    8.6286    2.5016 H   0  0  0  0  0  0  0  0  0  0  0  0
   -4.4490    8.1359    0.1988 N   0  0  0  0  0  0  0  0  0  0  0  0
   -4.6604    7.9273   -0.7749 H   0  0  0  0  0  0  0  0  0  0  0  0
   -4.6560    9.0659    0.5583 H   0  0  0  0  0  0  0  0  0  0  0  0
    0.1037    0.8658    1.0479 C   0  0  0  0  0  0  0  0  0  0  0  0
    0.4110    1.1245    2.2068 O   0  0  0  0  0  0  0  0  0  0  0  0
    0.9630    0.1020    0.2784 N   0  0  0  0  0  0  0  0  0  0  0  0
    0.5631   -0.2716   -0.5779 H   0  0  0  0  0  0  0  0  0  0  0  0
    2.0815   -0.6274    0.8671 C   0  0  0  0  0  0  0  0  0  0  0  0
    1.7192   -1.3593    1.5973 H   0  0  0  0  0  0  0  0  0  0  0  0
    2.6380   -1.1592    0.0893 H   0  0  0  0  0  0  0  0  0  0  0  0
    2.7691    0.0604    1.3704 H   0  0  0  0  0  0  0  0  0  0  0  0
  1  2  1  0  0  0  0
  2  3  1  0  0  0  0
  2  4  1  0  0  0  0
  2  5  1  0  0  0  0
  5  6  2  0  0  0  0
  5  7  1  0  0  0  0
  7  8  1  0  0  0  0
  7  9  1  0  0  0  0
  9 10  1  0  0  0  0
  9 11  1  0  0  0  0
  9 29  1  0  0  0  0
 11 12  1  0  0  0  0
 11 13  1  0  0  0  0
 11 14  1  0  0  0  0
 14 15  1  0  0  0  0
 14 16  1  0  0  0  0
 14 17  1  0  0  0  0
 17 18  1  0  0  0  0
 17 19  1  0  0  0  0
 17 20  1  0  0  0  0
 20 21  1  0  0  0  0
 20 22  2  0  0  0  0
 22 23  1  0  0  0  0
 22 26  1  0  0  0  0
 23 24  1  0  0  0  0
 23 25  1  0  0  0  0
 26 27  1  0  0  0  0
 26 28  1  0  0  0  0
 29 30  2  0  0  0  0
 29 31  1  0  0  0  0
 31 32  1  0  0  0  0
 31 33  1  0  0  0  0
 33 34  1  0  0  0  0
 33 35  1  0  0  0  0
 33 36  1  0  0  0  0
M  CHG  1  20   1
M  END
$$$$

  -OEChem-02172215453D

 36 35  0     1  0  0  0  0  0999 V2000
   -4.0852   -1.8960    1.2811 H   0  0  0  0  0  0  0  0  0  0  0  0
   -4.0640   -0.8817    0.8714 C   0  0  0  0  0  0  0  0  0  0  0  0
   -4.5710   -0.2135    1.5709 H   0  0  0  0  0  0  0  0  0  0  0  0
   -4.5955   -0.8784   -0.0830 H   0  0  0  0  0  0  0  0  0  0  0  0
   -2.6290   -0.4341    0.6686 C   0  0  0  0  0  0  0  0  0  0  0  0
   -1.7378   -1.2573    0.7680 O   0  0  0  0  0  0  0  0  0  0  0  0
   -2.3777    0.8562    0.2261 N   0  0  0  0  0  0  0  0  0  0  0  0
   -3.2131    1.4210    0.1267 H   0  0  0  0  0  0  0  0  0  0  0  0
   -1.0972    1.5931    0.3488 C   0  0  1  0  0  0  0  0  0  0  0  0
   -0.7488    1.8180   -0.6638 H   0  0  0  0  0  0  0  0  0  0  0  0
   -1.3619    2.9281    1.0800 C   0  0  0  0  0  0  0  0  0  0  0  0
   -1.8416    2.7170    2.0428 H   0  0  0  0  0  0  0  0  0  0  0  0
   -0.3996    3.4086    1.2926 H   0  0  0  0  0  0  0  0  0  0  0  0
   -2.2233    3.9131    0.2787 C   0  0  0  0  0  0  0  0  0  0  0  0
   -1.7296    4.1504   -0.6700 H   0  0  0  0  0  0  0  0  0  0  0  0
   -3.1990    3.4698    0.0575 H   0  0  0  0  0  0  0  0  0  0  0  0
   -2.4069    5.1831    1.1098 C   0  0  0  0  0  0  0  0  0  0  0  0
   -2.8725    4.9157    2.0651 H   0  0  0  0  0  0  0  0  0  0  0  0
   -1.4219    5.6168    1.3161 H   0  0  0  0  0  0  0  0  0  0  0  0
   -3.2496    6.1619    0.3978 N   0  3  0  0  0  0  0  0  0  0  0  0
   -3.5353    5.9298   -0.5524 H   0  0  0  0  0  0  0  0  0  0  0  0
   -3.6070    7.3052    0.9102 C   0  0  0  0  0  0  0  0  0  0  0  0
   -3.2166    7.6880    2.1738 N   0  0  0  0  0  0  0  0  0  0  0  0
   -2.5035    7.1331    2.6437 H   0  0  0  0  0  0  0  0  0  0  0  0
   -3.3218    8.6636    2.4462 H   0  0  0  0  0  0  0  0  0  0  0  0
   -4.3934    8.1634    0.1787 N   0  0  0  0  0  0  0  0  0  0  0  0
   -4.8320    7.8238   -0.6751 H   0  0  0  0  0  0  0  0  0  0  0  0
   -4.8241    8.9540    0.6552 H   0  0  0  0  0  0  0  0  0  0  0  0
    0.0842    0.8599    1.0447 C   0  0  0  0  0  0  0  0  0  0  0  0
    0.2106    0.9387    2.2621 O   0  0  0  0  0  0  0  0  0  0  0  0
    1.1304    0.3572    0.2916 N   0  0  0  0  0  0  0  0  0  0  0  0
    0.9185    0.1471   -0.6795 H   0  0  0  0  0  0  0  0  0  0  0  0
    2.2507   -0.3486    0.9056 C   0  0  0  0  0  0  0  0  0  0  0  0
    1.8958   -1.2327    1.4465 H   0  0  0  0  0  0  0  0  0  0  0  0
    2.9607   -0.6734    0.1387 H   0  0  0  0  0  0  0  0  0  0  0  0
    2.7791    0.3044    1.6084 H   0  0  0  0  0  0  0  0  0  0  0  0
  1  2  1  0  0  0  0
  2  3  1  0  0  0  0
  2  4  1  0  0  0  0
  2  5  1  0  0  0  0
  5  6  2  0  0  0  0
  5  7  1  0  0  0  0
  7  8  1  0  0  0  0
  7  9  1  0  0  0  0
  9 10  1  0  0  0  0
  9 11  1  0  0  0  0
  9 29  1  0  0  0  0
 11 12  1  0  0  0  0
 11 13  1  0  0  0  0
 11 14  1  0  0  0  0
 14 15  1  0  0  0  0
 14 16  1  0  0  0  0
 14 17  1  0  0  0  0
 17 18  1  0  0  0  0
 17 19  1  0  0  0  0
 17 20  1  0  0  0  0
 20 21  1  0  0  0  0
 20 22  2  0  0  0  0
 22 23  1  0  0  0  0
 22 26  1  0  0  0  0
 23 24  1  0  0  0  0
 23 25  1  0  0  0  0
 26 27  1  0  0  0  0
 26 28  1  0  0  0  0
 29 30  2  0  0  0  0
 29 31  1  0  0  0  0
 31 32  1  0  0  0  0
 31 33  1  0  0  0  0
 33 34  1  0  0  0  0
 33 35  1  0  0  0  0
 33 36  1  0  0  0  0
M  CHG  1  20   1
M  END
$$$$

  -OEChem-02172215453D

 36 35  0     1  0  0  0  0  0999 V2000
   -4.0415   -1.8900    1.3060 H   0  0  0  0  0  0  0  0  0  0  0  0
   -4.0365   -0.8646    0.9244 C   0  0  0  0  0  0  0  0  0  0  0  0
   -4.4706   -0.2093    1.6829 H   0  0  0  0  0  0  0  0  0  0  0  0
   -4.6462   -0.8238    0.0188 H   0  0  0  0  0  0  0  0  0  0  0  0
   -2.6155   -0.4341    0.6150 C   0  0  0  0  0  0  0  0  0  0  0  0
   -1.7320   -1.2722    0.6072 O   0  0  0  0  0  0  0  0  0  0  0  0
   -2.3765    0.8585    0.1741 N   0  0  0  0  0  0  0  0  0  0  0  0
   -3.2125    1.4303    0.1487 H   0  0  0  0  0  0  0  0  0  0  0  0
   -1.0962    1.5900    0.3202 C   0  0  1  0  0  0  0  0  0  0  0  0
   -0.7350    1.8229   -0.6859 H   0  0  0  0  0  0  0  0  0  0  0  0
   -1.3666    2.9142    1.0647 C   0  0  0  0  0  0  0  0  0  0  0  0
   -1.8597    2.6920    2.0183 H   0  0  0  0  0  0  0  0  0  0  0  0
   -0.4064    3.3894    1.2973 H   0  0  0  0  0  0  0  0  0  0  0  0
   -2.2170    3.9074    0.2622 C   0  0  0  0  0  0  0  0  0  0  0  0
   -1.7115    4.1535   -0.6783 H   0  0  0  0  0  0  0  0  0  0  0  0
   -3.1904    3.4677    0.0235 H   0  0  0  0  0  0  0  0  0  0  0  0
   -2.4099    5.1679    1.1050 C   0  0  0  0  0  0  0  0  0  0  0  0
   -2.8888    4.8909    2.0512 H   0  0  0  0  0  0  0  0  0  0  0  0
   -1.4273    5.5982    1.3292 H   0  0  0  0  0  0  0  0  0  0  0  0
   -3.2421    6.1541    0.3921 N   0  3  0  0  0  0  0  0  0  0  0  0
   -3.5140    5.9335   -0.5649 H   0  0  0  0  0  0  0  0  0  0  0  0
   -3.6050    7.2918    0.9125 C   0  0  0  0  0  0  0  0  0  0  0  0
   -3.2310    7.6599    2.1855 N   0  0  0  0  0  0  0  0  0  0  0  0
   -2.5353    7.0911    2.6645 H   0  0  0  0  0  0  0  0  0  0  0  0
   -3.3287    8.6343    2.4641 H   0  0  0  0  0  0  0  0  0  0  0  0
   -4.3739    8.1616    0.1764 N   0  0  0  0  0  0  0  0  0  0  0  0
   -4.7949    7.8356   -0.6914 H   0  0  0  0  0  0  0  0  0  0  0  0
   -4.8077    8.9508    0.6523 H   0  0  0  0  0  0  0  0  0  0  0  0
    0.0729    0.8539    1.0310 C   0  0  0  0  0  0  0  0  0  0  0  0
    0.0557    0.7548    2.2531 O   0  0  0  0  0  0  0  0  0  0  0  0
    1.2622    0.6260    0.3611 N   0  0  0  0  0  0  0  0  0  0  0  0
    1.2086    0.5905   -0.6525 H   0  0  0  0  0  0  0  0  0  0  0  0
    2.3961   -0.0310    1.0035 C   0  0  0  0  0  0  0  0  0  0  0  0
    2.1110   -1.0285    1.3552 H   0  0  0  0  0  0  0  0  0  0  0  0
    3.2243   -0.1361    0.2961 H   0  0  0  0  0  0  0  0  0  0  0  0
    2.7478    0.5555    1.8589 H   0  0  0  0  0  0  0  0  0  0  0  0
  1  2  1  0  0  0  0
  2  3  1  0  0  0  0
  2  4  1  0  0  0  0
  2  5  1  0  0  0  0
  5  6  2  0  0  0  0
  5  7  1  0  0  0  0
  7  8  1  0  0  0  0
  7  9  1  0  0  0  0
  9 10  1  0  0  0  0
  9 11  1  0  0  0  0
  9 29  1  0  0  0  0
 11 12  1  0  0  0  0
 11 13  1  0  0  0  0
 11 14  1  0  0  0  0
 14 15  1  0  0  0  0
 14 16  1  0  0  0  0
 14 17  1  0  0  0  0
 17 18  1  0  0  0  0
 17 19  1  0  0  0  0
 17 20  1  0  0  0  0
 20 21  1  0  0  0  0
 20 22  2  0  0  0  0
 22 23  1  0  0  0  0
 22 26  1  0  0  0  0
 23 24  1  0  0  0  0
 23 25  1  0  0  0  0
 26 27  1  0  0  0  0
 26 28  1  0  0  0  0
 29 30  2  0  0  0  0
 29 31  1  0  0  0  0
 31 32  1  0  0  0  0
 31 33  1  0  0  0  0
 33 34  1  0  0  0  0
 33 35  1  0  0  0  0
 33 36  1  0  0  0  0
M  CHG  1  20   1
M  END
$$$$

  -OEChem-02172215453D

 36 35  0     1  0  0  0  0  0999 V2000
   -4.0059   -1.8791    1.3276 H   0  0  0  0  0  0  0  0  0  0  0  0
   -4.0120   -0.8453    0.9700 C   0  0  0  0  0  0  0  0  0  0  0  0
   -4.3713   -0.2009    1.7753 H   0  0  0  0  0  0  0  0  0  0  0  0
   -4.6904   -0.7718    0.1170 H   0  0  0  0  0  0  0  0  0  0  0  0
   -2.6115   -0.4330    0.5594 C   0  0  0  0  0  0  0  0  0  0  0  0
   -1.7504   -1.2863    0.4399 O   0  0  0  0  0  0  0  0  0  0  0  0
   -2.3769    0.8623    0.1262 N   0  0  0  0  0  0  0  0  0  0  0  0
   -3.2074    1.4410    0.1658 H   0  0  0  0  0  0  0  0  0  0  0  0
   -1.0930    1.5827    0.2935 C   0  0  1  0  0  0  0  0  0  0  0  0
   -0.7219    1.8226   -0.7071 H   0  0  0  0  0  0  0  0  0  0  0  0
   -1.3650    2.8959    1.0556 C   0  0  0  0  0  0  0  0  0  0  0  0
   -1.8690    2.6618    2.0005 H   0  0  0  0  0  0  0  0  0  0  0  0
   -0.4059    3.3643    1.3055 H   0  0  0  0  0  0  0  0  0  0  0  0
   -2.2042    3.9015    0.2558 C   0  0  0  0  0  0  0  0  0  0  0  0
   -1.6865    4.1566   -0.6753 H   0  0  0  0  0  0  0  0  0  0  0  0
   -3.1756    3.4666   -0.0002 H   0  0  0  0  0  0  0  0  0  0  0  0
   -2.4071    5.1550    1.1065 C   0  0  0  0  0  0  0  0  0  0  0  0
   -2.8972    4.8717    2.0450 H   0  0  0  0  0  0  0  0  0  0  0  0
   -1.4272    5.5838    1.3447 H   0  0  0  0  0  0  0  0  0  0  0  0
   -3.2299    6.1466    0.3894 N   0  3  0  0  0  0  0  0  0  0  0  0
   -3.4903    5.9321   -0.5722 H   0  0  0  0  0  0  0  0  0  0  0  0
   -3.6001    7.2807    0.9126 C   0  0  0  0  0  0  0  0  0  0  0  0
   -3.2427    7.6387    2.1932 N   0  0  0  0  0  0  0  0  0  0  0  0
   -2.5523    7.0670    2.6760 H   0  0  0  0  0  0  0  0  0  0  0  0
   -3.3494    8.6094    2.4814 H   0  0  0  0  0  0  0  0  0  0  0  0
   -4.3581    8.1569    0.1723 N   0  0  0  0  0  0  0  0  0  0  0  0
   -4.7672    7.8382   -0.7038 H   0  0  0  0  0  0  0  0  0  0  0  0
   -4.7977    8.9436    0.6471 H   0  0  0  0  0  0  0  0  0  0  0  0
    0.0655    0.8372    1.0112 C   0  0  0  0  0  0  0  0  0  0  0  0
   -0.0611    0.5660    2.2002 O   0  0  0  0  0  0  0  0  0  0  0  0
    1.3452    0.8784    0.4842 N   0  0  0  0  0  0  0  0  0  0  0  0
    1.4186    1.0137   -0.5197 H   0  0  0  0  0  0  0  0  0  0  0  0
    2.4882    0.2897    1.1763 C   0  0  0  0  0  0  0  0  0  0  0  0
    2.3190   -0.7779    1.3549 H   0  0  0  0  0  0  0  0  0  0  0  0
    3.3954    0.4007    0.5744 H   0  0  0  0  0  0  0  0  0  0  0  0
    2.6523    0.7850    2.1394 H   0  0  0  0  0  0  0  0  0  0  0  0
  1  2  1  0  0  0  0
  2  3  1  0  0  0  0
  2  4  1  0  0  0  0
  2  5  1  0  0  0  0
  5  6  2  0  0  0  0
  5  7  1  0  0  0  0
  7  8  1  0  0  0  0
  7  9  1  0  0  0  0
  9 10  1  0  0  0  0
  9 11  1  0  0  0  0
  9 29  1  0  0  0  0
 11 12  1  0  0  0  0
 11 13  1  0  0  0  0
 11 14  1  0  0  0  0
 14 15  1  0  0  0  0
 14 16  1  0  0  0  0
 14 17  1  0  0  0  0
 17 18  1  0  0  0  0
 17 19  1  0  0  0  0
 17 20  1  0  0  0  0
 20 21  1  0  0  0  0
 20 22  2  0  0  0  0
 22 23  1  0  0  0  0
 22 26  1  0  0  0  0
 23 24  1  0  0  0  0
 23 25  1  0  0  0  0
 26 27  1  0  0  0  0
 26 28  1  0  0  0  0
 29 30  2  0  0  0  0
 29 31  1  0  0  0  0
 31 32  1  0  0  0  0
 31 33  1  0  0  0  0
 33 34  1  0  0  0  0
 33 35  1  0  0  0  0
 33 36  1  0  0  0  0
M  CHG  1  20   1
M  END
$$$$

  -OEChem-02172215453D

 36 35  0     1  0  0  0  0  0999 V2000
   -3.9840   -1.8715    1.3327 H   0  0  0  0  0  0  0  0  0  0  0  0
   -3.9897   -0.8266    1.0084 C   0  0  0  0  0  0  0  0  0  0  0  0
   -4.2767   -0.2011    1.8565 H   0  0  0  0  0  0  0  0  0  0  0  0
   -4.7227   -0.7107    0.2068 H   0  0  0  0  0  0  0  0  0  0  0  0
   -2.6109   -0.4322    0.5154 C   0  0  0  0  0  0  0  0  0  0  0  0
   -1.7843   -1.2990    0.2908 O   0  0  0  0  0  0  0  0  0  0  0  0
   -2.3743    0.8652    0.0908 N   0  0  0  0  0  0  0  0  0  0  0  0
   -3.1966    1.4489    0.1825 H   0  0  0  0  0  0  0  0  0  0  0  0
   -1.0852    1.5746    0.2715 C   0  0  1  0  0  0  0  0  0  0  0  0
   -0.7074    1.8197   -0.7256 H   0  0  0  0  0  0  0  0  0  0  0  0
   -1.3573    2.8796    1.0482 C   0  0  0  0  0  0  0  0  0  0  0  0
   -1.8665    2.6359    1.9880 H   0  0  0  0  0  0  0  0  0  0  0  0
   -0.3991    3.3445    1.3087 H   0  0  0  0  0  0  0  0  0  0  0  0
   -2.1890    3.8960    0.2533 C   0  0  0  0  0  0  0  0  0  0  0  0
   -1.6639    4.1580   -0.6721 H   0  0  0  0  0  0  0  0  0  0  0  0
   -3.1588    3.4648   -0.0147 H   0  0  0  0  0  0  0  0  0  0  0  0
   -2.3987    5.1445    1.1103 C   0  0  0  0  0  0  0  0  0  0  0  0
   -2.8981    4.8558    2.0422 H   0  0  0  0  0  0  0  0  0  0  0  0
   -1.4215    5.5727    1.3608 H   0  0  0  0  0  0  0  0  0  0  0  0
   -3.2154    6.1388    0.3893 N   0  3  0  0  0  0  0  0  0  0  0  0
   -3.4698    5.9251   -0.5742 H   0  0  0  0  0  0  0  0  0  0  0  0
   -3.5925    7.2714    0.9113 C   0  0  0  0  0  0  0  0  0  0  0  0
   -3.2500    7.6290    2.1961 N   0  0  0  0  0  0  0  0  0  0  0  0
   -2.5597    7.0622    2.6849 H   0  0  0  0  0  0  0  0  0  0  0  0
   -3.3658    8.5987    2.4842 H   0  0  0  0  0  0  0  0  0  0  0  0
   -4.3496    8.1450    0.1673 N   0  0  0  0  0  0  0  0  0  0  0  0
   -4.7553    7.8229   -0.7093 H   0  0  0  0  0  0  0  0  0  0  0  0
   -4.7991    8.9258    0.6426 H   0  0  0  0  0  0  0  0  0  0  0  0
    0.0683    0.8214    0.9906 C   0  0  0  0  0  0  0  0  0  0  0  0
   -0.1343    0.3835    2.1177 O   0  0  0  0  0  0  0  0  0  0  0  0
    1.3808    1.1113    0.6553 N   0  0  0  0  0  0  0  0  0  0  0  0
    1.5504    1.4228   -0.2962 H   0  0  0  0  0  0  0  0  0  0  0  0
    2.5137    0.5834    1.4108 C   0  0  0  0  0  0  0  0  0  0  0  0
    2.4821   -0.5114    1.4354 H   0  0  0  0  0  0  0  0  0  0  0  0
    3.4561    0.8919    0.9482 H   0  0  0  0  0  0  0  0  0  0  0  0
    2.4977    0.9574    2.4402 H   0  0  0  0  0  0  0  0  0  0  0  0
  1  2  1  0  0  0  0
  2  3  1  0  0  0  0
  2  4  1  0  0  0  0
  2  5  1  0  0  0  0
  5  6  2  0  0  0  0
  5  7  1  0  0  0  0
  7  8  1  0  0  0  0
  7  9  1  0  0  0  0
  9 10  1  0  0  0  0
  9 11  1  0  0  0  0
  9 29  1  0  0  0  0
 11 12  1  0  0  0  0
 11 13  1  0  0  0  0
 11 14  1  0  0  0  0
 14 15  1  0  0  0  0
 14 16  1  0  0  0  0
 14 17  1  0  0  0  0
 17 18  1  0  0  0  0
 17 19  1  0  0  0  0
 17 20  1  0  0  0  0
 20 21  1  0  0  0  0
 20 22  2  0  0  0  0
 22 23  1  0  0  0  0
 22 26  1  0  0  0  0
 23 24  1  0  0  0  0
 23 25  1  0  0  0  0
 26 27  1  0  0  0  0
 26 28  1  0  0  0  0
 29 30  2  0  0  0  0
 29 31  1  0  0  0  0
 31 32  1  0  0  0  0
 31 33  1  0  0  0  0
 33 34  1  0  0  0  0
 33 35  1  0  0  0  0
 33 36  1  0  0  0  0
M  CHG  1  20   1
M  END
$$$$

  -OEChem-02172215453D

 36 35  0     1  0  0  0  0  0999 V2000
   -3.9739   -1.8593    1.3123 H   0  0  0  0  0  0  0  0  0  0  0  0
   -3.9657   -0.7985    1.0450 C   0  0  0  0  0  0  0  0  0  0  0  0
   -4.1708   -0.2120    1.9433 H   0  0  0  0  0  0  0  0  0  0  0  0
   -4.7481   -0.6157    0.3051 H   0  0  0  0  0  0  0  0  0  0  0  0
   -2.6111   -0.4215    0.4776 C   0  0  0  0  0  0  0  0  0  0  0  0
   -1.8330   -1.2991    0.1464 O   0  0  0  0  0  0  0  0  0  0  0  0
   -2.3637    0.8783    0.0699 N   0  0  0  0  0  0  0  0  0  0  0  0
   -3.1757    1.4682    0.2022 H   0  0  0  0  0  0  0  0  0  0  0  0
   -1.0674    1.5724    0.2642 C   0  0  1  0  0  0  0  0  0  0  0  0
   -0.6840    1.8256   -0.7286 H   0  0  0  0  0  0  0  0  0  0  0  0
   -1.3500    2.8705    1.0517 C   0  0  0  0  0  0  0  0  0  0  0  0
   -1.8695    2.6167    1.9830 H   0  0  0  0  0  0  0  0  0  0  0  0
   -0.3990    3.3388    1.3290 H   0  0  0  0  0  0  0  0  0  0  0  0
   -2.1737    3.8921    0.2526 C   0  0  0  0  0  0  0  0  0  0  0  0
   -1.6385    4.1612   -0.6647 H   0  0  0  0  0  0  0  0  0  0  0  0
   -3.1398    3.4622   -0.0309 H   0  0  0  0  0  0  0  0  0  0  0  0
   -2.3988    5.1357    1.1129 C   0  0  0  0  0  0  0  0  0  0  0  0
   -2.9105    4.8421    2.0367 H   0  0  0  0  0  0  0  0  0  0  0  0
   -1.4265    5.5662    1.3781 H   0  0  0  0  0  0  0  0  0  0  0  0
   -3.2083    6.1301    0.3838 N   0  3  0  0  0  0  0  0  0  0  0  0
   -3.4480    5.9194   -0.5843 H   0  0  0  0  0  0  0  0  0  0  0  0
   -3.5968    7.2592    0.9048 C   0  0  0  0  0  0  0  0  0  0  0  0
   -3.2734    7.6119    2.1959 N   0  0  0  0  0  0  0  0  0  0  0  0
   -2.5833    7.0480    2.6879 H   0  0  0  0  0  0  0  0  0  0  0  0
   -3.3952    8.5805    2.4853 H   0  0  0  0  0  0  0  0  0  0  0  0
   -4.3510    8.1310    0.1556 N   0  0  0  0  0  0  0  0  0  0  0  0
   -4.7446    7.8094   -0.7267 H   0  0  0  0  0  0  0  0  0  0  0  0
   -4.8137    8.9049    0.6296 H   0  0  0  0  0  0  0  0  0  0  0  0
    0.0897    0.8133    0.9781 C   0  0  0  0  0  0  0  0  0  0  0  0
   -0.1547    0.1915    2.0052 O   0  0  0  0  0  0  0  0  0  0  0  0
    1.3779    1.3167    0.8773 N   0  0  0  0  0  0  0  0  0  0  0  0
    1.6058    1.8164    0.0237 H   0  0  0  0  0  0  0  0  0  0  0  0
    2.4863    0.8118    1.6855 C   0  0  0  0  0  0  0  0  0  0  0  0
    2.5956   -0.2704    1.5543 H   0  0  0  0  0  0  0  0  0  0  0  0
    3.4232    1.2923    1.3875 H   0  0  0  0  0  0  0  0  0  0  0  0
    2.3160    1.0201    2.7472 H   0  0  0  0  0  0  0  0  0  0  0  0
  1  2  1  0  0  0  0
  2  3  1  0  0  0  0
  2  4  1  0  0  0  0
  2  5  1  0  0  0  0
  5  6  2  0  0  0  0
  5  7  1  0  0  0  0
  7  8  1  0  0  0  0
  7  9  1  0  0  0  0
  9 10  1  0  0  0  0
  9 11  1  0  0  0  0
  9 29  1  0  0  0  0
 11 12  1  0  0  0  0
 11 13  1  0  0  0  0
 11 14  1  0  0  0  0
 14 15  1  0  0  0  0
 14 16  1  0  0  0  0
 14 17  1  0  0  0  0
 17 18  1  0  0  0  0
 17 19  1  0  0  0  0
 17 20  1  0  0  0  0
 20 21  1  0  0  0  0
 20 22  2  0  0  0  0
 22 23  1  0  0  0  0
 22 26  1  0  0  0  0
 23 24  1  0  0  0  0
 23 25  1  0  0  0  0
 26 27  1  0  0  0  0
 26 28  1  0  0  0  0
 29 30  2  0  0  0  0
 29 31  1  0  0  0  0
 31 32  1  0  0  0  0
 31 33  1  0  0  0  0
 33 34  1  0  0  0  0
 33 35  1  0  0  0  0
 33 36  1  0  0  0  0
M  CHG  1  20   1
M  END
$$$$

  -OEChem-02172215453D

 36 35  0     1  0  0  0  0  0999 V2000
   -3.6984   -2.1588    1.2305 H   0  0  0  0  0  0  0  0  0  0  0  0
   -3.6492   -1.2846    0.5749 C   0  0  0  0  0  0  0  0  0  0  0  0
   -4.6600   -0.9028    0.4173 H   0  0  0  0  0  0  0  0  0  0  0  0
   -3.2250   -1.5932   -0.3837 H   0  0  0  0  0  0  0  0  0  0  0  0
   -2.7768   -0.2171    1.2058 C   0  0  0  0  0  0  0  0  0  0  0  0
   -2.4548   -0.2987    2.3807 O   0  0  0  0  0  0  0  0  0  0  0  0
   -2.5483    0.9861    0.5618 N   0  0  0  0  0  0  0  0  0  0  0  0
   -3.0403    1.0153   -0.3259 H   0  0  0  0  0  0  0  0  0  0  0  0
   -1.2052    1.6164    0.5068 C   0  0  1  0  0  0  0  0  0  0  0  0
   -1.0333    2.0002   -0.5035 H   0  0  0  0  0  0  0  0  0  0  0  0
   -1.2794    2.7880    1.5141 C   0  0  0  0  0  0  0  0  0  0  0  0
   -1.5864    2.3983    2.4921 H   0  0  0  0  0  0  0  0  0  0  0  0
   -0.2875    3.2328    1.6394 H   0  0  0  0  0  0  0  0  0  0  0  0
   -2.2423    3.9003    1.0748 C   0  0  0  0  0  0  0  0  0  0  0  0
   -1.9267    4.3046    0.1073 H   0  0  0  0  0  0  0  0  0  0  0  0
   -3.2547    3.4962    0.9654 H   0  0  0  0  0  0  0  0  0  0  0  0
   -2.2435    5.0029    2.1327 C   0  0  0  0  0  0  0  0  0  0  0  0
   -2.5417    4.5681    3.0936 H   0  0  0  0  0  0  0  0  0  0  0  0
   -1.2292    5.4050    2.2340 H   0  0  0  0  0  0  0  0  0  0  0  0
   -3.1770    6.0804    1.7563 N   0  3  0  0  0  0  0  0  0  0  0  0
   -3.6659    5.9844    0.8673 H   0  0  0  0  0  0  0  0  0  0  0  0
   -3.4156    7.1164    2.5085 C   0  0  0  0  0  0  0  0  0  0  0  0
   -2.8024    7.2823    3.7297 N   0  0  0  0  0  0  0  0  0  0  0  0
   -2.2972    6.4881    4.1179 H   0  0  0  0  0  0  0  0  0  0  0  0
   -3.1892    7.9641    4.3794 H   0  0  0  0  0  0  0  0  0  0  0  0
   -4.2980    8.0793    2.0810 N   0  0  0  0  0  0  0  0  0  0  0  0
   -4.6211    8.0572    1.1158 H   0  0  0  0  0  0  0  0  0  0  0  0
   -4.3192    8.9718    2.5714 H   0  0  0  0  0  0  0  0  0  0  0  0
    0.0455    0.7503    0.8611 C   0  0  0  0  0  0  0  0  0  0  0  0
    0.0196   -0.4678    0.7504 O   0  0  0  0  0  0  0  0  0  0  0  0
    1.3054    1.3287    0.8181 N   0  0  0  0  0  0  0  0  0  0  0  0
    1.3635    2.3404    0.7783 H   0  0  0  0  0  0  0  0  0  0  0  0
    2.5472    0.5607    0.8758 C   0  0  0  0  0  0  0  0  0  0  0  0
    2.6424   -0.0816   -0.0063 H   0  0  0  0  0  0  0  0  0  0  0  0
    3.4099    1.2330    0.9081 H   0  0  0  0  0  0  0  0  0  0  0  0
    2.5681   -0.0690    1.7719 H   0  0  0  0  0  0  0  0  0  0  0  0
  1  2  1  0  0  0  0
  2  3  1  0  0  0  0
  2  4  1  0  0  0  0
  2  5  1  0  0  0  0
  5  6  2  0  0  0  0
  5  7  1  0  0  0  0
  7  8  1  0  0  0  0
  7  9  1  0  0  0  0
  9 10  1  0  0  0  0
  9 11  1  0  0  0  0
  9 29  1  0  0  0  0
 11 12  1  0  0  0  0
 11 13  1  0  0  0  0
 11 14  1  0  0  0  0
 14 15  1  0  0  0  0
 14 16  1  0  0  0  0
 14 17  1  0  0  0  0
 17 18  1  0  0  0  0
 17 19  1  0  0  0  0
 17 20  1  0  0  0  0
 20 21  1  0  0  0  0
 20 22  2  0  0  0  0
 22 23  1  0  0  0  0
 22 26  1  0  0  0  0
 23 24  1  0  0  0  0
 23 25  1  0  0  0  0
 26 27  1  0  0  0  0
 26 28  1  0  0  0  0
 29 30  2  0  0  0  0
 29 31  1  0  0  0  0
 31 32  1  0  0  0  0
 31 33  1  0  0  0  0
 33 34  1  0  0  0  0
 33 35  1  0  0  0  0
 33 36  1  0  0  0  0
M  CHG  1  20   1
M  END
$$$$

  -OEChem-02172215453D

 36 35  0     1  0  0  0  0  0999 V2000
   -3.6762   -2.1521    1.2017 H   0  0  0  0  0  0  0  0  0  0  0  0
   -3.6643   -1.2500    0.5837 C   0  0  0  0  0  0  0  0  0  0  0  0
   -4.6792   -0.8520    0.5174 H   0  0  0  0  0  0  0  0  0  0  0  0
   -3.3147   -1.5178   -0.4163 H   0  0  0  0  0  0  0  0  0  0  0  0
   -2.7350   -0.2201    1.1945 C   0  0  0  0  0  0  0  0  0  0  0  0
   -2.3234   -0.3608    2.3356 O   0  0  0  0  0  0  0  0  0  0  0  0
   -2.5282    1.0001    0.5747 N   0  0  0  0  0  0  0  0  0  0  0  0
   -3.0434    1.0544   -0.2987 H   0  0  0  0  0  0  0  0  0  0  0  0
   -1.1909    1.6412    0.5154 C   0  0  1  0  0  0  0  0  0  0  0  0
   -1.0213    2.0322   -0.4925 H   0  0  0  0  0  0  0  0  0  0  0  0
   -1.2672    2.8114    1.5252 C   0  0  0  0  0  0  0  0  0  0  0  0
   -1.5645    2.4192    2.5051 H   0  0  0  0  0  0  0  0  0  0  0  0
   -0.2807    3.2693    1.6411 H   0  0  0  0  0  0  0  0  0  0  0  0
   -2.2423    3.9140    1.0865 C   0  0  0  0  0  0  0  0  0  0  0  0
   -1.9339    4.3178    0.1162 H   0  0  0  0  0  0  0  0  0  0  0  0
   -3.2511    3.5003    0.9811 H   0  0  0  0  0  0  0  0  0  0  0  0
   -2.2523    5.0213    2.1393 C   0  0  0  0  0  0  0  0  0  0  0  0
   -2.5429    4.5891    3.1036 H   0  0  0  0  0  0  0  0  0  0  0  0
   -1.2420    5.4346    2.2352 H   0  0  0  0  0  0  0  0  0  0  0  0
   -3.1991    6.0849    1.7569 N   0  3  0  0  0  0  0  0  0  0  0  0
   -3.6917    5.9737    0.8718 H   0  0  0  0  0  0  0  0  0  0  0  0
   -3.4508    7.1241    2.5005 C   0  0  0  0  0  0  0  0  0  0  0  0
   -2.8400    7.3093    3.7203 N   0  0  0  0  0  0  0  0  0  0  0  0
   -2.3152    6.5303    4.1130 H   0  0  0  0  0  0  0  0  0  0  0  0
   -3.2336    7.9925    4.3644 H   0  0  0  0  0  0  0  0  0  0  0  0
   -4.3482    8.0702    2.0657 N   0  0  0  0  0  0  0  0  0  0  0  0
   -4.6644    8.0395    1.0984 H   0  0  0  0  0  0  0  0  0  0  0  0
   -4.3845    8.9649    2.5513 H   0  0  0  0  0  0  0  0  0  0  0  0
    0.0427    0.7397    0.8395 C   0  0  0  0  0  0  0  0  0  0  0  0
    0.0460   -0.4231    0.4557 O   0  0  0  0  0  0  0  0  0  0  0  0
    1.2829    1.2947    1.1165 N   0  0  0  0  0  0  0  0  0  0  0  0
    1.3175    2.2752    1.3716 H   0  0  0  0  0  0  0  0  0  0  0  0
    2.5112    0.5087    1.2053 C   0  0  0  0  0  0  0  0  0  0  0  0
    2.7391    0.0414    0.2412 H   0  0  0  0  0  0  0  0  0  0  0  0
    3.3535    1.1490    1.4847 H   0  0  0  0  0  0  0  0  0  0  0  0
    2.4101   -0.2778    1.9611 H   0  0  0  0  0  0  0  0  0  0  0  0
  1  2  1  0  0  0  0
  2  3  1  0  0  0  0
  2  4  1  0  0  0  0
  2  5  1  0  0  0  0
  5  6  2  0  0  0  0
  5  7  1  0  0  0  0
  7  8  1  0  0  0  0
  7  9  1  0  0  0  0
  9 10  1  0  0  0  0
  9 11  1  0  0  0  0
  9 29  1  0  0  0  0
 11 12  1  0  0  0  0
 11 13  1  0  0  0  0
 11 14  1  0  0  0  0
 14 15  1  0  0  0  0
 14 16  1  0  0  0  0
 14 17  1  0  0  0  0
 17 18  1  0  0  0  0
 17 19  1  0  0  0  0
 17 20  1  0  0  0  0
 20 21  1  0  0  0  0
 20 22  2  0  0  0  0
 22 23  1  0  0  0  0
 22 26  1  0  0  0  0
 23 24  1  0  0  0  0
 23 25  1  0  0  0  0
 26 27  1  0  0  0  0
 26 28  1  0  0  0  0
 29 30  2  0  0  0  0
 29 31  1  0  0  0  0
 31 32  1  0  0  0  0
 31 33  1  0  0  0  0
 33 34  1  0  0  0  0
 33 35  1  0  0  0  0
 33 36  1  0  0  0  0
M  CHG  1  20   1
M  END
$$$$

  -OEChem-02172215453D

 36 35  0     1  0  0  0  0  0999 V2000
   -3.6644   -2.1537    1.2005 H   0  0  0  0  0  0  0  0  0  0  0  0
   -3.6495   -1.2495    0.5854 C   0  0  0  0  0  0  0  0  0  0  0  0
   -4.6602   -0.8384    0.5363 H   0  0  0  0  0  0  0  0  0  0  0  0
   -3.3191   -1.5187   -0.4208 H   0  0  0  0  0  0  0  0  0  0  0  0
   -2.6976   -0.2327    1.1840 C   0  0  0  0  0  0  0  0  0  0  0  0
   -2.2241   -0.4125    2.2953 O   0  0  0  0  0  0  0  0  0  0  0  0
   -2.5204    1.0041    0.5868 N   0  0  0  0  0  0  0  0  0  0  0  0
   -3.0561    1.0758   -0.2731 H   0  0  0  0  0  0  0  0  0  0  0  0
   -1.1938    1.6649    0.5202 C   0  0  1  0  0  0  0  0  0  0  0  0
   -1.0372    2.0602   -0.4883 H   0  0  0  0  0  0  0  0  0  0  0  0
   -1.2615    2.8367    1.5274 C   0  0  0  0  0  0  0  0  0  0  0  0
   -1.5400    2.4474    2.5137 H   0  0  0  0  0  0  0  0  0  0  0  0
   -0.2763    3.3035    1.6195 H   0  0  0  0  0  0  0  0  0  0  0  0
   -2.2499    3.9297    1.0953 C   0  0  0  0  0  0  0  0  0  0  0  0
   -1.9564    4.3289    0.1184 H   0  0  0  0  0  0  0  0  0  0  0  0
   -3.2561    3.5067    1.0051 H   0  0  0  0  0  0  0  0  0  0  0  0
   -2.2576    5.0450    2.1398 C   0  0  0  0  0  0  0  0  0  0  0  0
   -2.5336    4.6177    3.1104 H   0  0  0  0  0  0  0  0  0  0  0  0
   -1.2498    5.4684    2.2210 H   0  0  0  0  0  0  0  0  0  0  0  0
   -3.2181    6.0972    1.7595 N   0  3  0  0  0  0  0  0  0  0  0  0
   -3.7164    5.9769    0.8788 H   0  0  0  0  0  0  0  0  0  0  0  0
   -3.4714    7.1401    2.4971 C   0  0  0  0  0  0  0  0  0  0  0  0
   -2.8493    7.3411    3.7084 N   0  0  0  0  0  0  0  0  0  0  0  0
   -2.3143    6.5698    4.1025 H   0  0  0  0  0  0  0  0  0  0  0  0
   -3.2390    8.0291    4.3498 H   0  0  0  0  0  0  0  0  0  0  0  0
   -4.3834    8.0729    2.0641 N   0  0  0  0  0  0  0  0  0  0  0  0
   -4.7093    8.0318    1.1004 H   0  0  0  0  0  0  0  0  0  0  0  0
   -4.4297    8.9690    2.5460 H   0  0  0  0  0  0  0  0  0  0  0  0
    0.0338    0.7467    0.8110 C   0  0  0  0  0  0  0  0  0  0  0  0
    0.0943   -0.3262    0.2233 O   0  0  0  0  0  0  0  0  0  0  0  0
    1.2044    1.2231    1.3803 N   0  0  0  0  0  0  0  0  0  0  0  0
    1.1493    2.0903    1.9025 H   0  0  0  0  0  0  0  0  0  0  0  0
    2.4024    0.4009    1.5286 C   0  0  0  0  0  0  0  0  0  0  0  0
    2.7724    0.0800    0.5488 H   0  0  0  0  0  0  0  0  0  0  0  0
    3.1952    0.9690    2.0247 H   0  0  0  0  0  0  0  0  0  0  0  0
    2.1847   -0.4887    2.1298 H   0  0  0  0  0  0  0  0  0  0  0  0
  1  2  1  0  0  0  0
  2  3  1  0  0  0  0
  2  4  1  0  0  0  0
  2  5  1  0  0  0  0
  5  6  2  0  0  0  0
  5  7  1  0  0  0  0
  7  8  1  0  0  0  0
  7  9  1  0  0  0  0
  9 10  1  0  0  0  0
  9 11  1  0  0  0  0
  9 29  1  0  0  0  0
 11 12  1  0  0  0  0
 11 13  1  0  0  0  0
 11 14  1  0  0  0  0
 14 15  1  0  0  0  0
 14 16  1  0  0  0  0
 14 17  1  0  0  0  0
 17 18  1  0  0  0  0
 17 19  1  0  0  0  0
 17 20  1  0  0  0  0
 20 21  1  0  0  0  0
 20 22  2  0  0  0  0
 22 23  1  0  0  0  0
 22 26  1  0  0  0  0
 23 24  1  0  0  0  0
 23 25  1  0  0  0  0
 26 27  1  0  0  0  0
 26 28  1  0  0  0  0
 29 30  2  0  0  0  0
 29 31  1  0  0  0  0
 31 32  1  0  0  0  0
 31 33  1  0  0  0  0
 33 34  1  0  0  0  0
 33 35  1  0  0  0  0
 33 36  1  0  0  0  0
M  CHG  1  20   1
M  END
$$$$

  -OEChem-02172215453D

 36 35  0     1  0  0  0  0  0999 V2000
   -3.6303   -2.1724    1.1686 H   0  0  0  0  0  0  0  0  0  0  0  0
   -3.6481   -1.2476    0.5849 C   0  0  0  0  0  0  0  0  0  0  0  0
   -4.6599   -0.8366    0.6055 H   0  0  0  0  0  0  0  0  0  0  0  0
   -3.3730   -1.4815   -0.4466 H   0  0  0  0  0  0  0  0  0  0  0  0
   -2.6662   -0.2498    1.1663 C   0  0  0  0  0  0  0  0  0  0  0  0
   -2.1421   -0.4657    2.2480 O   0  0  0  0  0  0  0  0  0  0  0  0
   -2.5114    0.9996    0.5891 N   0  0  0  0  0  0  0  0  0  0  0  0
   -3.0656    1.0885   -0.2576 H   0  0  0  0  0  0  0  0  0  0  0  0
   -1.1960    1.6792    0.5223 C   0  0  1  0  0  0  0  0  0  0  0  0
   -1.0503    2.0788   -0.4862 H   0  0  0  0  0  0  0  0  0  0  0  0
   -1.2569    2.8518    1.5273 C   0  0  0  0  0  0  0  0  0  0  0  0
   -1.5247    2.4646    2.5174 H   0  0  0  0  0  0  0  0  0  0  0  0
   -0.2701    3.3196    1.6048 H   0  0  0  0  0  0  0  0  0  0  0  0
   -2.2543    3.9383    1.1003 C   0  0  0  0  0  0  0  0  0  0  0  0
   -1.9712    4.3349    0.1193 H   0  0  0  0  0  0  0  0  0  0  0  0
   -3.2588    3.5094    1.0198 H   0  0  0  0  0  0  0  0  0  0  0  0
   -2.2589    5.0590    2.1387 C   0  0  0  0  0  0  0  0  0  0  0  0
   -2.5233    4.6364    3.1146 H   0  0  0  0  0  0  0  0  0  0  0  0
   -1.2531    5.4884    2.2070 H   0  0  0  0  0  0  0  0  0  0  0  0
   -3.2288    6.1033    1.7602 N   0  3  0  0  0  0  0  0  0  0  0  0
   -3.7312    5.9760    0.8828 H   0  0  0  0  0  0  0  0  0  0  0  0
   -3.4821    7.1494    2.4935 C   0  0  0  0  0  0  0  0  0  0  0  0
   -2.8514    7.3621    3.6982 N   0  0  0  0  0  0  0  0  0  0  0  0
   -2.3099    6.5961    4.0933 H   0  0  0  0  0  0  0  0  0  0  0  0
   -3.2401    8.0525    4.3377 H   0  0  0  0  0  0  0  0  0  0  0  0
   -4.4025    8.0751    2.0633 N   0  0  0  0  0  0  0  0  0  0  0  0
   -4.7421    8.0219    1.1050 H   0  0  0  0  0  0  0  0  0  0  0  0
   -4.4413    8.9776    2.5341 H   0  0  0  0  0  0  0  0  0  0  0  0
    0.0343    0.7615    0.7893 C   0  0  0  0  0  0  0  0  0  0  0  0
    0.1799   -0.2066    0.0536 O   0  0  0  0  0  0  0  0  0  0  0  0
    1.0861    1.1221    1.6156 N   0  0  0  0  0  0  0  0  0  0  0  0
    0.8963    1.8415    2.3047 H   0  0  0  0  0  0  0  0  0  0  0  0
    2.2401    0.2542    1.8312 C   0  0  0  0  0  0  0  0  0  0  0  0
    2.7647    0.0683    0.8876 H   0  0  0  0  0  0  0  0  0  0  0  0
    2.9430    0.7221    2.5273 H   0  0  0  0  0  0  0  0  0  0  0  0
    1.9231   -0.7068    2.2511 H   0  0  0  0  0  0  0  0  0  0  0  0
  1  2  1  0  0  0  0
  2  3  1  0  0  0  0
  2  4  1  0  0  0  0
  2  5  1  0  0  0  0
  5  6  2  0  0  0  0
  5  7  1  0  0  0  0
  7  8  1  0  0  0  0
  7  9  1  0  0  0  0
  9 10  1  0  0  0  0
  9 11  1  0  0  0  0
  9 29  1  0  0  0  0
 11 12  1  0  0  0  0
 11 13  1  0  0  0  0
 11 14  1  0  0  0  0
 14 15  1  0  0  0  0
 14 16  1  0  0  0  0
 14 17  1  0  0  0  0
 17 18  1  0  0  0  0
 17 19  1  0  0  0  0
 17 20  1  0  0  0  0
 20 21  1  0  0  0  0
 20 22  2  0  0  0  0
 22 23  1  0  0  0  0
 22 26  1  0  0  0  0
 23 24  1  0  0  0  0
 23 25  1  0  0  0  0
 26 27  1  0  0  0  0
 26 28  1  0  0  0  0
 29 30  2  0  0  0  0
 29 31  1  0  0  0  0
 31 32  1  0  0  0  0
 31 33  1  0  0  0  0
 33 34  1  0  0  0  0
 33 35  1  0  0  0  0
 33 36  1  0  0  0  0
M  CHG  1  20   1
M  END
$$$$

  -OEChem-02172215453D

 36 35  0     1  0  0  0  0  0999 V2000
   -3.6131   -2.1914    1.1307 H   0  0  0  0  0  0  0  0  0  0  0  0
   -3.6564   -1.2486    0.5774 C   0  0  0  0  0  0  0  0  0  0  0  0
   -4.6680   -0.8428    0.6486 H   0  0  0  0  0  0  0  0  0  0  0  0
   -3.4210   -1.4489   -0.4709 H   0  0  0  0  0  0  0  0  0  0  0  0
   -2.6565   -0.2651    1.1531 C   0  0  0  0  0  0  0  0  0  0  0  0
   -2.1012   -0.5081    2.2129 O   0  0  0  0  0  0  0  0  0  0  0  0
   -2.5087    0.9912    0.5897 N   0  0  0  0  0  0  0  0  0  0  0  0
   -3.0744    1.0967   -0.2475 H   0  0  0  0  0  0  0  0  0  0  0  0
   -1.2000    1.6824    0.5291 C   0  0  1  0  0  0  0  0  0  0  0  0
   -1.0596    2.0851   -0.4791 H   0  0  0  0  0  0  0  0  0  0  0  0
   -1.2568    2.8556    1.5319 C   0  0  0  0  0  0  0  0  0  0  0  0
   -1.5239    2.4708    2.5231 H   0  0  0  0  0  0  0  0  0  0  0  0
   -0.2658    3.3171    1.6048 H   0  0  0  0  0  0  0  0  0  0  0  0
   -2.2557    3.9411    1.1067 C   0  0  0  0  0  0  0  0  0  0  0  0
   -1.9767    4.3354    0.1234 H   0  0  0  0  0  0  0  0  0  0  0  0
   -3.2599    3.5108    1.0311 H   0  0  0  0  0  0  0  0  0  0  0  0
   -2.2587    5.0658    2.1417 C   0  0  0  0  0  0  0  0  0  0  0  0
   -2.5205    4.6469    3.1199 H   0  0  0  0  0  0  0  0  0  0  0  0
   -1.2530    5.4963    2.2059 H   0  0  0  0  0  0  0  0  0  0  0  0
   -3.2313    6.1074    1.7611 N   0  3  0  0  0  0  0  0  0  0  0  0
   -3.7321    5.9777    0.8830 H   0  0  0  0  0  0  0  0  0  0  0  0
   -3.4855    7.1567    2.4898 C   0  0  0  0  0  0  0  0  0  0  0  0
   -2.8530    7.3758    3.6925 N   0  0  0  0  0  0  0  0  0  0  0  0
   -2.2996    6.6175    4.0860 H   0  0  0  0  0  0  0  0  0  0  0  0
   -3.2413    8.0670    4.3310 H   0  0  0  0  0  0  0  0  0  0  0  0
   -4.4076    8.0791    2.0557 N   0  0  0  0  0  0  0  0  0  0  0  0
   -4.7439    8.0233    1.0962 H   0  0  0  0  0  0  0  0  0  0  0  0
   -4.4454    8.9839    2.5220 H   0  0  0  0  0  0  0  0  0  0  0  0
    0.0357    0.7730    0.7870 C   0  0  0  0  0  0  0  0  0  0  0  0
    0.2964   -0.0652   -0.0659 O   0  0  0  0  0  0  0  0  0  0  0  0
    0.9302    0.9787    1.8244 N   0  0  0  0  0  0  0  0  0  0  0  0
    0.5831    1.5209    2.6088 H   0  0  0  0  0  0  0  0  0  0  0  0
    2.0487    0.0732    2.0686 C   0  0  0  0  0  0  0  0  0  0  0  0
    2.7100    0.0334    1.1965 H   0  0  0  0  0  0  0  0  0  0  0  0
    2.6349    0.4153    2.9269 H   0  0  0  0  0  0  0  0  0  0  0  0
    1.6834   -0.9382    2.2779 H   0  0  0  0  0  0  0  0  0  0  0  0
  1  2  1  0  0  0  0
  2  3  1  0  0  0  0
  2  4  1  0  0  0  0
  2  5  1  0  0  0  0
  5  6  2  0  0  0  0
  5  7  1  0  0  0  0
  7  8  1  0  0  0  0
  7  9  1  0  0  0  0
  9 10  1  0  0  0  0
  9 11  1  0  0  0  0
  9 29  1  0  0  0  0
 11 12  1  0  0  0  0
 11 13  1  0  0  0  0
 11 14  1  0  0  0  0
 14 15  1  0  0  0  0
 14 16  1  0  0  0  0
 14 17  1  0  0  0  0
 17 18  1  0  0  0  0
 17 19  1  0  0  0  0
 17 20  1  0  0  0  0
 20 21  1  0  0  0  0
 20 22  2  0  0  0  0
 22 23  1  0  0  0  0
 22 26  1  0  0  0  0
 23 24  1  0  0  0  0
 23 25  1  0  0  0  0
 26 27  1  0  0  0  0
 26 28  1  0  0  0  0
 29 30  2  0  0  0  0
 29 31  1  0  0  0  0
 31 32  1  0  0  0  0
 31 33  1  0  0  0  0
 33 34  1  0  0  0  0
 33 35  1  0  0  0  0
 33 36  1  0  0  0  0
M  CHG  1  20   1
M  END
$$$$

  -OEChem-02172215453D

 36 35  0     1  0  0  0  0  0999 V2000
   -3.6584   -2.1881    1.1007 H   0  0  0  0  0  0  0  0  0  0  0  0
   -3.7139   -1.2266    0.5822 C   0  0  0  0  0  0  0  0  0  0  0  0
   -4.7117   -0.8061    0.7252 H   0  0  0  0  0  0  0  0  0  0  0  0
   -3.5432   -1.3956   -0.4838 H   0  0  0  0  0  0  0  0  0  0  0  0
   -2.6646   -0.2803    1.1323 C   0  0  0  0  0  0  0  0  0  0  0  0
   -2.0813   -0.5562    2.1684 O   0  0  0  0  0  0  0  0  0  0  0  0
   -2.5028    0.9783    0.5781 N   0  0  0  0  0  0  0  0  0  0  0  0
   -3.0804    1.1105   -0.2474 H   0  0  0  0  0  0  0  0  0  0  0  0
   -1.1963    1.6742    0.5315 C   0  0  1  0  0  0  0  0  0  0  0  0
   -1.0533    2.0809   -0.4752 H   0  0  0  0  0  0  0  0  0  0  0  0
   -1.2561    2.8458    1.5343 C   0  0  0  0  0  0  0  0  0  0  0  0
   -1.5321    2.4623    2.5233 H   0  0  0  0  0  0  0  0  0  0  0  0
   -0.2619    3.2996    1.6160 H   0  0  0  0  0  0  0  0  0  0  0  0
   -2.2503    3.9329    1.1044 C   0  0  0  0  0  0  0  0  0  0  0  0
   -1.9628    4.3289    0.1244 H   0  0  0  0  0  0  0  0  0  0  0  0
   -3.2554    3.5053    1.0214 H   0  0  0  0  0  0  0  0  0  0  0  0
   -2.2552    5.0548    2.1411 C   0  0  0  0  0  0  0  0  0  0  0  0
   -2.5224    4.6345    3.1169 H   0  0  0  0  0  0  0  0  0  0  0  0
   -1.2489    5.4830    2.2112 H   0  0  0  0  0  0  0  0  0  0  0  0
   -3.2234    6.0982    1.7559 N   0  3  0  0  0  0  0  0  0  0  0  0
   -3.7173    5.9719    0.8735 H   0  0  0  0  0  0  0  0  0  0  0  0
   -3.4796    7.1469    2.4841 C   0  0  0  0  0  0  0  0  0  0  0  0
   -2.8525    7.3619    3.6906 N   0  0  0  0  0  0  0  0  0  0  0  0
   -2.3051    6.5998    4.0856 H   0  0  0  0  0  0  0  0  0  0  0  0
   -3.2434    8.0517    4.3293 H   0  0  0  0  0  0  0  0  0  0  0  0
   -4.3965    8.0722    2.0442 N   0  0  0  0  0  0  0  0  0  0  0  0
   -4.7227    8.0201    1.0810 H   0  0  0  0  0  0  0  0  0  0  0  0
   -4.4370    8.9759    2.5126 H   0  0  0  0  0  0  0  0  0  0  0  0
    0.0476    0.7813    0.7953 C   0  0  0  0  0  0  0  0  0  0  0  0
    0.4675    0.1160   -0.1414 O   0  0  0  0  0  0  0  0  0  0  0  0
    0.7518    0.8029    1.9872 N   0  0  0  0  0  0  0  0  0  0  0  0
    0.2251    1.1292    2.7921 H   0  0  0  0  0  0  0  0  0  0  0  0
    1.8586   -0.1149    2.2382 C   0  0  0  0  0  0  0  0  0  0  0  0
    2.6522    0.0263    1.4966 H   0  0  0  0  0  0  0  0  0  0  0  0
    2.2821    0.0636    3.2312 H   0  0  0  0  0  0  0  0  0  0  0  0
    1.5133   -1.1533    2.1886 H   0  0  0  0  0  0  0  0  0  0  0  0
  1  2  1  0  0  0  0
  2  3  1  0  0  0  0
  2  4  1  0  0  0  0
  2  5  1  0  0  0  0
  5  6  2  0  0  0  0
  5  7  1  0  0  0  0
  7  8  1  0  0  0  0
  7  9  1  0  0  0  0
  9 10  1  0  0  0  0
  9 11  1  0  0  0  0
  9 29  1  0  0  0  0
 11 12  1  0  0  0  0
 11 13  1  0  0  0  0
 11 14  1  0  0  0  0
 14 15  1  0  0  0  0
 14 16  1  0  0  0  0
 14 17  1  0  0  0  0
 17 18  1  0  0  0  0
 17 19  1  0  0  0  0
 17 20  1  0  0  0  0
 20 21  1  0  0  0  0
 20 22  2  0  0  0  0
 22 23  1  0  0  0  0
 22 26  1  0  0  0  0
 23 24  1  0  0  0  0
 23 25  1  0  0  0  0
 26 27  1  0  0  0  0
 26 28  1  0  0  0  0
 29 30  2  0  0  0  0
 29 31  1  0  0  0  0
 31 32  1  0  0  0  0
 31 33  1  0  0  0  0
 33 34  1  0  0  0  0
 33 35  1  0  0  0  0
 33 36  1  0  0  0  0
M  CHG  1  20   1
M  END
$$$$

  -OEChem-02172215453D

 36 35  0     1  0  0  0  0  0999 V2000
   -3.7678   -2.1782    1.0325 H   0  0  0  0  0  0  0  0  0  0  0  0
   -3.7927   -1.2096    0.5246 C   0  0  0  0  0  0  0  0  0  0  0  0
   -4.7776   -0.7603    0.6712 H   0  0  0  0  0  0  0  0  0  0  0  0
   -3.6262   -1.3723   -0.5431 H   0  0  0  0  0  0  0  0  0  0  0  0
   -2.7157   -0.3020    1.0867 C   0  0  0  0  0  0  0  0  0  0  0  0
   -2.1422   -0.6121    2.1181 O   0  0  0  0  0  0  0  0  0  0  0  0
   -2.5129    0.9551    0.5434 N   0  0  0  0  0  0  0  0  0  0  0  0
   -3.0813    1.1150   -0.2836 H   0  0  0  0  0  0  0  0  0  0  0  0
   -1.2027    1.6464    0.5356 C   0  0  1  0  0  0  0  0  0  0  0  0
   -1.0397    2.0563   -0.4670 H   0  0  0  0  0  0  0  0  0  0  0  0
   -1.2733    2.8157    1.5389 C   0  0  0  0  0  0  0  0  0  0  0  0
   -1.5757    2.4319    2.5198 H   0  0  0  0  0  0  0  0  0  0  0  0
   -0.2746    3.2545    1.6460 H   0  0  0  0  0  0  0  0  0  0  0  0
   -2.2455    3.9165    1.0947 C   0  0  0  0  0  0  0  0  0  0  0  0
   -1.9342    4.3140    0.1224 H   0  0  0  0  0  0  0  0  0  0  0  0
   -3.2536    3.5017    0.9896 H   0  0  0  0  0  0  0  0  0  0  0  0
   -2.2549    5.0314    2.1394 C   0  0  0  0  0  0  0  0  0  0  0  0
   -2.5444    4.6089    3.1084 H   0  0  0  0  0  0  0  0  0  0  0  0
   -1.2433    5.4430    2.2288 H   0  0  0  0  0  0  0  0  0  0  0  0
   -3.2000    6.0941    1.7495 N   0  3  0  0  0  0  0  0  0  0  0  0
   -3.6568    6.0013    0.8434 H   0  0  0  0  0  0  0  0  0  0  0  0
   -3.4505    7.1387    2.4860 C   0  0  0  0  0  0  0  0  0  0  0  0
   -2.8390    7.3297    3.7045 N   0  0  0  0  0  0  0  0  0  0  0  0
   -2.0646    6.7170    3.9518 H   0  0  0  0  0  0  0  0  0  0  0  0
   -2.8785    8.2515    4.1349 H   0  0  0  0  0  0  0  0  0  0  0  0
   -4.3439    8.0854    2.0436 N   0  0  0  0  0  0  0  0  0  0  0  0
   -4.9295    7.8707    1.2389 H   0  0  0  0  0  0  0  0  0  0  0  0
   -4.6793    8.7837    2.7048 H   0  0  0  0  0  0  0  0  0  0  0  0
    0.0478    0.7739    0.8331 C   0  0  0  0  0  0  0  0  0  0  0  0
    0.6860    0.3579   -0.1236 O   0  0  0  0  0  0  0  0  0  0  0  0
    0.5324    0.5804    2.1150 N   0  0  0  0  0  0  0  0  0  0  0  0
   -0.1835    0.6312    2.8373 H   0  0  0  0  0  0  0  0  0  0  0  0
    1.6710   -0.2946    2.3756 C   0  0  0  0  0  0  0  0  0  0  0  0
    2.5607    0.0622    1.8457 H   0  0  0  0  0  0  0  0  0  0  0  0
    1.8952   -0.3159    3.4464 H   0  0  0  0  0  0  0  0  0  0  0  0
    1.4524   -1.3162    2.0461 H   0  0  0  0  0  0  0  0  0  0  0  0
  1  2  1  0  0  0  0
  2  3  1  0  0  0  0
  2  4  1  0  0  0  0
  2  5  1  0  0  0  0
  5  6  2  0  0  0  0
  5  7  1  0  0  0  0
  7  8  1  0  0  0  0
  7  9  1  0  0  0  0
  9 10  1  0  0  0  0
  9 11  1  0  0  0  0
  9 29  1  0  0  0  0
 11 12  1  0  0  0  0
 11 13  1  0  0  0  0
 11 14  1  0  0  0  0
 14 15  1  0  0  0  0
 14 16  1  0  0  0  0
 14 17  1  0  0  0  0
 17 18  1  0  0  0  0
 17 19  1  0  0  0  0
 17 20  1  0  0  0  0
 20 21  1  0  0  0  0
 20 22  2  0  0  0  0
 22 23  1  0  0  0  0
 22 26  1  0  0  0  0
 23 24  1  0  0  0  0
 23 25  1  0  0  0  0
 26 27  1  0  0  0  0
 26 28  1  0  0  0  0
 29 30  2  0  0  0  0
 29 31  1  0  0  0  0
 31 32  1  0  0  0  0
 31 33  1  0  0  0  0
 33 34  1  0  0  0  0
 33 35  1  0  0  0  0
 33 36  1  0  0  0  0
M  CHG  1  20   1
M  END
$$$$

  -OEChem-02172215453D

 36 35  0     1  0  0  0  0  0999 V2000
   -3.9263   -2.1508    0.9926 H   0  0  0  0  0  0  0  0  0  0  0  0
   -3.9092   -1.1757    0.4972 C   0  0  0  0  0  0  0  0  0  0  0  0
   -4.8729   -0.6851    0.6535 H   0  0  0  0  0  0  0  0  0  0  0  0
   -3.7540   -1.3320   -0.5732 H   0  0  0  0  0  0  0  0  0  0  0  0
   -2.7915   -0.3235    1.0663 C   0  0  0  0  0  0  0  0  0  0  0  0
   -2.2295   -0.6747    2.0896 O   0  0  0  0  0  0  0  0  0  0  0  0
   -2.5372    0.9255    0.5278 N   0  0  0  0  0  0  0  0  0  0  0  0
   -3.1103    1.1185   -0.2889 H   0  0  0  0  0  0  0  0  0  0  0  0
   -1.2210    1.6075    0.5312 C   0  0  1  0  0  0  0  0  0  0  0  0
   -1.0565    2.0168   -0.4715 H   0  0  0  0  0  0  0  0  0  0  0  0
   -1.2891    2.7758    1.5349 C   0  0  0  0  0  0  0  0  0  0  0  0
   -1.5987    2.3925    2.5141 H   0  0  0  0  0  0  0  0  0  0  0  0
   -0.2872    3.2054    1.6495 H   0  0  0  0  0  0  0  0  0  0  0  0
   -2.2475    3.8870    1.0889 C   0  0  0  0  0  0  0  0  0  0  0  0
   -1.9262    4.2849    0.1202 H   0  0  0  0  0  0  0  0  0  0  0  0
   -3.2590    3.4831    0.9766 H   0  0  0  0  0  0  0  0  0  0  0  0
   -2.2495    4.9967    2.1392 C   0  0  0  0  0  0  0  0  0  0  0  0
   -2.5489    4.5729    3.1045 H   0  0  0  0  0  0  0  0  0  0  0  0
   -1.2339    5.3963    2.2362 H   0  0  0  0  0  0  0  0  0  0  0  0
   -3.1811    6.0710    1.7493 N   0  3  0  0  0  0  0  0  0  0  0  0
   -3.6351    5.9869    0.8409 H   0  0  0  0  0  0  0  0  0  0  0  0
   -3.4236    7.1146    2.4895 C   0  0  0  0  0  0  0  0  0  0  0  0
   -2.8160    7.2937    3.7117 N   0  0  0  0  0  0  0  0  0  0  0  0
   -2.0511    6.6697    3.9610 H   0  0  0  0  0  0  0  0  0  0  0  0
   -2.8423    8.2159    4.1423 H   0  0  0  0  0  0  0  0  0  0  0  0
   -4.3042    8.0723    2.0459 N   0  0  0  0  0  0  0  0  0  0  0  0
   -4.8831    7.8695    1.2332 H   0  0  0  0  0  0  0  0  0  0  0  0
   -4.6376    8.7711    2.7077 H   0  0  0  0  0  0  0  0  0  0  0  0
    0.0476    0.7680    0.8453 C   0  0  0  0  0  0  0  0  0  0  0  0
    0.8641    0.6209   -0.0530 O   0  0  0  0  0  0  0  0  0  0  0  0
    0.3633    0.3452    2.1235 N   0  0  0  0  0  0  0  0  0  0  0  0
   -0.4552    0.1851    2.7134 H   0  0  0  0  0  0  0  0  0  0  0  0
    1.5474   -0.4612    2.3984 C   0  0  0  0  0  0  0  0  0  0  0  0
    2.4553    0.0739    2.1002 H   0  0  0  0  0  0  0  0  0  0  0  0
    1.6147   -0.6815    3.4681 H   0  0  0  0  0  0  0  0  0  0  0  0
    1.5027   -1.4083    1.8504 H   0  0  0  0  0  0  0  0  0  0  0  0
  1  2  1  0  0  0  0
  2  3  1  0  0  0  0
  2  4  1  0  0  0  0
  2  5  1  0  0  0  0
  5  6  2  0  0  0  0
  5  7  1  0  0  0  0
  7  8  1  0  0  0  0
  7  9  1  0  0  0  0
  9 10  1  0  0  0  0
  9 11  1  0  0  0  0
  9 29  1  0  0  0  0
 11 12  1  0  0  0  0
 11 13  1  0  0  0  0
 11 14  1  0  0  0  0
 14 15  1  0  0  0  0
 14 16  1  0  0  0  0
 14 17  1  0  0  0  0
 17 18  1  0  0  0  0
 17 19  1  0  0  0  0
 17 20  1  0  0  0  0
 20 21  1  0  0  0  0
 20 22  2  0  0  0  0
 22 23  1  0  0  0  0
 22 26  1  0  0  0  0
 23 24  1  0  0  0  0
 23 25  1  0  0  0  0
 26 27  1  0  0  0  0
 26 28  1  0  0  0  0
 29 30  2  0  0  0  0
 29 31  1  0  0  0  0
 31 32  1  0  0  0  0
 31 33  1  0  0  0  0
 33 34  1  0  0  0  0
 33 35  1  0  0  0  0
 33 36  1  0  0  0  0
M  CHG  1  20   1
M  END
$$$$

  -OEChem-02172215453D

 36 35  0     1  0  0  0  0  0999 V2000
   -4.0887   -2.1120    0.9656 H   0  0  0  0  0  0  0  0  0  0  0  0
   -4.0170   -1.1421    0.4642 C   0  0  0  0  0  0  0  0  0  0  0  0
   -4.9608   -0.6080    0.5958 H   0  0  0  0  0  0  0  0  0  0  0  0
   -3.8461   -1.3133   -0.6014 H   0  0  0  0  0  0  0  0  0  0  0  0
   -2.8745   -0.3357    1.0522 C   0  0  0  0  0  0  0  0  0  0  0  0
   -2.3456   -0.7153    2.0817 O   0  0  0  0  0  0  0  0  0  0  0  0
   -2.5647    0.9009    0.5141 N   0  0  0  0  0  0  0  0  0  0  0  0
   -3.1374    1.1195   -0.2963 H   0  0  0  0  0  0  0  0  0  0  0  0
   -1.2404    1.5723    0.5229 C   0  0  1  0  0  0  0  0  0  0  0  0
   -1.0761    1.9780   -0.4814 H   0  0  0  0  0  0  0  0  0  0  0  0
   -1.3097    2.7419    1.5245 C   0  0  0  0  0  0  0  0  0  0  0  0
   -1.6250    2.3592    2.5020 H   0  0  0  0  0  0  0  0  0  0  0  0
   -0.3063    3.1673    1.6455 H   0  0  0  0  0  0  0  0  0  0  0  0
   -2.2568    3.8614    1.0750 C   0  0  0  0  0  0  0  0  0  0  0  0
   -1.9275    4.2599    0.1089 H   0  0  0  0  0  0  0  0  0  0  0  0
   -3.2711    3.4662    0.9576 H   0  0  0  0  0  0  0  0  0  0  0  0
   -2.2523    4.9658    2.1309 C   0  0  0  0  0  0  0  0  0  0  0  0
   -2.5594    4.5387    3.0924 H   0  0  0  0  0  0  0  0  0  0  0  0
   -1.2331    5.3546    2.2348 H   0  0  0  0  0  0  0  0  0  0  0  0
   -3.1704    6.0533    1.7468 N   0  3  0  0  0  0  0  0  0  0  0  0
   -3.6179    5.9853    0.8339 H   0  0  0  0  0  0  0  0  0  0  0  0
   -3.4015    7.0931    2.4959 C   0  0  0  0  0  0  0  0  0  0  0  0
   -2.7938    7.2533    3.7207 N   0  0  0  0  0  0  0  0  0  0  0  0
   -2.0373    6.6175    3.9661 H   0  0  0  0  0  0  0  0  0  0  0  0
   -2.8143    8.1695    4.1644 H   0  0  0  0  0  0  0  0  0  0  0  0
   -4.2691    8.0657    2.0591 N   0  0  0  0  0  0  0  0  0  0  0  0
   -4.8485    7.8777    1.2434 H   0  0  0  0  0  0  0  0  0  0  0  0
   -4.5938    8.7645    2.7255 H   0  0  0  0  0  0  0  0  0  0  0  0
    0.0497    0.7706    0.8538 C   0  0  0  0  0  0  0  0  0  0  0  0
    0.9777    0.8551    0.0614 O   0  0  0  0  0  0  0  0  0  0  0  0
    0.2563    0.1127    2.0511 N   0  0  0  0  0  0  0  0  0  0  0  0
   -0.5989   -0.1417    2.5511 H   0  0  0  0  0  0  0  0  0  0  0  0
    1.4586   -0.6663    2.3259 C   0  0  0  0  0  0  0  0  0  0  0  0
    2.3500   -0.0333    2.2629 H   0  0  0  0  0  0  0  0  0  0  0  0
    1.4105   -1.0925    3.3327 H   0  0  0  0  0  0  0  0  0  0  0  0
    1.5576   -1.4856    1.6061 H   0  0  0  0  0  0  0  0  0  0  0  0
  1  2  1  0  0  0  0
  2  3  1  0  0  0  0
  2  4  1  0  0  0  0
  2  5  1  0  0  0  0
  5  6  2  0  0  0  0
  5  7  1  0  0  0  0
  7  8  1  0  0  0  0
  7  9  1  0  0  0  0
  9 10  1  0  0  0  0
  9 11  1  0  0  0  0
  9 29  1  0  0  0  0
 11 12  1  0  0  0  0
 11 13  1  0  0  0  0
 11 14  1  0  0  0  0
 14 15  1  0  0  0  0
 14 16  1  0  0  0  0
 14 17  1  0  0  0  0
 17 18  1  0  0  0  0
 17 19  1  0  0  0  0
 17 20  1  0  0  0  0
 20 21  1  0  0  0  0
 20 22  2  0  0  0  0
 22 23  1  0  0  0  0
 22 26  1  0  0  0  0
 23 24  1  0  0  0  0
 23 25  1  0  0  0  0
 26 27  1  0  0  0  0
 26 28  1  0  0  0  0
 29 30  2  0  0  0  0
 29 31  1  0  0  0  0
 31 32  1  0  0  0  0
 31 33  1  0  0  0  0
 33 34  1  0  0  0  0
 33 35  1  0  0  0  0
 33 36  1  0  0  0  0
M  CHG  1  20   1
M  END
$$$$

  -OEChem-02172215453D

 36 35  0     1  0  0  0  0  0999 V2000
   -4.2385   -2.0600    0.9289 H   0  0  0  0  0  0  0  0  0  0  0  0
   -4.1308   -1.0853    0.4438 C   0  0  0  0  0  0  0  0  0  0  0  0
   -5.0506   -0.5155    0.5928 H   0  0  0  0  0  0  0  0  0  0  0  0
   -3.9760   -1.2444   -0.6261 H   0  0  0  0  0  0  0  0  0  0  0  0
   -2.9522   -0.3360    1.0358 C   0  0  0  0  0  0  0  0  0  0  0  0
   -2.4479   -0.7460    2.0649 O   0  0  0  0  0  0  0  0  0  0  0  0
   -2.5916    0.8886    0.5028 N   0  0  0  0  0  0  0  0  0  0  0  0
   -3.1644    1.1353   -0.2996 H   0  0  0  0  0  0  0  0  0  0  0  0
   -1.2559    1.5408    0.5144 C   0  0  1  0  0  0  0  0  0  0  0  0
   -1.0898    1.9454   -0.4901 H   0  0  0  0  0  0  0  0  0  0  0  0
   -1.3245    2.7079    1.5196 C   0  0  0  0  0  0  0  0  0  0  0  0
   -1.6482    2.3221    2.4932 H   0  0  0  0  0  0  0  0  0  0  0  0
   -0.3200    3.1276    1.6499 H   0  0  0  0  0  0  0  0  0  0  0  0
   -2.2588    3.8374    1.0691 C   0  0  0  0  0  0  0  0  0  0  0  0
   -1.9185    4.2383    0.1079 H   0  0  0  0  0  0  0  0  0  0  0  0
   -3.2761    3.4527    0.9426 H   0  0  0  0  0  0  0  0  0  0  0  0
   -2.2518    4.9357    2.1312 C   0  0  0  0  0  0  0  0  0  0  0  0
   -2.5691    4.5067    3.0886 H   0  0  0  0  0  0  0  0  0  0  0  0
   -1.2299    5.3150    2.2436 H   0  0  0  0  0  0  0  0  0  0  0  0
   -3.1584    6.0323    1.7452 N   0  3  0  0  0  0  0  0  0  0  0  0
   -3.5972    5.9729    0.8275 H   0  0  0  0  0  0  0  0  0  0  0  0
   -3.3877    7.0711    2.4962 C   0  0  0  0  0  0  0  0  0  0  0  0
   -2.7893    7.2236    3.7266 N   0  0  0  0  0  0  0  0  0  0  0  0
   -2.0386    6.5819    3.9747 H   0  0  0  0  0  0  0  0  0  0  0  0
   -2.7974    8.1427    4.1643 H   0  0  0  0  0  0  0  0  0  0  0  0
   -4.2449    8.0513    2.0558 N   0  0  0  0  0  0  0  0  0  0  0  0
   -4.8207    7.8684    1.2363 H   0  0  0  0  0  0  0  0  0  0  0  0
   -4.5727    8.7465    2.7244 H   0  0  0  0  0  0  0  0  0  0  0  0
    0.0473    0.7588    0.8502 C   0  0  0  0  0  0  0  0  0  0  0  0
    1.0398    1.0427    0.1933 O   0  0  0  0  0  0  0  0  0  0  0  0
    0.1934   -0.1302    1.8965 N   0  0  0  0  0  0  0  0  0  0  0  0
   -0.6705   -0.4432    2.3454 H   0  0  0  0  0  0  0  0  0  0  0  0
    1.4205   -0.8734    2.1593 C   0  0  0  0  0  0  0  0  0  0  0  0
    2.2537   -0.1873    2.3440 H   0  0  0  0  0  0  0  0  0  0  0  0
    1.2956   -1.5077    3.0425 H   0  0  0  0  0  0  0  0  0  0  0  0
    1.6724   -1.5119    1.3059 H   0  0  0  0  0  0  0  0  0  0  0  0
  1  2  1  0  0  0  0
  2  3  1  0  0  0  0
  2  4  1  0  0  0  0
  2  5  1  0  0  0  0
  5  6  2  0  0  0  0
  5  7  1  0  0  0  0
  7  8  1  0  0  0  0
  7  9  1  0  0  0  0
  9 10  1  0  0  0  0
  9 11  1  0  0  0  0
  9 29  1  0  0  0  0
 11 12  1  0  0  0  0
 11 13  1  0  0  0  0
 11 14  1  0  0  0  0
 14 15  1  0  0  0  0
 14 16  1  0  0  0  0
 14 17  1  0  0  0  0
 17 18  1  0  0  0  0
 17 19  1  0  0  0  0
 17 20  1  0  0  0  0
 20 21  1  0  0  0  0
 20 22  2  0  0  0  0
 22 23  1  0  0  0  0
 22 26  1  0  0  0  0
 23 24  1  0  0  0  0
 23 25  1  0  0  0  0
 26 27  1  0  0  0  0
 26 28  1  0  0  0  0
 29 30  2  0  0  0  0
 29 31  1  0  0  0  0
 31 32  1  0  0  0  0
 31 33  1  0  0  0  0
 33 34  1  0  0  0  0
 33 35  1  0  0  0  0
 33 36  1  0  0  0  0
M  CHG  1  20   1
M  END
$$$$

  -OEChem-02172215453D

 36 35  0     1  0  0  0  0  0999 V2000
   -4.2924   -2.0688    1.0437 H   0  0  0  0  0  0  0  0  0  0  0  0
   -4.2045   -1.0945    0.5538 C   0  0  0  0  0  0  0  0  0  0  0  0
   -5.1202   -0.5264    0.7344 H   0  0  0  0  0  0  0  0  0  0  0  0
   -4.0872   -1.2553   -0.5206 H   0  0  0  0  0  0  0  0  0  0  0  0
   -3.0073   -0.3422    1.1020 C   0  0  0  0  0  0  0  0  0  0  0  0
   -2.4849   -0.7305    2.1307 O   0  0  0  0  0  0  0  0  0  0  0  0
   -2.6503    0.8682    0.5361 N   0  0  0  0  0  0  0  0  0  0  0  0
   -3.2481    1.1063   -0.2504 H   0  0  0  0  0  0  0  0  0  0  0  0
   -1.3088    1.5083    0.4842 C   0  0  1  0  0  0  0  0  0  0  0  0
   -1.1797    1.8973   -0.5315 H   0  0  0  0  0  0  0  0  0  0  0  0
   -1.3443    2.6889    1.4771 C   0  0  0  0  0  0  0  0  0  0  0  0
   -1.6360    2.3141    2.4647 H   0  0  0  0  0  0  0  0  0  0  0  0
   -0.3371    3.1115    1.5723 H   0  0  0  0  0  0  0  0  0  0  0  0
   -2.2918    3.8154    1.0456 C   0  0  0  0  0  0  0  0  0  0  0  0
   -1.9836    4.2059    0.0696 H   0  0  0  0  0  0  0  0  0  0  0  0
   -3.3137    3.4326    0.9573 H   0  0  0  0  0  0  0  0  0  0  0  0
   -2.2461    4.9242    2.0955 C   0  0  0  0  0  0  0  0  0  0  0  0
   -2.5321    4.5049    3.0667 H   0  0  0  0  0  0  0  0  0  0  0  0
   -1.2193    5.3002    2.1692 H   0  0  0  0  0  0  0  0  0  0  0  0
   -3.1619    6.0216    1.7334 N   0  3  0  0  0  0  0  0  0  0  0  0
   -3.6357    5.9564    0.8338 H   0  0  0  0  0  0  0  0  0  0  0  0
   -3.3594    7.0666    2.4846 C   0  0  0  0  0  0  0  0  0  0  0  0
   -2.7153    7.2234    3.6911 N   0  0  0  0  0  0  0  0  0  0  0  0
   -1.9561    6.5821    3.9132 H   0  0  0  0  0  0  0  0  0  0  0  0
   -2.7101    8.1424    4.1291 H   0  0  0  0  0  0  0  0  0  0  0  0
   -4.2291    8.0475    2.0703 N   0  0  0  0  0  0  0  0  0  0  0  0
   -4.8361    7.8626    1.2741 H   0  0  0  0  0  0  0  0  0  0  0  0
   -4.5263    8.7508    2.7444 H   0  0  0  0  0  0  0  0  0  0  0  0
    0.0143    0.7392    0.7787 C   0  0  0  0  0  0  0  0  0  0  0  0
    1.0213    1.1685    0.2312 O   0  0  0  0  0  0  0  0  0  0  0  0
    0.1587   -0.3363    1.6317 N   0  0  0  0  0  0  0  0  0  0  0  0
   -0.6853   -0.6749    2.0979 H   0  0  0  0  0  0  0  0  0  0  0  0
    1.4211   -1.0241    1.8781 C   0  0  0  0  0  0  0  0  0  0  0  0
    2.1577   -0.3347    2.3039 H   0  0  0  0  0  0  0  0  0  0  0  0
    1.2702   -1.8472    2.5833 H   0  0  0  0  0  0  0  0  0  0  0  0
    1.8215   -1.4371    0.9462 H   0  0  0  0  0  0  0  0  0  0  0  0
  1  2  1  0  0  0  0
  2  3  1  0  0  0  0
  2  4  1  0  0  0  0
  2  5  1  0  0  0  0
  5  6  2  0  0  0  0
  5  7  1  0  0  0  0
  7  8  1  0  0  0  0
  7  9  1  0  0  0  0
  9 10  1  0  0  0  0
  9 11  1  0  0  0  0
  9 29  1  0  0  0  0
 11 12  1  0  0  0  0
 11 13  1  0  0  0  0
 11 14  1  0  0  0  0
 14 15  1  0  0  0  0
 14 16  1  0  0  0  0
 14 17  1  0  0  0  0
 17 18  1  0  0  0  0
 17 19  1  0  0  0  0
 17 20  1  0  0  0  0
 20 21  1  0  0  0  0
 20 22  2  0  0  0  0
 22 23  1  0  0  0  0
 22 26  1  0  0  0  0
 23 24  1  0  0  0  0
 23 25  1  0  0  0  0
 26 27  1  0  0  0  0
 26 28  1  0  0  0  0
 29 30  2  0  0  0  0
 29 31  1  0  0  0  0
 31 32  1  0  0  0  0
 31 33  1  0  0  0  0
 33 34  1  0  0  0  0
 33 35  1  0  0  0  0
 33 36  1  0  0  0  0
M  CHG  1  20   1
M  END
$$$$

  -OEChem-02172215453D

 36 35  0     1  0  0  0  0  0999 V2000
   -3.6783   -2.3513    0.8556 H   0  0  0  0  0  0  0  0  0  0  0  0
   -3.7395   -1.3892    0.3391 C   0  0  0  0  0  0  0  0  0  0  0  0
   -4.7676   -1.0239    0.3934 H   0  0  0  0  0  0  0  0  0  0  0  0
   -3.4656   -1.5387   -0.7081 H   0  0  0  0  0  0  0  0  0  0  0  0
   -2.7982   -0.3929    0.9871 C   0  0  0  0  0  0  0  0  0  0  0  0
   -2.4413   -0.5671    2.1368 O   0  0  0  0  0  0  0  0  0  0  0  0
   -2.6146    0.8517    0.4218 N   0  0  0  0  0  0  0  0  0  0  0  0
   -3.2269    0.9699   -0.3800 H   0  0  0  0  0  0  0  0  0  0  0  0
   -1.3131    1.5400    0.2393 C   0  0  1  0  0  0  0  0  0  0  0  0
   -1.3195    1.9748   -0.7659 H   0  0  0  0  0  0  0  0  0  0  0  0
   -1.2756    2.6779    1.2801 C   0  0  0  0  0  0  0  0  0  0  0  0
   -1.4427    2.2568    2.2780 H   0  0  0  0  0  0  0  0  0  0  0  0
   -0.2795    3.1364    1.2785 H   0  0  0  0  0  0  0  0  0  0  0  0
   -2.3099    3.7760    1.0009 C   0  0  0  0  0  0  0  0  0  0  0  0
   -2.1305    4.2106    0.0115 H   0  0  0  0  0  0  0  0  0  0  0  0
   -3.3186    3.3492    1.0128 H   0  0  0  0  0  0  0  0  0  0  0  0
   -2.1962    4.8525    2.0781 C   0  0  0  0  0  0  0  0  0  0  0  0
   -2.3549    4.3916    3.0597 H   0  0  0  0  0  0  0  0  0  0  0  0
   -1.1857    5.2752    2.0525 H   0  0  0  0  0  0  0  0  0  0  0  0
   -3.1951    5.9126    1.8502 N   0  3  0  0  0  0  0  0  0  0  0  0
   -3.7632    5.8429    1.0073 H   0  0  0  0  0  0  0  0  0  0  0  0
   -3.3603    6.9270    2.6498 C   0  0  0  0  0  0  0  0  0  0  0  0
   -2.6001    7.0863    3.7862 N   0  0  0  0  0  0  0  0  0  0  0  0
   -1.7976    6.4730    3.9138 H   0  0  0  0  0  0  0  0  0  0  0  0
   -2.5879    7.9951    4.2449 H   0  0  0  0  0  0  0  0  0  0  0  0
   -4.3121    7.8748    2.3586 N   0  0  0  0  0  0  0  0  0  0  0  0
   -4.9942    7.6778    1.6289 H   0  0  0  0  0  0  0  0  0  0  0  0
   -4.5672    8.5448    3.0821 H   0  0  0  0  0  0  0  0  0  0  0  0
    0.0587    0.8044    0.3476 C   0  0  0  0  0  0  0  0  0  0  0  0
    0.9480    1.2086   -0.3832 O   0  0  0  0  0  0  0  0  0  0  0  0
    0.3569   -0.4302    0.8734 N   0  0  0  0  0  0  0  0  0  0  0  0
    1.1694   -0.8134    0.3945 H   0  0  0  0  0  0  0  0  0  0  0  0
    0.4309   -0.5851    2.3227 C   0  0  0  0  0  0  0  0  0  0  0  0
    1.4758   -0.5654    2.6479 H   0  0  0  0  0  0  0  0  0  0  0  0
   -0.0994    0.2182    2.8443 H   0  0  0  0  0  0  0  0  0  0  0  0
   -0.0078   -1.5421    2.6230 H   0  0  0  0  0  0  0  0  0  0  0  0
  1  2  1  0  0  0  0
  2  3  1  0  0  0  0
  2  4  1  0  0  0  0
  2  5  1  0  0  0  0
  5  6  2  0  0  0  0
  5  7  1  0  0  0  0
  7  8  1  0  0  0  0
  7  9  1  0  0  0  0
  9 10  1  0  0  0  0
  9 11  1  0  0  0  0
  9 29  1  0  0  0  0
 11 12  1  0  0  0  0
 11 13  1  0  0  0  0
 11 14  1  0  0  0  0
 14 15  1  0  0  0  0
 14 16  1  0  0  0  0
 14 17  1  0  0  0  0
 17 18  1  0  0  0  0
 17 19  1  0  0  0  0
 17 20  1  0  0  0  0
 20 21  1  0  0  0  0
 20 22  2  0  0  0  0
 22 23  1  0  0  0  0
 22 26  1  0  0  0  0
 23 24  1  0  0  0  0
 23 25  1  0  0  0  0
 26 27  1  0  0  0  0
 26 28  1  0  0  0  0
 29 30  2  0  0  0  0
 29 31  1  0  0  0  0
 31 32  1  0  0  0  0
 31 33  1  0  0  0  0
 33 34  1  0  0  0  0
 33 35  1  0  0  0  0
 33 36  1  0  0  0  0
M  CHG  1  20   1
M  END
$$$$

  -OEChem-02172215453D

 36 35  0     1  0  0  0  0  0999 V2000
   -3.7034   -2.3234    1.2432 H   0  0  0  0  0  0  0  0  0  0  0  0
   -3.8114   -1.4014    0.6646 C   0  0  0  0  0  0  0  0  0  0  0  0
   -4.8214   -1.0106    0.8089 H   0  0  0  0  0  0  0  0  0  0  0  0
   -3.6632   -1.6346   -0.3927 H   0  0  0  0  0  0  0  0  0  0  0  0
   -2.7872   -0.3802    1.1203 C   0  0  0  0  0  0  0  0  0  0  0  0
   -2.2357   -0.5190    2.1964 O   0  0  0  0  0  0  0  0  0  0  0  0
   -2.7043    0.8449    0.4923 N   0  0  0  0  0  0  0  0  0  0  0  0
   -3.4174    0.9296   -0.2263 H   0  0  0  0  0  0  0  0  0  0  0  0
   -1.4493    1.5518    0.1378 C   0  0  1  0  0  0  0  0  0  0  0  0
   -1.5752    1.9597   -0.8706 H   0  0  0  0  0  0  0  0  0  0  0  0
   -1.3185    2.7111    1.1489 C   0  0  0  0  0  0  0  0  0  0  0  0
   -1.3525    2.3027    2.1657 H   0  0  0  0  0  0  0  0  0  0  0  0
   -0.3426    3.1943    1.0231 H   0  0  0  0  0  0  0  0  0  0  0  0
   -2.4017    3.7840    0.9834 C   0  0  0  0  0  0  0  0  0  0  0  0
   -2.3510    4.2092   -0.0248 H   0  0  0  0  0  0  0  0  0  0  0  0
   -3.3930    3.3396    1.1221 H   0  0  0  0  0  0  0  0  0  0  0  0
   -2.1744    4.8742    2.0291 C   0  0  0  0  0  0  0  0  0  0  0  0
   -2.2016    4.4182    3.0252 H   0  0  0  0  0  0  0  0  0  0  0  0
   -1.1821    5.3135    1.8760 H   0  0  0  0  0  0  0  0  0  0  0  0
   -3.2091    5.9189    1.9237 N   0  3  0  0  0  0  0  0  0  0  0  0
   -3.9006    5.8166    1.1822 H   0  0  0  0  0  0  0  0  0  0  0  0
   -3.2838    6.9360    2.7335 C   0  0  0  0  0  0  0  0  0  0  0  0
   -2.3856    7.1099    3.7623 N   0  0  0  0  0  0  0  0  0  0  0  0
   -1.7481    6.3447    3.9746 H   0  0  0  0  0  0  0  0  0  0  0  0
   -2.6104    7.7683    4.5054 H   0  0  0  0  0  0  0  0  0  0  0  0
   -4.2817    7.8668    2.5675 N   0  0  0  0  0  0  0  0  0  0  0  0
   -4.8318    7.8478    1.7110 H   0  0  0  0  0  0  0  0  0  0  0  0
   -4.2061    8.7518    3.0655 H   0  0  0  0  0  0  0  0  0  0  0  0
   -0.0590    0.8437    0.1164 C   0  0  0  0  0  0  0  0  0  0  0  0
    0.8141    1.3734   -0.5523 O   0  0  0  0  0  0  0  0  0  0  0  0
    0.2392   -0.4681    0.4014 N   0  0  0  0  0  0  0  0  0  0  0  0
    0.9377   -0.7967   -0.2620 H   0  0  0  0  0  0  0  0  0  0  0  0
    0.6175   -0.7895    1.7747 C   0  0  0  0  0  0  0  0  0  0  0  0
    0.2719   -0.0252    2.4792 H   0  0  0  0  0  0  0  0  0  0  0  0
    0.1870   -1.7517    2.0706 H   0  0  0  0  0  0  0  0  0  0  0  0
    1.7071   -0.8559    1.8580 H   0  0  0  0  0  0  0  0  0  0  0  0
  1  2  1  0  0  0  0
  2  3  1  0  0  0  0
  2  4  1  0  0  0  0
  2  5  1  0  0  0  0
  5  6  2  0  0  0  0
  5  7  1  0  0  0  0
  7  8  1  0  0  0  0
  7  9  1  0  0  0  0
  9 10  1  0  0  0  0
  9 11  1  0  0  0  0
  9 29  1  0  0  0  0
 11 12  1  0  0  0  0
 11 13  1  0  0  0  0
 11 14  1  0  0  0  0
 14 15  1  0  0  0  0
 14 16  1  0  0  0  0
 14 17  1  0  0  0  0
 17 18  1  0  0  0  0
 17 19  1  0  0  0  0
 17 20  1  0  0  0  0
 20 21  1  0  0  0  0
 20 22  2  0  0  0  0
 22 23  1  0  0  0  0
 22 26  1  0  0  0  0
 23 24  1  0  0  0  0
 23 25  1  0  0  0  0
 26 27  1  0  0  0  0
 26 28  1  0  0  0  0
 29 30  2  0  0  0  0
 29 31  1  0  0  0  0
 31 32  1  0  0  0  0
 31 33  1  0  0  0  0
 33 34  1  0  0  0  0
 33 35  1  0  0  0  0
 33 36  1  0  0  0  0
M  CHG  1  20   1
M  END
$$$$

  -OEChem-02172215453D

 36 35  0     1  0  0  0  0  0999 V2000
   -4.3839   -1.9408    1.0764 H   0  0  0  0  0  0  0  0  0  0  0  0
   -4.2640   -0.9667    0.5929 C   0  0  0  0  0  0  0  0  0  0  0  0
   -5.0963   -0.3241    0.8891 H   0  0  0  0  0  0  0  0  0  0  0  0
   -4.2885   -1.1106   -0.4902 H   0  0  0  0  0  0  0  0  0  0  0  0
   -2.9471   -0.3371    1.0072 C   0  0  0  0  0  0  0  0  0  0  0  0
   -2.2860   -0.8676    1.8801 O   0  0  0  0  0  0  0  0  0  0  0  0
   -2.5808    0.8833    0.4680 N   0  0  0  0  0  0  0  0  0  0  0  0
   -3.2392    1.2176   -0.2297 H   0  0  0  0  0  0  0  0  0  0  0  0
   -1.2395    1.5265    0.4194 C   0  0  1  0  0  0  0  0  0  0  0  0
   -1.1053    1.9287   -0.5898 H   0  0  0  0  0  0  0  0  0  0  0  0
   -1.3112    2.6982    1.4315 C   0  0  0  0  0  0  0  0  0  0  0  0
   -1.6062    2.3018    2.4099 H   0  0  0  0  0  0  0  0  0  0  0  0
   -0.3213    3.1513    1.5532 H   0  0  0  0  0  0  0  0  0  0  0  0
   -2.2723    3.8167    1.0086 C   0  0  0  0  0  0  0  0  0  0  0  0
   -1.9572    4.2303    0.0444 H   0  0  0  0  0  0  0  0  0  0  0  0
   -3.2881    3.4229    0.9013 H   0  0  0  0  0  0  0  0  0  0  0  0
   -2.2505    4.9040    2.0823 C   0  0  0  0  0  0  0  0  0  0  0  0
   -2.5365    4.4582    3.0414 H   0  0  0  0  0  0  0  0  0  0  0  0
   -1.2296    5.2926    2.1729 H   0  0  0  0  0  0  0  0  0  0  0  0
   -3.1765    5.9990    1.7401 N   0  3  0  0  0  0  0  0  0  0  0  0
   -3.6689    5.9335    0.8507 H   0  0  0  0  0  0  0  0  0  0  0  0
   -3.3898    7.0231    2.5162 C   0  0  0  0  0  0  0  0  0  0  0  0
   -2.7547    7.1573    3.7302 N   0  0  0  0  0  0  0  0  0  0  0  0
   -2.2203    6.3661    4.0842 H   0  0  0  0  0  0  0  0  0  0  0  0
   -3.1015    7.8435    4.3974 H   0  0  0  0  0  0  0  0  0  0  0  0
   -4.2668    8.0052    2.1216 N   0  0  0  0  0  0  0  0  0  0  0  0
   -4.5894    8.0146    1.1560 H   0  0  0  0  0  0  0  0  0  0  0  0
   -4.2673    8.8867    2.6319 H   0  0  0  0  0  0  0  0  0  0  0  0
    0.0809    0.7348    0.6919 C   0  0  0  0  0  0  0  0  0  0  0  0
    1.1300    1.3680    0.7025 O   0  0  0  0  0  0  0  0  0  0  0  0
    0.1767   -0.6440    0.7061 N   0  0  0  0  0  0  0  0  0  0  0  0
   -0.6849   -1.1299    0.9568 H   0  0  0  0  0  0  0  0  0  0  0  0
    1.4341   -1.3495    0.9347 C   0  0  0  0  0  0  0  0  0  0  0  0
    1.8497   -1.0865    1.9132 H   0  0  0  0  0  0  0  0  0  0  0  0
    1.2700   -2.4311    0.9066 H   0  0  0  0  0  0  0  0  0  0  0  0
    2.1660   -1.0936    0.1610 H   0  0  0  0  0  0  0  0  0  0  0  0
  1  2  1  0  0  0  0
  2  3  1  0  0  0  0
  2  4  1  0  0  0  0
  2  5  1  0  0  0  0
  5  6  2  0  0  0  0
  5  7  1  0  0  0  0
  7  8  1  0  0  0  0
  7  9  1  0  0  0  0
  9 10  1  0  0  0  0
  9 11  1  0  0  0  0
  9 29  1  0  0  0  0
 11 12  1  0  0  0  0
 11 13  1  0  0  0  0
 11 14  1  0  0  0  0
 14 15  1  0  0  0  0
 14 16  1  0  0  0  0
 14 17  1  0  0  0  0
 17 18  1  0  0  0  0
 17 19  1  0  0  0  0
 17 20  1  0  0  0  0
 20 21  1  0  0  0  0
 20 22  2  0  0  0  0
 22 23  1  0  0  0  0
 22 26  1  0  0  0  0
 23 24  1  0  0  0  0
 23 25  1  0  0  0  0
 26 27  1  0  0  0  0
 26 28  1  0  0  0  0
 29 30  2  0  0  0  0
 29 31  1  0  0  0  0
 31 32  1  0  0  0  0
 31 33  1  0  0  0  0
 33 34  1  0  0  0  0
 33 35  1  0  0  0  0
 33 36  1  0  0  0  0
M  CHG  1  20   1
M  END
$$$$

  -OEChem-02172215453D

 36 35  0     1  0  0  0  0  0999 V2000
   -4.3261   -1.9362    1.1082 H   0  0  0  0  0  0  0  0  0  0  0  0
   -4.2322   -0.9393    0.6672 C   0  0  0  0  0  0  0  0  0  0  0  0
   -5.0188   -0.3006    1.0756 H   0  0  0  0  0  0  0  0  0  0  0  0
   -4.3623   -1.0234   -0.4144 H   0  0  0  0  0  0  0  0  0  0  0  0
   -2.8692   -0.3550    0.9866 C   0  0  0  0  0  0  0  0  0  0  0  0
   -2.1323   -0.9573    1.7435 O   0  0  0  0  0  0  0  0  0  0  0  0
   -2.5241    0.8805    0.4669 N   0  0  0  0  0  0  0  0  0  0  0  0
   -3.2233    1.2629   -0.1627 H   0  0  0  0  0  0  0  0  0  0  0  0
   -1.1933    1.5446    0.4274 C   0  0  1  0  0  0  0  0  0  0  0  0
   -1.0564    1.9493   -0.5801 H   0  0  0  0  0  0  0  0  0  0  0  0
   -1.2855    2.7198    1.4352 C   0  0  0  0  0  0  0  0  0  0  0  0
   -1.5784    2.3227    2.4137 H   0  0  0  0  0  0  0  0  0  0  0  0
   -0.3039    3.1896    1.5571 H   0  0  0  0  0  0  0  0  0  0  0  0
   -2.2581    3.8255    1.0046 C   0  0  0  0  0  0  0  0  0  0  0  0
   -1.9432    4.2409    0.0411 H   0  0  0  0  0  0  0  0  0  0  0  0
   -3.2685    3.4188    0.8940 H   0  0  0  0  0  0  0  0  0  0  0  0
   -2.2534    4.9149    2.0767 C   0  0  0  0  0  0  0  0  0  0  0  0
   -2.5383    4.4674    3.0356 H   0  0  0  0  0  0  0  0  0  0  0  0
   -1.2373    5.3152    2.1710 H   0  0  0  0  0  0  0  0  0  0  0  0
   -3.1901    5.9995    1.7298 N   0  3  0  0  0  0  0  0  0  0  0  0
   -3.6766    5.9299    0.8373 H   0  0  0  0  0  0  0  0  0  0  0  0
   -3.4171    7.0215    2.5048 C   0  0  0  0  0  0  0  0  0  0  0  0
   -2.7884    7.1633    3.7213 N   0  0  0  0  0  0  0  0  0  0  0  0
   -2.2499    6.3761    4.0780 H   0  0  0  0  0  0  0  0  0  0  0  0
   -3.1548    7.8384    4.3894 H   0  0  0  0  0  0  0  0  0  0  0  0
   -4.2998    7.9964    2.1058 N   0  0  0  0  0  0  0  0  0  0  0  0
   -4.6166    8.0026    1.1383 H   0  0  0  0  0  0  0  0  0  0  0  0
   -4.3028    8.8803    2.6121 H   0  0  0  0  0  0  0  0  0  0  0  0
    0.1197    0.7364    0.6914 C   0  0  0  0  0  0  0  0  0  0  0  0
    1.1478    1.3485    0.9570 O   0  0  0  0  0  0  0  0  0  0  0  0
    0.2420   -0.6061    0.3818 N   0  0  0  0  0  0  0  0  0  0  0  0
   -0.6256   -1.1335    0.4733 H   0  0  0  0  0  0  0  0  0  0  0  0
    1.4864   -1.3450    0.5732 C   0  0  0  0  0  0  0  0  0  0  0  0
    1.7685   -1.3539    1.6314 H   0  0  0  0  0  0  0  0  0  0  0  0
    1.3671   -2.3793    0.2364 H   0  0  0  0  0  0  0  0  0  0  0  0
    2.2983   -0.8897   -0.0038 H   0  0  0  0  0  0  0  0  0  0  0  0
  1  2  1  0  0  0  0
  2  3  1  0  0  0  0
  2  4  1  0  0  0  0
  2  5  1  0  0  0  0
  5  6  2  0  0  0  0
  5  7  1  0  0  0  0
  7  8  1  0  0  0  0
  7  9  1  0  0  0  0
  9 10  1  0  0  0  0
  9 11  1  0  0  0  0
  9 29  1  0  0  0  0
 11 12  1  0  0  0  0
 11 13  1  0  0  0  0
 11 14  1  0  0  0  0
 14 15  1  0  0  0  0
 14 16  1  0  0  0  0
 14 17  1  0  0  0  0
 17 18  1  0  0  0  0
 17 19  1  0  0  0  0
 17 20  1  0  0  0  0
 20 21  1  0  0  0  0
 20 22  2  0  0  0  0
 22 23  1  0  0  0  0
 22 26  1  0  0  0  0
 23 24  1  0  0  0  0
 23 25  1  0  0  0  0
 26 27  1  0  0  0  0
 26 28  1  0  0  0  0
 29 30  2  0  0  0  0
 29 31  1  0  0  0  0
 31 32  1  0  0  0  0
 31 33  1  0  0  0  0
 33 34  1  0  0  0  0
 33 35  1  0  0  0  0
 33 36  1  0  0  0  0
M  CHG  1  20   1
M  END
$$$$

  -OEChem-02172215453D

 36 35  0     1  0  0  0  0  0999 V2000
   -4.2150   -1.9591    1.1443 H   0  0  0  0  0  0  0  0  0  0  0  0
   -4.1477   -0.9568    0.7106 C   0  0  0  0  0  0  0  0  0  0  0  0
   -4.9180   -0.3279    1.1628 H   0  0  0  0  0  0  0  0  0  0  0  0
   -4.3286   -1.0300   -0.3644 H   0  0  0  0  0  0  0  0  0  0  0  0
   -2.7747   -0.3662    0.9709 C   0  0  0  0  0  0  0  0  0  0  0  0
   -1.9842   -0.9889    1.6527 O   0  0  0  0  0  0  0  0  0  0  0  0
   -2.4686    0.8817    0.4536 N   0  0  0  0  0  0  0  0  0  0  0  0
   -3.2024    1.2791   -0.1248 H   0  0  0  0  0  0  0  0  0  0  0  0
   -1.1550    1.5766    0.4158 C   0  0  1  0  0  0  0  0  0  0  0  0
   -1.0177    1.9812   -0.5916 H   0  0  0  0  0  0  0  0  0  0  0  0
   -1.2610    2.7533    1.4187 C   0  0  0  0  0  0  0  0  0  0  0  0
   -1.5375    2.3553    2.4016 H   0  0  0  0  0  0  0  0  0  0  0  0
   -0.2850    3.2390    1.5259 H   0  0  0  0  0  0  0  0  0  0  0  0
   -2.2532    3.8427    0.9913 C   0  0  0  0  0  0  0  0  0  0  0  0
   -1.9531    4.2612    0.0244 H   0  0  0  0  0  0  0  0  0  0  0  0
   -3.2579    3.4201    0.8903 H   0  0  0  0  0  0  0  0  0  0  0  0
   -2.2551    4.9323    2.0633 C   0  0  0  0  0  0  0  0  0  0  0  0
   -2.5257    4.4796    3.0236 H   0  0  0  0  0  0  0  0  0  0  0  0
   -1.2436    5.3456    2.1505 H   0  0  0  0  0  0  0  0  0  0  0  0
   -3.2082    6.0059    1.7277 N   0  3  0  0  0  0  0  0  0  0  0  0
   -3.7029    5.9323    0.8401 H   0  0  0  0  0  0  0  0  0  0  0  0
   -3.4391    7.0229    2.5083 C   0  0  0  0  0  0  0  0  0  0  0  0
   -2.7987    7.1670    3.7186 N   0  0  0  0  0  0  0  0  0  0  0  0
   -2.2425    6.3876    4.0653 H   0  0  0  0  0  0  0  0  0  0  0  0
   -3.1573    7.8413    4.3918 H   0  0  0  0  0  0  0  0  0  0  0  0
   -4.3383    7.9883    2.1220 N   0  0  0  0  0  0  0  0  0  0  0  0
   -4.6637    7.9965    1.1573 H   0  0  0  0  0  0  0  0  0  0  0  0
   -4.3540    8.8675    2.6361 H   0  0  0  0  0  0  0  0  0  0  0  0
    0.1467    0.7539    0.6824 C   0  0  0  0  0  0  0  0  0  0  0  0
    1.1079    1.2765    1.2350 O   0  0  0  0  0  0  0  0  0  0  0  0
    0.3353   -0.4795    0.0841 N   0  0  0  0  0  0  0  0  0  0  0  0
   -0.5240   -0.9902   -0.1009 H   0  0  0  0  0  0  0  0  0  0  0  0
    1.5402   -1.2732    0.3029 C   0  0  0  0  0  0  0  0  0  0  0  0
    1.6264   -1.5529    1.3583 H   0  0  0  0  0  0  0  0  0  0  0  0
    1.5050   -2.1874   -0.2975 H   0  0  0  0  0  0  0  0  0  0  0  0
    2.4331   -0.7085    0.0139 H   0  0  0  0  0  0  0  0  0  0  0  0
  1  2  1  0  0  0  0
  2  3  1  0  0  0  0
  2  4  1  0  0  0  0
  2  5  1  0  0  0  0
  5  6  2  0  0  0  0
  5  7  1  0  0  0  0
  7  8  1  0  0  0  0
  7  9  1  0  0  0  0
  9 10  1  0  0  0  0
  9 11  1  0  0  0  0
  9 29  1  0  0  0  0
 11 12  1  0  0  0  0
 11 13  1  0  0  0  0
 11 14  1  0  0  0  0
 14 15  1  0  0  0  0
 14 16  1  0  0  0  0
 14 17  1  0  0  0  0
 17 18  1  0  0  0  0
 17 19  1  0  0  0  0
 17 20  1  0  0  0  0
 20 21  1  0  0  0  0
 20 22  2  0  0  0  0
 22 23  1  0  0  0  0
 22 26  1  0  0  0  0
 23 24  1  0  0  0  0
 23 25  1  0  0  0  0
 26 27  1  0  0  0  0
 26 28  1  0  0  0  0
 29 30  2  0  0  0  0
 29 31  1  0  0  0  0
 31 32  1  0  0  0  0
 31 33  1  0  0  0  0
 33 34  1  0  0  0  0
 33 35  1  0  0  0  0
 33 36  1  0  0  0  0
M  CHG  1  20   1
M  END
$$$$

  -OEChem-02172215453D

 36 35  0     1  0  0  0  0  0999 V2000
   -4.1220   -1.9728    1.1830 H   0  0  0  0  0  0  0  0  0  0  0  0
   -4.0778   -0.9705    0.7464 C   0  0  0  0  0  0  0  0  0  0  0  0
   -4.8349   -0.3464    1.2268 H   0  0  0  0  0  0  0  0  0  0  0  0
   -4.2976   -1.0453   -0.3212 H   0  0  0  0  0  0  0  0  0  0  0  0
   -2.7001   -0.3707    0.9562 C   0  0  0  0  0  0  0  0  0  0  0  0
   -1.8796   -0.9952    1.5996 O   0  0  0  0  0  0  0  0  0  0  0  0
   -2.4263    0.8836    0.4335 N   0  0  0  0  0  0  0  0  0  0  0  0
   -3.1831    1.2849   -0.1111 H   0  0  0  0  0  0  0  0  0  0  0  0
   -1.1272    1.6024    0.4020 C   0  0  1  0  0  0  0  0  0  0  0  0
   -0.9848    2.0099   -0.6034 H   0  0  0  0  0  0  0  0  0  0  0  0
   -1.2417    2.7767    1.4045 C   0  0  0  0  0  0  0  0  0  0  0  0
   -1.5088    2.3768    2.3895 H   0  0  0  0  0  0  0  0  0  0  0  0
   -0.2662    3.2666    1.5027 H   0  0  0  0  0  0  0  0  0  0  0  0
   -2.2463    3.8562    0.9834 C   0  0  0  0  0  0  0  0  0  0  0  0
   -1.9561    4.2786    0.0155 H   0  0  0  0  0  0  0  0  0  0  0  0
   -3.2469    3.4228    0.8875 H   0  0  0  0  0  0  0  0  0  0  0  0
   -2.2538    4.9439    2.0573 C   0  0  0  0  0  0  0  0  0  0  0  0
   -2.5156    4.4868    3.0181 H   0  0  0  0  0  0  0  0  0  0  0  0
   -1.2460    5.3667    2.1409 H   0  0  0  0  0  0  0  0  0  0  0  0
   -3.2191    6.0086    1.7278 N   0  3  0  0  0  0  0  0  0  0  0  0
   -3.7178    5.9325    0.8428 H   0  0  0  0  0  0  0  0  0  0  0  0
   -3.4564    7.0219    2.5111 C   0  0  0  0  0  0  0  0  0  0  0  0
   -2.8122    7.1708    3.7187 N   0  0  0  0  0  0  0  0  0  0  0  0
   -2.2502    6.3942    4.0625 H   0  0  0  0  0  0  0  0  0  0  0  0
   -3.1796    7.8362    4.3958 H   0  0  0  0  0  0  0  0  0  0  0  0
   -4.3668    7.9791    2.1309 N   0  0  0  0  0  0  0  0  0  0  0  0
   -4.6973    7.9847    1.1679 H   0  0  0  0  0  0  0  0  0  0  0  0
   -4.3854    8.8584    2.6447 H   0  0  0  0  0  0  0  0  0  0  0  0
    0.1632    0.7726    0.6848 C   0  0  0  0  0  0  0  0  0  0  0  0
    1.0027    1.1577    1.4911 O   0  0  0  0  0  0  0  0  0  0  0  0
    0.4797   -0.2934   -0.1391 N   0  0  0  0  0  0  0  0  0  0  0  0
   -0.3002   -0.7026   -0.6440 H   0  0  0  0  0  0  0  0  0  0  0  0
    1.6474   -1.1369    0.0949 C   0  0  0  0  0  0  0  0  0  0  0  0
    1.5607   -1.6499    1.0588 H   0  0  0  0  0  0  0  0  0  0  0  0
    1.7346   -1.8904   -0.6938 H   0  0  0  0  0  0  0  0  0  0  0  0
    2.5635   -0.5367    0.0972 H   0  0  0  0  0  0  0  0  0  0  0  0
  1  2  1  0  0  0  0
  2  3  1  0  0  0  0
  2  4  1  0  0  0  0
  2  5  1  0  0  0  0
  5  6  2  0  0  0  0
  5  7  1  0  0  0  0
  7  8  1  0  0  0  0
  7  9  1  0  0  0  0
  9 10  1  0  0  0  0
  9 11  1  0  0  0  0
  9 29  1  0  0  0  0
 11 12  1  0  0  0  0
 11 13  1  0  0  0  0
 11 14  1  0  0  0  0
 14 15  1  0  0  0  0
 14 16  1  0  0  0  0
 14 17  1  0  0  0  0
 17 18  1  0  0  0  0
 17 19  1  0  0  0  0
 17 20  1  0  0  0  0
 20 21  1  0  0  0  0
 20 22  2  0  0  0  0
 22 23  1  0  0  0  0
 22 26  1  0  0  0  0
 23 24  1  0  0  0  0
 23 25  1  0  0  0  0
 26 27  1  0  0  0  0
 26 28  1  0  0  0  0
 29 30  2  0  0  0  0
 29 31  1  0  0  0  0
 31 32  1  0  0  0  0
 31 33  1  0  0  0  0
 33 34  1  0  0  0  0
 33 35  1  0  0  0  0
 33 36  1  0  0  0  0
M  CHG  1  20   1
M  END
$$$$

  -OEChem-02172215453D

 36 35  0     1  0  0  0  0  0999 V2000
   -4.1141   -1.9597    1.2154 H   0  0  0  0  0  0  0  0  0  0  0  0
   -4.0699   -0.9588    0.7755 C   0  0  0  0  0  0  0  0  0  0  0  0
   -4.8025   -0.3234    1.2784 H   0  0  0  0  0  0  0  0  0  0  0  0
   -4.3243   -1.0321   -0.2845 H   0  0  0  0  0  0  0  0  0  0  0  0
   -2.6776   -0.3786    0.9398 C   0  0  0  0  0  0  0  0  0  0  0  0
   -1.8388   -1.0279    1.5329 O   0  0  0  0  0  0  0  0  0  0  0  0
   -2.4086    0.8762    0.4144 N   0  0  0  0  0  0  0  0  0  0  0  0
   -3.1803    1.2952   -0.0942 H   0  0  0  0  0  0  0  0  0  0  0  0
   -1.1154    1.6039    0.3957 C   0  0  1  0  0  0  0  0  0  0  0  0
   -0.9633    2.0125   -0.6078 H   0  0  0  0  0  0  0  0  0  0  0  0
   -1.2391    2.7769    1.3961 C   0  0  0  0  0  0  0  0  0  0  0  0
   -1.5127    2.3766    2.3793 H   0  0  0  0  0  0  0  0  0  0  0  0
   -0.2617    3.2622    1.4998 H   0  0  0  0  0  0  0  0  0  0  0  0
   -2.2434    3.8549    0.9719 C   0  0  0  0  0  0  0  0  0  0  0  0
   -1.9493    4.2807    0.0064 H   0  0  0  0  0  0  0  0  0  0  0  0
   -3.2430    3.4206    0.8706 H   0  0  0  0  0  0  0  0  0  0  0  0
   -2.2554    4.9387    2.0492 C   0  0  0  0  0  0  0  0  0  0  0  0
   -2.5194    4.4776    3.0078 H   0  0  0  0  0  0  0  0  0  0  0  0
   -1.2478    5.3615    2.1369 H   0  0  0  0  0  0  0  0  0  0  0  0
   -3.2200    6.0048    1.7216 N   0  3  0  0  0  0  0  0  0  0  0  0
   -3.7158    5.9320    0.8346 H   0  0  0  0  0  0  0  0  0  0  0  0
   -3.4595    7.0146    2.5092 C   0  0  0  0  0  0  0  0  0  0  0  0
   -2.8180    7.1567    3.7191 N   0  0  0  0  0  0  0  0  0  0  0  0
   -2.2605    6.3758    4.0609 H   0  0  0  0  0  0  0  0  0  0  0  0
   -3.1885    7.8172    4.3994 H   0  0  0  0  0  0  0  0  0  0  0  0
   -4.3698    7.9733    2.1320 N   0  0  0  0  0  0  0  0  0  0  0  0
   -4.7009    7.9833    1.1692 H   0  0  0  0  0  0  0  0  0  0  0  0
   -4.3926    8.8492    2.6517 H   0  0  0  0  0  0  0  0  0  0  0  0
    0.1696    0.7765    0.7006 C   0  0  0  0  0  0  0  0  0  0  0  0
    0.8701    1.0245    1.6762 O   0  0  0  0  0  0  0  0  0  0  0  0
    0.6648   -0.0775   -0.2694 N   0  0  0  0  0  0  0  0  0  0  0  0
    0.0053   -0.3771   -0.9806 H   0  0  0  0  0  0  0  0  0  0  0  0
    1.8471   -0.9038   -0.0472 C   0  0  0  0  0  0  0  0  0  0  0  0
    1.6738   -1.6043    0.7768 H   0  0  0  0  0  0  0  0  0  0  0  0
    2.0839   -1.4783   -0.9478 H   0  0  0  0  0  0  0  0  0  0  0  0
    2.7133   -0.2799    0.1979 H   0  0  0  0  0  0  0  0  0  0  0  0
  1  2  1  0  0  0  0
  2  3  1  0  0  0  0
  2  4  1  0  0  0  0
  2  5  1  0  0  0  0
  5  6  2  0  0  0  0
  5  7  1  0  0  0  0
  7  8  1  0  0  0  0
  7  9  1  0  0  0  0
  9 10  1  0  0  0  0
  9 11  1  0  0  0  0
  9 29  1  0  0  0  0
 11 12  1  0  0  0  0
 11 13  1  0  0  0  0
 11 14  1  0  0  0  0
 14 15  1  0  0  0  0
 14 16  1  0  0  0  0
 14 17  1  0  0  0  0
 17 18  1  0  0  0  0
 17 19  1  0  0  0  0
 17 20  1  0  0  0  0
 20 21  1  0  0  0  0
 20 22  2  0  0  0  0
 22 23  1  0  0  0  0
 22 26  1  0  0  0  0
 23 24  1  0  0  0  0
 23 25  1  0  0  0  0
 26 27  1  0  0  0  0
 26 28  1  0  0  0  0
 29 30  2  0  0  0  0
 29 31  1  0  0  0  0
 31 32  1  0  0  0  0
 31 33  1  0  0  0  0
 33 34  1  0  0  0  0
 33 35  1  0  0  0  0
 33 36  1  0  0  0  0
M  CHG  1  20   1
M  END
$$$$

  -OEChem-02172215453D

 36 35  0     1  0  0  0  0  0999 V2000
   -4.1352   -1.9420    1.2425 H   0  0  0  0  0  0  0  0  0  0  0  0
   -4.0842   -0.9436    0.7974 C   0  0  0  0  0  0  0  0  0  0  0  0
   -4.7906   -0.2927    1.3171 H   0  0  0  0  0  0  0  0  0  0  0  0
   -4.3669   -1.0156   -0.2554 H   0  0  0  0  0  0  0  0  0  0  0  0
   -2.6777   -0.3889    0.9224 C   0  0  0  0  0  0  0  0  0  0  0  0
   -1.8294   -1.0679    1.4659 O   0  0  0  0  0  0  0  0  0  0  0  0
   -2.4047    0.8655    0.3974 N   0  0  0  0  0  0  0  0  0  0  0  0
   -3.1871    1.3060   -0.0750 H   0  0  0  0  0  0  0  0  0  0  0  0
   -1.1128    1.5945    0.3897 C   0  0  1  0  0  0  0  0  0  0  0  0
   -0.9566    2.0073   -0.6114 H   0  0  0  0  0  0  0  0  0  0  0  0
   -1.2372    2.7643    1.3932 C   0  0  0  0  0  0  0  0  0  0  0  0
   -1.5194    2.3614    2.3732 H   0  0  0  0  0  0  0  0  0  0  0  0
   -0.2559    3.2400    1.5054 H   0  0  0  0  0  0  0  0  0  0  0  0
   -2.2374    3.8464    0.9695 C   0  0  0  0  0  0  0  0  0  0  0  0
   -1.9391    4.2739    0.0062 H   0  0  0  0  0  0  0  0  0  0  0  0
   -3.2372    3.4140    0.8629 H   0  0  0  0  0  0  0  0  0  0  0  0
   -2.2527    4.9284    2.0490 C   0  0  0  0  0  0  0  0  0  0  0  0
   -2.5225    4.4665    3.0053 H   0  0  0  0  0  0  0  0  0  0  0  0
   -1.2456    5.3504    2.1429 H   0  0  0  0  0  0  0  0  0  0  0  0
   -3.2143    5.9956    1.7180 N   0  3  0  0  0  0  0  0  0  0  0  0
   -3.7074    5.9236    0.8295 H   0  0  0  0  0  0  0  0  0  0  0  0
   -3.4567    7.0046    2.5053 C   0  0  0  0  0  0  0  0  0  0  0  0
   -2.8216    7.1459    3.7186 N   0  0  0  0  0  0  0  0  0  0  0  0
   -2.2674    6.3644    4.0639 H   0  0  0  0  0  0  0  0  0  0  0  0
   -3.1959    7.8065    4.3968 H   0  0  0  0  0  0  0  0  0  0  0  0
   -4.3640    7.9640    2.1233 N   0  0  0  0  0  0  0  0  0  0  0  0
   -4.6930    7.9718    1.1599 H   0  0  0  0  0  0  0  0  0  0  0  0
   -4.3896    8.8399    2.6428 H   0  0  0  0  0  0  0  0  0  0  0  0
    0.1720    0.7734    0.7090 C   0  0  0  0  0  0  0  0  0  0  0  0
    0.7304    0.8750    1.7961 O   0  0  0  0  0  0  0  0  0  0  0  0
    0.8592    0.1661   -0.3280 N   0  0  0  0  0  0  0  0  0  0  0  0
    0.3341   -0.0070   -1.1795 H   0  0  0  0  0  0  0  0  0  0  0  0
    2.0735   -0.6134   -0.1060 C   0  0  0  0  0  0  0  0  0  0  0  0
    1.8664   -1.4656    0.5504 H   0  0  0  0  0  0  0  0  0  0  0  0
    2.4596   -0.9927   -1.0569 H   0  0  0  0  0  0  0  0  0  0  0  0
    2.8505    0.0046    0.3563 H   0  0  0  0  0  0  0  0  0  0  0  0
  1  2  1  0  0  0  0
  2  3  1  0  0  0  0
  2  4  1  0  0  0  0
  2  5  1  0  0  0  0
  5  6  2  0  0  0  0
  5  7  1  0  0  0  0
  7  8  1  0  0  0  0
  7  9  1  0  0  0  0
  9 10  1  0  0  0  0
  9 11  1  0  0  0  0
  9 29  1  0  0  0  0
 11 12  1  0  0  0  0
 11 13  1  0  0  0  0
 11 14  1  0  0  0  0
 14 15  1  0  0  0  0
 14 16  1  0  0  0  0
 14 17  1  0  0  0  0
 17 18  1  0  0  0  0
 17 19  1  0  0  0  0
 17 20  1  0  0  0  0
 20 21  1  0  0  0  0
 20 22  2  0  0  0  0
 22 23  1  0  0  0  0
 22 26  1  0  0  0  0
 23 24  1  0  0  0  0
 23 25  1  0  0  0  0
 26 27  1  0  0  0  0
 26 28  1  0  0  0  0
 29 30  2  0  0  0  0
 29 31  1  0  0  0  0
 31 32  1  0  0  0  0
 31 33  1  0  0  0  0
 33 34  1  0  0  0  0
 33 35  1  0  0  0  0
 33 36  1  0  0  0  0
M  CHG  1  20   1
M  END
$$$$

  -OEChem-02172215453D

 36 35  0     1  0  0  0  0  0999 V2000
   -4.1901   -1.9069    1.2724 H   0  0  0  0  0  0  0  0  0  0  0  0
   -4.1235   -0.9114    0.8234 C   0  0  0  0  0  0  0  0  0  0  0  0
   -4.7940   -0.2391    1.3632 H   0  0  0  0  0  0  0  0  0  0  0  0
   -4.4412   -0.9764   -0.2200 H   0  0  0  0  0  0  0  0  0  0  0  0
   -2.6976   -0.3994    0.9043 C   0  0  0  0  0  0  0  0  0  0  0  0
   -1.8495   -1.1150    1.3981 O   0  0  0  0  0  0  0  0  0  0  0  0
   -2.4081    0.8505    0.3779 N   0  0  0  0  0  0  0  0  0  0  0  0
   -3.1955    1.3174   -0.0589 H   0  0  0  0  0  0  0  0  0  0  0  0
   -1.1127    1.5723    0.3803 C   0  0  1  0  0  0  0  0  0  0  0  0
   -0.9517    1.9850   -0.6198 H   0  0  0  0  0  0  0  0  0  0  0  0
   -1.2388    2.7389    1.3860 C   0  0  0  0  0  0  0  0  0  0  0  0
   -1.5313    2.3353    2.3627 H   0  0  0  0  0  0  0  0  0  0  0  0
   -0.2541    3.2058    1.5072 H   0  0  0  0  0  0  0  0  0  0  0  0
   -2.2306    3.8278    0.9603 C   0  0  0  0  0  0  0  0  0  0  0  0
   -1.9225    4.2587    0.0016 H   0  0  0  0  0  0  0  0  0  0  0  0
   -3.2324    3.4022    0.8443 H   0  0  0  0  0  0  0  0  0  0  0  0
   -2.2469    4.9045    2.0445 C   0  0  0  0  0  0  0  0  0  0  0  0
   -2.5262    4.4393    2.9966 H   0  0  0  0  0  0  0  0  0  0  0  0
   -1.2381    5.3208    2.1470 H   0  0  0  0  0  0  0  0  0  0  0  0
   -3.2013    5.9769    1.7104 N   0  3  0  0  0  0  0  0  0  0  0  0
   -3.6891    5.9093    0.8186 H   0  0  0  0  0  0  0  0  0  0  0  0
   -3.4451    6.9842    2.4993 C   0  0  0  0  0  0  0  0  0  0  0  0
   -2.8189    7.1194    3.7180 N   0  0  0  0  0  0  0  0  0  0  0  0
   -2.2684    6.3355    4.0639 H   0  0  0  0  0  0  0  0  0  0  0  0
   -3.1991    7.7758    4.3970 H   0  0  0  0  0  0  0  0  0  0  0  0
   -4.3464    7.9474    2.1141 N   0  0  0  0  0  0  0  0  0  0  0  0
   -4.6680    7.9590    1.1483 H   0  0  0  0  0  0  0  0  0  0  0  0
   -4.3702    8.8231    2.6338 H   0  0  0  0  0  0  0  0  0  0  0  0
    0.1732    0.7602    0.7157 C   0  0  0  0  0  0  0  0  0  0  0  0
    0.6011    0.7205    1.8641 O   0  0  0  0  0  0  0  0  0  0  0  0
    1.0392    0.4170   -0.3088 N   0  0  0  0  0  0  0  0  0  0  0  0
    0.6466    0.3741   -1.2441 H   0  0  0  0  0  0  0  0  0  0  0  0
    2.3055   -0.2678   -0.0665 C   0  0  0  0  0  0  0  0  0  0  0  0
    2.1292   -1.2419    0.4025 H   0  0  0  0  0  0  0  0  0  0  0  0
    2.8382   -0.4269   -1.0091 H   0  0  0  0  0  0  0  0  0  0  0  0
    2.9462    0.3279    0.5924 H   0  0  0  0  0  0  0  0  0  0  0  0
  1  2  1  0  0  0  0
  2  3  1  0  0  0  0
  2  4  1  0  0  0  0
  2  5  1  0  0  0  0
  5  6  2  0  0  0  0
  5  7  1  0  0  0  0
  7  8  1  0  0  0  0
  7  9  1  0  0  0  0
  9 10  1  0  0  0  0
  9 11  1  0  0  0  0
  9 29  1  0  0  0  0
 11 12  1  0  0  0  0
 11 13  1  0  0  0  0
 11 14  1  0  0  0  0
 14 15  1  0  0  0  0
 14 16  1  0  0  0  0
 14 17  1  0  0  0  0
 17 18  1  0  0  0  0
 17 19  1  0  0  0  0
 17 20  1  0  0  0  0
 20 21  1  0  0  0  0
 20 22  2  0  0  0  0
 22 23  1  0  0  0  0
 22 26  1  0  0  0  0
 23 24  1  0  0  0  0
 23 25  1  0  0  0  0
 26 27  1  0  0  0  0
 26 28  1  0  0  0  0
 29 30  2  0  0  0  0
 29 31  1  0  0  0  0
 31 32  1  0  0  0  0
 31 33  1  0  0  0  0
 33 34  1  0  0  0  0
 33 35  1  0  0  0  0
 33 36  1  0  0  0  0
M  CHG  1  20   1
M  END
$$$$

  -OEChem-02172215453D

 36 35  0     1  0  0  0  0  0999 V2000
   -4.2281   -1.8798    1.3084 H   0  0  0  0  0  0  0  0  0  0  0  0
   -4.1522   -0.8871    0.8548 C   0  0  0  0  0  0  0  0  0  0  0  0
   -4.7689   -0.1928    1.4299 H   0  0  0  0  0  0  0  0  0  0  0  0
   -4.5280   -0.9417   -0.1697 H   0  0  0  0  0  0  0  0  0  0  0  0
   -2.7072   -0.4250    0.8548 C   0  0  0  0  0  0  0  0  0  0  0  0
   -1.8521   -1.1983    1.2361 O   0  0  0  0  0  0  0  0  0  0  0  0
   -2.4088    0.8266    0.3372 N   0  0  0  0  0  0  0  0  0  0  0  0
   -3.2122    1.3334   -0.0176 H   0  0  0  0  0  0  0  0  0  0  0  0
   -1.1144    1.5507    0.3603 C   0  0  1  0  0  0  0  0  0  0  0  0
   -0.9472    1.9653   -0.6380 H   0  0  0  0  0  0  0  0  0  0  0  0
   -1.2429    2.7142    1.3687 C   0  0  0  0  0  0  0  0  0  0  0  0
   -1.5477    2.3072    2.3402 H   0  0  0  0  0  0  0  0  0  0  0  0
   -0.2563    3.1730    1.5029 H   0  0  0  0  0  0  0  0  0  0  0  0
   -2.2260    3.8109    0.9417 C   0  0  0  0  0  0  0  0  0  0  0  0
   -1.9099    4.2445   -0.0132 H   0  0  0  0  0  0  0  0  0  0  0  0
   -3.2294    3.3917    0.8172 H   0  0  0  0  0  0  0  0  0  0  0  0
   -2.2422    4.8821    2.0321 C   0  0  0  0  0  0  0  0  0  0  0  0
   -2.5283    4.4142    2.9809 H   0  0  0  0  0  0  0  0  0  0  0  0
   -1.2314    5.2917    2.1414 H   0  0  0  0  0  0  0  0  0  0  0  0
   -3.1877    5.9634    1.7009 N   0  3  0  0  0  0  0  0  0  0  0  0
   -3.6768    5.9025    0.8092 H   0  0  0  0  0  0  0  0  0  0  0  0
   -3.4280    6.9671    2.4957 C   0  0  0  0  0  0  0  0  0  0  0  0
   -2.8062    7.0898    3.7181 N   0  0  0  0  0  0  0  0  0  0  0  0
   -2.2590    6.3019    4.0605 H   0  0  0  0  0  0  0  0  0  0  0  0
   -3.1828    7.7460    4.3993 H   0  0  0  0  0  0  0  0  0  0  0  0
   -4.3256    7.9364    2.1158 N   0  0  0  0  0  0  0  0  0  0  0  0
   -4.6484    7.9558    1.1504 H   0  0  0  0  0  0  0  0  0  0  0  0
   -4.3537    8.8058    2.6458 H   0  0  0  0  0  0  0  0  0  0  0  0
    0.1752    0.7526    0.7126 C   0  0  0  0  0  0  0  0  0  0  0  0
    0.4704    0.5570    1.8865 O   0  0  0  0  0  0  0  0  0  0  0  0
    1.2015    0.6864   -0.2155 N   0  0  0  0  0  0  0  0  0  0  0  0
    0.9452    0.7950   -1.1920 H   0  0  0  0  0  0  0  0  0  0  0  0
    2.4936    0.0776    0.0894 C   0  0  0  0  0  0  0  0  0  0  0  0
    2.3619   -0.9642    0.4015 H   0  0  0  0  0  0  0  0  0  0  0  0
    3.1405    0.0954   -0.7930 H   0  0  0  0  0  0  0  0  0  0  0  0
    2.9961    0.6242    0.8947 H   0  0  0  0  0  0  0  0  0  0  0  0
  1  2  1  0  0  0  0
  2  3  1  0  0  0  0
  2  4  1  0  0  0  0
  2  5  1  0  0  0  0
  5  6  2  0  0  0  0
  5  7  1  0  0  0  0
  7  8  1  0  0  0  0
  7  9  1  0  0  0  0
  9 10  1  0  0  0  0
  9 11  1  0  0  0  0
  9 29  1  0  0  0  0
 11 12  1  0  0  0  0
 11 13  1  0  0  0  0
 11 14  1  0  0  0  0
 14 15  1  0  0  0  0
 14 16  1  0  0  0  0
 14 17  1  0  0  0  0
 17 18  1  0  0  0  0
 17 19  1  0  0  0  0
 17 20  1  0  0  0  0
 20 21  1  0  0  0  0
 20 22  2  0  0  0  0
 22 23  1  0  0  0  0
 22 26  1  0  0  0  0
 23 24  1  0  0  0  0
 23 25  1  0  0  0  0
 26 27  1  0  0  0  0
 26 28  1  0  0  0  0
 29 30  2  0  0  0  0
 29 31  1  0  0  0  0
 31 32  1  0  0  0  0
 31 33  1  0  0  0  0
 33 34  1  0  0  0  0
 33 35  1  0  0  0  0
 33 36  1  0  0  0  0
M  CHG  1  20   1
M  END
$$$$

  -OEChem-02172215453D

 36 35  0     1  0  0  0  0  0999 V2000
   -4.2899   -1.8199    1.3118 H   0  0  0  0  0  0  0  0  0  0  0  0
   -4.1932   -0.8298    0.8561 C   0  0  0  0  0  0  0  0  0  0  0  0
   -4.7461   -0.1110    1.4642 H   0  0  0  0  0  0  0  0  0  0  0  0
   -4.6243   -0.8620   -0.1472 H   0  0  0  0  0  0  0  0  0  0  0  0
   -2.7308   -0.4340    0.7801 C   0  0  0  0  0  0  0  0  0  0  0  0
   -1.8917   -1.2739    1.0342 O   0  0  0  0  0  0  0  0  0  0  0  0
   -2.4056    0.8195    0.2844 N   0  0  0  0  0  0  0  0  0  0  0  0
   -3.2098    1.3739    0.0143 H   0  0  0  0  0  0  0  0  0  0  0  0
   -1.1027    1.5271    0.3452 C   0  0  1  0  0  0  0  0  0  0  0  0
   -0.9149    1.9502   -0.6459 H   0  0  0  0  0  0  0  0  0  0  0  0
   -1.2392    2.6769    1.3678 C   0  0  0  0  0  0  0  0  0  0  0  0
   -1.5706    2.2589    2.3258 H   0  0  0  0  0  0  0  0  0  0  0  0
   -0.2506    3.1210    1.5326 H   0  0  0  0  0  0  0  0  0  0  0  0
   -2.2007    3.7907    0.9337 C   0  0  0  0  0  0  0  0  0  0  0  0
   -1.8582    4.2317   -0.0085 H   0  0  0  0  0  0  0  0  0  0  0  0
   -3.2052    3.3839    0.7810 H   0  0  0  0  0  0  0  0  0  0  0  0
   -2.2343    4.8517    2.0341 C   0  0  0  0  0  0  0  0  0  0  0  0
   -2.5490    4.3789    2.9717 H   0  0  0  0  0  0  0  0  0  0  0  0
   -1.2227    5.2498    2.1725 H   0  0  0  0  0  0  0  0  0  0  0  0
   -3.1619    5.9454    1.6897 N   0  3  0  0  0  0  0  0  0  0  0  0
   -3.5988    5.9183    0.7697 H   0  0  0  0  0  0  0  0  0  0  0  0
   -3.4138    6.9442    2.4874 C   0  0  0  0  0  0  0  0  0  0  0  0
   -2.8217    7.0495    3.7258 N   0  0  0  0  0  0  0  0  0  0  0  0
   -2.0585    6.4127    3.9476 H   0  0  0  0  0  0  0  0  0  0  0  0
   -2.8590    7.9421    4.2142 H   0  0  0  0  0  0  0  0  0  0  0  0
   -4.2899    7.9278    2.0938 N   0  0  0  0  0  0  0  0  0  0  0  0
   -4.8684    7.7711    1.2707 H   0  0  0  0  0  0  0  0  0  0  0  0
   -4.6271    8.5857    2.7948 H   0  0  0  0  0  0  0  0  0  0  0  0
    0.1814    0.7294    0.7167 C   0  0  0  0  0  0  0  0  0  0  0  0
    0.3510    0.3617    1.8732 O   0  0  0  0  0  0  0  0  0  0  0  0
    1.3274    0.9296   -0.0367 N   0  0  0  0  0  0  0  0  0  0  0  0
    1.1978    1.2124   -1.0030 H   0  0  0  0  0  0  0  0  0  0  0  0
    2.6276    0.3848    0.3468 C   0  0  0  0  0  0  0  0  0  0  0  0
    2.5714   -0.7043    0.4520 H   0  0  0  0  0  0  0  0  0  0  0  0
    3.3777    0.6207   -0.4141 H   0  0  0  0  0  0  0  0  0  0  0  0
    2.9589    0.8123    1.2994 H   0  0  0  0  0  0  0  0  0  0  0  0
  1  2  1  0  0  0  0
  2  3  1  0  0  0  0
  2  4  1  0  0  0  0
  2  5  1  0  0  0  0
  5  6  2  0  0  0  0
  5  7  1  0  0  0  0
  7  8  1  0  0  0  0
  7  9  1  0  0  0  0
  9 10  1  0  0  0  0
  9 11  1  0  0  0  0
  9 29  1  0  0  0  0
 11 12  1  0  0  0  0
 11 13  1  0  0  0  0
 11 14  1  0  0  0  0
 14 15  1  0  0  0  0
 14 16  1  0  0  0  0
 14 17  1  0  0  0  0
 17 18  1  0  0  0  0
 17 19  1  0  0  0  0
 17 20  1  0  0  0  0
 20 21  1  0  0  0  0
 20 22  2  0  0  0  0
 22 23  1  0  0  0  0
 22 26  1  0  0  0  0
 23 24  1  0  0  0  0
 23 25  1  0  0  0  0
 26 27  1  0  0  0  0
 26 28  1  0  0  0  0
 29 30  2  0  0  0  0
 29 31  1  0  0  0  0
 31 32  1  0  0  0  0
 31 33  1  0  0  0  0
 33 34  1  0  0  0  0
 33 35  1  0  0  0  0
 33 36  1  0  0  0  0
M  CHG  1  20   1
M  END
$$$$

  -OEChem-02172215453D

 36 35  0     1  0  0  0  0  0999 V2000
   -4.2007   -1.7588    1.4014 H   0  0  0  0  0  0  0  0  0  0  0  0
   -4.1325   -0.7356    1.0199 C   0  0  0  0  0  0  0  0  0  0  0  0
   -4.4674   -0.0500    1.8011 H   0  0  0  0  0  0  0  0  0  0  0  0
   -4.7864   -0.6406    0.1498 H   0  0  0  0  0  0  0  0  0  0  0  0
   -2.7000   -0.4233    0.6312 C   0  0  0  0  0  0  0  0  0  0  0  0
   -1.9096   -1.3413    0.5284 O   0  0  0  0  0  0  0  0  0  0  0  0
   -2.3877    0.8444    0.1666 N   0  0  0  0  0  0  0  0  0  0  0  0
   -3.1958    1.4531    0.1226 H   0  0  0  0  0  0  0  0  0  0  0  0
   -1.0791    1.5343    0.2834 C   0  0  1  0  0  0  0  0  0  0  0  0
   -0.8595    1.9795   -0.6912 H   0  0  0  0  0  0  0  0  0  0  0  0
   -1.2358    2.6542    1.3360 C   0  0  0  0  0  0  0  0  0  0  0  0
   -1.5969    2.2127    2.2724 H   0  0  0  0  0  0  0  0  0  0  0  0
   -0.2497    3.0872    1.5416 H   0  0  0  0  0  0  0  0  0  0  0  0
   -2.1759    3.7871    0.9006 C   0  0  0  0  0  0  0  0  0  0  0  0
   -1.7986    4.2496   -0.0182 H   0  0  0  0  0  0  0  0  0  0  0  0
   -3.1776    3.3935    0.7017 H   0  0  0  0  0  0  0  0  0  0  0  0
   -2.2436    4.8235    2.0229 C   0  0  0  0  0  0  0  0  0  0  0  0
   -2.5940    4.3315    2.9376 H   0  0  0  0  0  0  0  0  0  0  0  0
   -1.2363    5.2142    2.2058 H   0  0  0  0  0  0  0  0  0  0  0  0
   -3.1545    5.9277    1.6675 N   0  3  0  0  0  0  0  0  0  0  0  0
   -3.5562    5.9214    0.7310 H   0  0  0  0  0  0  0  0  0  0  0  0
   -3.4334    6.9115    2.4748 C   0  0  0  0  0  0  0  0  0  0  0  0
   -2.8886    6.9911    3.7367 N   0  0  0  0  0  0  0  0  0  0  0  0
   -2.1414    6.3430    3.9785 H   0  0  0  0  0  0  0  0  0  0  0  0
   -2.9399    7.8746    4.2402 H   0  0  0  0  0  0  0  0  0  0  0  0
   -4.2894    7.9063    2.0657 N   0  0  0  0  0  0  0  0  0  0  0  0
   -4.8307    7.7710    1.2140 H   0  0  0  0  0  0  0  0  0  0  0  0
   -4.6541    8.5511    2.7650 H   0  0  0  0  0  0  0  0  0  0  0  0
    0.1867    0.7165    0.6690 C   0  0  0  0  0  0  0  0  0  0  0  0
    0.2150    0.1405    1.7499 O   0  0  0  0  0  0  0  0  0  0  0  0
    1.4148    1.1370    0.1819 N   0  0  0  0  0  0  0  0  0  0  0  0
    1.4137    1.5980   -0.7224 H   0  0  0  0  0  0  0  0  0  0  0  0
    2.6821    0.5956    0.6671 C   0  0  0  0  0  0  0  0  0  0  0  0
    2.6977   -0.4950    0.5654 H   0  0  0  0  0  0  0  0  0  0  0  0
    3.5169    1.0078    0.0922 H   0  0  0  0  0  0  0  0  0  0  0  0
    2.8315    0.8518    1.7214 H   0  0  0  0  0  0  0  0  0  0  0  0
  1  2  1  0  0  0  0
  2  3  1  0  0  0  0
  2  4  1  0  0  0  0
  2  5  1  0  0  0  0
  5  6  2  0  0  0  0
  5  7  1  0  0  0  0
  7  8  1  0  0  0  0
  7  9  1  0  0  0  0
  9 10  1  0  0  0  0
  9 11  1  0  0  0  0
  9 29  1  0  0  0  0
 11 12  1  0  0  0  0
 11 13  1  0  0  0  0
 11 14  1  0  0  0  0
 14 15  1  0  0  0  0
 14 16  1  0  0  0  0
 14 17  1  0  0  0  0
 17 18  1  0  0  0  0
 17 19  1  0  0  0  0
 17 20  1  0  0  0  0
 20 21  1  0  0  0  0
 20 22  2  0  0  0  0
 22 23  1  0  0  0  0
 22 26  1  0  0  0  0
 23 24  1  0  0  0  0
 23 25  1  0  0  0  0
 26 27  1  0  0  0  0
 26 28  1  0  0  0  0
 29 30  2  0  0  0  0
 29 31  1  0  0  0  0
 31 32  1  0  0  0  0
 31 33  1  0  0  0  0
 33 34  1  0  0  0  0
 33 35  1  0  0  0  0
 33 36  1  0  0  0  0
M  CHG  1  20   1
M  END
$$$$

  -OEChem-02172215453D

 36 35  0     1  0  0  0  0  0999 V2000
   -3.8496   -2.0969    1.2963 H   0  0  0  0  0  0  0  0  0  0  0  0
   -3.6234   -1.3171    0.5633 C   0  0  0  0  0  0  0  0  0  0  0  0
   -4.5614   -0.9171    0.1728 H   0  0  0  0  0  0  0  0  0  0  0  0
   -3.0523   -1.7632   -0.2545 H   0  0  0  0  0  0  0  0  0  0  0  0
   -2.8108   -0.2155    1.2156 C   0  0  0  0  0  0  0  0  0  0  0  0
   -2.6001   -0.2377    2.4173 O   0  0  0  0  0  0  0  0  0  0  0  0
   -2.5653    0.9717    0.5505 N   0  0  0  0  0  0  0  0  0  0  0  0
   -3.0460    0.9780   -0.3437 H   0  0  0  0  0  0  0  0  0  0  0  0
   -1.2229    1.6023    0.4850 C   0  0  1  0  0  0  0  0  0  0  0  0
   -1.0649    1.9790   -0.5297 H   0  0  0  0  0  0  0  0  0  0  0  0
   -1.2869    2.7765    1.4868 C   0  0  0  0  0  0  0  0  0  0  0  0
   -1.5848    2.3899    2.4689 H   0  0  0  0  0  0  0  0  0  0  0  0
   -0.2892    3.2138    1.6001 H   0  0  0  0  0  0  0  0  0  0  0  0
   -2.2501    3.8917    1.0568 C   0  0  0  0  0  0  0  0  0  0  0  0
   -1.9453    4.2950    0.0855 H   0  0  0  0  0  0  0  0  0  0  0  0
   -3.2651    3.4914    0.9604 H   0  0  0  0  0  0  0  0  0  0  0  0
   -2.2320    4.9914    2.1173 C   0  0  0  0  0  0  0  0  0  0  0  0
   -2.5203    4.5545    3.0802 H   0  0  0  0  0  0  0  0  0  0  0  0
   -1.2136    5.3858    2.2067 H   0  0  0  0  0  0  0  0  0  0  0  0
   -3.1632    6.0770    1.7591 N   0  3  0  0  0  0  0  0  0  0  0  0
   -3.6747    5.9835    0.8827 H   0  0  0  0  0  0  0  0  0  0  0  0
   -3.3827    7.1103    2.5211 C   0  0  0  0  0  0  0  0  0  0  0  0
   -2.7502    7.2645    3.7341 N   0  0  0  0  0  0  0  0  0  0  0  0
   -2.2411    6.4655    4.1070 H   0  0  0  0  0  0  0  0  0  0  0  0
   -3.1261    7.9402    4.3963 H   0  0  0  0  0  0  0  0  0  0  0  0
   -4.2707    8.0784    2.1172 N   0  0  0  0  0  0  0  0  0  0  0  0
   -4.6096    8.0654    1.1574 H   0  0  0  0  0  0  0  0  0  0  0  0
   -4.2837    8.9657    2.6170 H   0  0  0  0  0  0  0  0  0  0  0  0
    0.0516    0.7783    0.8541 C   0  0  0  0  0  0  0  0  0  0  0  0
    0.0223   -0.4118    1.1269 O   0  0  0  0  0  0  0  0  0  0  0  0
    1.2888    1.2870    0.4883 N   0  0  0  0  0  0  0  0  0  0  0  0
    1.3284    2.2373    0.1350 H   0  0  0  0  0  0  0  0  0  0  0  0
    2.5311    0.5214    0.5697 C   0  0  0  0  0  0  0  0  0  0  0  0
    2.4988   -0.3367   -0.1104 H   0  0  0  0  0  0  0  0  0  0  0  0
    3.3838    1.1491    0.2932 H   0  0  0  0  0  0  0  0  0  0  0  0
    2.6904    0.1547    1.5897 H   0  0  0  0  0  0  0  0  0  0  0  0
  1  2  1  0  0  0  0
  2  3  1  0  0  0  0
  2  4  1  0  0  0  0
  2  5  1  0  0  0  0
  5  6  2  0  0  0  0
  5  7  1  0  0  0  0
  7  8  1  0  0  0  0
  7  9  1  0  0  0  0
  9 10  1  0  0  0  0
  9 11  1  0  0  0  0
  9 29  1  0  0  0  0
 11 12  1  0  0  0  0
 11 13  1  0  0  0  0
 11 14  1  0  0  0  0
 14 15  1  0  0  0  0
 14 16  1  0  0  0  0
 14 17  1  0  0  0  0
 17 18  1  0  0  0  0
 17 19  1  0  0  0  0
 17 20  1  0  0  0  0
 20 21  1  0  0  0  0
 20 22  2  0  0  0  0
 22 23  1  0  0  0  0
 22 26  1  0  0  0  0
 23 24  1  0  0  0  0
 23 25  1  0  0  0  0
 26 27  1  0  0  0  0
 26 28  1  0  0  0  0
 29 30  2  0  0  0  0
 29 31  1  0  0  0  0
 31 32  1  0  0  0  0
 31 33  1  0  0  0  0
 33 34  1  0  0  0  0
 33 35  1  0  0  0  0
 33 36  1  0  0  0  0
M  CHG  1  20   1
M  END
$$$$

  -OEChem-02172215453D

 36 35  0     1  0  0  0  0  0999 V2000
   -3.6586   -2.1939    1.1413 H   0  0  0  0  0  0  0  0  0  0  0  0
   -3.6512   -1.2829    0.5362 C   0  0  0  0  0  0  0  0  0  0  0  0
   -4.6637   -0.8758    0.4959 H   0  0  0  0  0  0  0  0  0  0  0  0
   -3.3235   -1.5396   -0.4743 H   0  0  0  0  0  0  0  0  0  0  0  0
   -2.7012   -0.2680    1.1412 C   0  0  0  0  0  0  0  0  0  0  0  0
   -2.2133   -0.4649    2.2437 O   0  0  0  0  0  0  0  0  0  0  0  0
   -2.5164    0.9670    0.5405 N   0  0  0  0  0  0  0  0  0  0  0  0
   -3.0357    1.0343   -0.3303 H   0  0  0  0  0  0  0  0  0  0  0  0
   -1.1924    1.6353    0.5045 C   0  0  1  0  0  0  0  0  0  0  0  0
   -1.1358    2.2562   -0.3946 H   0  0  0  0  0  0  0  0  0  0  0  0
   -1.1179    2.5369    1.7598 C   0  0  0  0  0  0  0  0  0  0  0  0
   -1.2978    1.9340    2.6566 H   0  0  0  0  0  0  0  0  0  0  0  0
   -0.1112    2.9564    1.8506 H   0  0  0  0  0  0  0  0  0  0  0  0
   -2.1152    3.7018    1.7100 C   0  0  0  0  0  0  0  0  0  0  0  0
   -1.9207    4.3213    0.8280 H   0  0  0  0  0  0  0  0  0  0  0  0
   -3.1364    3.3118    1.6379 H   0  0  0  0  0  0  0  0  0  0  0  0
   -1.9738    4.5343    2.9832 C   0  0  0  0  0  0  0  0  0  0  0  0
   -2.1547    3.8870    3.8488 H   0  0  0  0  0  0  0  0  0  0  0  0
   -0.9506    4.9214    3.0478 H   0  0  0  0  0  0  0  0  0  0  0  0
   -2.9367    5.6508    2.9786 N   0  3  0  0  0  0  0  0  0  0  0  0
   -3.5338    5.7484    2.1586 H   0  0  0  0  0  0  0  0  0  0  0  0
   -3.0716    6.4848    3.9695 C   0  0  0  0  0  0  0  0  0  0  0  0
   -2.3113    6.3823    5.1125 N   0  0  0  0  0  0  0  0  0  0  0  0
   -1.7649    5.5331    5.2440 H   0  0  0  0  0  0  0  0  0  0  0  0
   -2.6126    6.8879    5.9433 H   0  0  0  0  0  0  0  0  0  0  0  0
   -3.9955    7.4988    3.8844 N   0  0  0  0  0  0  0  0  0  0  0  0
   -4.4355    7.6900    2.9864 H   0  0  0  0  0  0  0  0  0  0  0  0
   -3.9543    8.2532    4.5676 H   0  0  0  0  0  0  0  0  0  0  0  0
    0.0581    0.7035    0.4684 C   0  0  0  0  0  0  0  0  0  0  0  0
   -0.0394   -0.4561    0.0884 O   0  0  0  0  0  0  0  0  0  0  0  0
    1.3290    1.2560    0.4377 N   0  0  0  0  0  0  0  0  0  0  0  0
    1.4239    2.2443    0.6451 H   0  0  0  0  0  0  0  0  0  0  0  0
    2.5373    0.4768    0.1781 C   0  0  0  0  0  0  0  0  0  0  0  0
    2.5122    0.0552   -0.8324 H   0  0  0  0  0  0  0  0  0  0  0  0
    3.4254    1.1103    0.2658 H   0  0  0  0  0  0  0  0  0  0  0  0
    2.6270   -0.3436    0.8984 H   0  0  0  0  0  0  0  0  0  0  0  0
  1  2  1  0  0  0  0
  2  3  1  0  0  0  0
  2  4  1  0  0  0  0
  2  5  1  0  0  0  0
  5  6  2  0  0  0  0
  5  7  1  0  0  0  0
  7  8  1  0  0  0  0
  7  9  1  0  0  0  0
  9 10  1  0  0  0  0
  9 11  1  0  0  0  0
  9 29  1  0  0  0  0
 11 12  1  0  0  0  0
 11 13  1  0  0  0  0
 11 14  1  0  0  0  0
 14 15  1  0  0  0  0
 14 16  1  0  0  0  0
 14 17  1  0  0  0  0
 17 18  1  0  0  0  0
 17 19  1  0  0  0  0
 17 20  1  0  0  0  0
 20 21  1  0  0  0  0
 20 22  2  0  0  0  0
 22 23  1  0  0  0  0
 22 26  1  0  0  0  0
 23 24  1  0  0  0  0
 23 25  1  0  0  0  0
 26 27  1  0  0  0  0
 26 28  1  0  0  0  0
 29 30  2  0  0  0  0
 29 31  1  0  0  0  0
 31 32  1  0  0  0  0
 31 33  1  0  0  0  0
 33 34  1  0  0  0  0
 33 35  1  0  0  0  0
 33 36  1  0  0  0  0
M  CHG  1  20   1
M  END
$$$$

  -OEChem-02172215453D

 36 35  0     1  0  0  0  0  0999 V2000
   -3.6225   -2.1871    1.1399 H   0  0  0  0  0  0  0  0  0  0  0  0
   -3.6335   -1.2664    0.5497 C   0  0  0  0  0  0  0  0  0  0  0  0
   -4.6456   -0.8561    0.5524 H   0  0  0  0  0  0  0  0  0  0  0  0
   -3.3435   -1.5075   -0.4760 H   0  0  0  0  0  0  0  0  0  0  0  0
   -2.6590   -0.2637    1.1355 C   0  0  0  0  0  0  0  0  0  0  0  0
   -2.1089   -0.4928    2.2021 O   0  0  0  0  0  0  0  0  0  0  0  0
   -2.5001    0.9837    0.5531 N   0  0  0  0  0  0  0  0  0  0  0  0
   -3.0376    1.0655   -0.3054 H   0  0  0  0  0  0  0  0  0  0  0  0
   -1.1821    1.6617    0.5113 C   0  0  1  0  0  0  0  0  0  0  0  0
   -1.1300    2.2884   -0.3841 H   0  0  0  0  0  0  0  0  0  0  0  0
   -1.1092    2.5611    1.7689 C   0  0  0  0  0  0  0  0  0  0  0  0
   -1.2800    1.9545    2.6653 H   0  0  0  0  0  0  0  0  0  0  0  0
   -0.1088    2.9950    1.8552 H   0  0  0  0  0  0  0  0  0  0  0  0
   -2.1184    3.7168    1.7214 C   0  0  0  0  0  0  0  0  0  0  0  0
   -1.9292    4.3385    0.8397 H   0  0  0  0  0  0  0  0  0  0  0  0
   -3.1363    3.3183    1.6487 H   0  0  0  0  0  0  0  0  0  0  0  0
   -1.9848    4.5529    2.9930 C   0  0  0  0  0  0  0  0  0  0  0  0
   -2.1577    3.9051    3.8596 H   0  0  0  0  0  0  0  0  0  0  0  0
   -0.9661    4.9514    3.0559 H   0  0  0  0  0  0  0  0  0  0  0  0
   -2.9602    5.6586    2.9862 N   0  3  0  0  0  0  0  0  0  0  0  0
   -3.5580    5.7474    2.1656 H   0  0  0  0  0  0  0  0  0  0  0  0
   -3.1048    6.4941    3.9746 C   0  0  0  0  0  0  0  0  0  0  0  0
   -2.3437    6.4048    5.1184 N   0  0  0  0  0  0  0  0  0  0  0  0
   -1.7904    5.5612    5.2554 H   0  0  0  0  0  0  0  0  0  0  0  0
   -2.6464    6.9158    5.9453 H   0  0  0  0  0  0  0  0  0  0  0  0
   -4.0380    7.4993    3.8844 N   0  0  0  0  0  0  0  0  0  0  0  0
   -4.4792    7.6817    2.9852 H   0  0  0  0  0  0  0  0  0  0  0  0
   -3.9998    8.2600    4.5605 H   0  0  0  0  0  0  0  0  0  0  0  0
    0.0497    0.7073    0.4422 C   0  0  0  0  0  0  0  0  0  0  0  0
   -0.0511   -0.3501   -0.1682 O   0  0  0  0  0  0  0  0  0  0  0  0
    1.3323    1.1609    0.7067 N   0  0  0  0  0  0  0  0  0  0  0  0
    1.4321    2.0514    1.1810 H   0  0  0  0  0  0  0  0  0  0  0  0
    2.5266    0.3483    0.4891 C   0  0  0  0  0  0  0  0  0  0  0  0
    2.6300    0.0921   -0.5709 H   0  0  0  0  0  0  0  0  0  0  0  0
    3.4216    0.8962    0.7989 H   0  0  0  0  0  0  0  0  0  0  0  0
    2.4707   -0.5790    1.0695 H   0  0  0  0  0  0  0  0  0  0  0  0
  1  2  1  0  0  0  0
  2  3  1  0  0  0  0
  2  4  1  0  0  0  0
  2  5  1  0  0  0  0
  5  6  2  0  0  0  0
  5  7  1  0  0  0  0
  7  8  1  0  0  0  0
  7  9  1  0  0  0  0
  9 10  1  0  0  0  0
  9 11  1  0  0  0  0
  9 29  1  0  0  0  0
 11 12  1  0  0  0  0
 11 13  1  0  0  0  0
 11 14  1  0  0  0  0
 14 15  1  0  0  0  0
 14 16  1  0  0  0  0
 14 17  1  0  0  0  0
 17 18  1  0  0  0  0
 17 19  1  0  0  0  0
 17 20  1  0  0  0  0
 20 21  1  0  0  0  0
 20 22  2  0  0  0  0
 22 23  1  0  0  0  0
 22 26  1  0  0  0  0
 23 24  1  0  0  0  0
 23 25  1  0  0  0  0
 26 27  1  0  0  0  0
 26 28  1  0  0  0  0
 29 30  2  0  0  0  0
 29 31  1  0  0  0  0
 31 32  1  0  0  0  0
 31 33  1  0  0  0  0
 33 34  1  0  0  0  0
 33 35  1  0  0  0  0
 33 36  1  0  0  0  0
M  CHG  1  20   1
M  END
$$$$

  -OEChem-02172215453D

 36 35  0     1  0  0  0  0  0999 V2000
   -3.5758   -2.1960    1.1227 H   0  0  0  0  0  0  0  0  0  0  0  0
   -3.5947   -1.2712    0.5392 C   0  0  0  0  0  0  0  0  0  0  0  0
   -4.6080   -0.8644    0.5545 H   0  0  0  0  0  0  0  0  0  0  0  0
   -3.3142   -1.5037   -0.4913 H   0  0  0  0  0  0  0  0  0  0  0  0
   -2.6182   -0.2690    1.1225 C   0  0  0  0  0  0  0  0  0  0  0  0
   -2.0201   -0.5234    2.1571 O   0  0  0  0  0  0  0  0  0  0  0  0
   -2.4903    0.9929    0.5641 N   0  0  0  0  0  0  0  0  0  0  0  0
   -3.0434    1.0872   -0.2832 H   0  0  0  0  0  0  0  0  0  0  0  0
   -1.1834    1.6899    0.5192 C   0  0  1  0  0  0  0  0  0  0  0  0
   -1.1445    2.3224   -0.3731 H   0  0  0  0  0  0  0  0  0  0  0  0
   -1.0994    2.5882    1.7763 C   0  0  0  0  0  0  0  0  0  0  0  0
   -1.2508    1.9800    2.6752 H   0  0  0  0  0  0  0  0  0  0  0  0
   -0.1027    3.0346    1.8431 H   0  0  0  0  0  0  0  0  0  0  0  0
   -2.1216    3.7328    1.7389 C   0  0  0  0  0  0  0  0  0  0  0  0
   -1.9508    4.3528    0.8522 H   0  0  0  0  0  0  0  0  0  0  0  0
   -3.1353    3.3213    1.6797 H   0  0  0  0  0  0  0  0  0  0  0  0
   -1.9859    4.5775    3.0048 C   0  0  0  0  0  0  0  0  0  0  0  0
   -2.1402    3.9344    3.8783 H   0  0  0  0  0  0  0  0  0  0  0  0
   -0.9728    4.9917    3.0538 H   0  0  0  0  0  0  0  0  0  0  0  0
   -2.9773    5.6690    2.9977 N   0  3  0  0  0  0  0  0  0  0  0  0
   -3.5827    5.7421    2.1811 H   0  0  0  0  0  0  0  0  0  0  0  0
   -3.1280    6.5112    3.9794 C   0  0  0  0  0  0  0  0  0  0  0  0
   -2.3579    6.4438    5.1182 N   0  0  0  0  0  0  0  0  0  0  0  0
   -1.7838    5.6141    5.2549 H   0  0  0  0  0  0  0  0  0  0  0  0
   -2.6659    6.9520    5.9449 H   0  0  0  0  0  0  0  0  0  0  0  0
   -4.0784    7.4999    3.8871 N   0  0  0  0  0  0  0  0  0  0  0  0
   -4.5283    7.6672    2.9891 H   0  0  0  0  0  0  0  0  0  0  0  0
   -4.0484    8.2675    4.5563 H   0  0  0  0  0  0  0  0  0  0  0  0
    0.0389    0.7286    0.4139 C   0  0  0  0  0  0  0  0  0  0  0  0
   -0.0314   -0.2065   -0.3745 O   0  0  0  0  0  0  0  0  0  0  0  0
    1.2815    1.0361    0.9435 N   0  0  0  0  0  0  0  0  0  0  0  0
    1.3186    1.7640    1.6485 H   0  0  0  0  0  0  0  0  0  0  0  0
    2.4376    0.1559    0.7974 C   0  0  0  0  0  0  0  0  0  0  0  0
    2.6900    0.0242   -0.2603 H   0  0  0  0  0  0  0  0  0  0  0  0
    3.3069    0.5820    1.3073 H   0  0  0  0  0  0  0  0  0  0  0  0
    2.2273   -0.8272    1.2325 H   0  0  0  0  0  0  0  0  0  0  0  0
  1  2  1  0  0  0  0
  2  3  1  0  0  0  0
  2  4  1  0  0  0  0
  2  5  1  0  0  0  0
  5  6  2  0  0  0  0
  5  7  1  0  0  0  0
  7  8  1  0  0  0  0
  7  9  1  0  0  0  0
  9 10  1  0  0  0  0
  9 11  1  0  0  0  0
  9 29  1  0  0  0  0
 11 12  1  0  0  0  0
 11 13  1  0  0  0  0
 11 14  1  0  0  0  0
 14 15  1  0  0  0  0
 14 16  1  0  0  0  0
 14 17  1  0  0  0  0
 17 18  1  0  0  0  0
 17 19  1  0  0  0  0
 17 20  1  0  0  0  0
 20 21  1  0  0  0  0
 20 22  2  0  0  0  0
 22 23  1  0  0  0  0
 22 26  1  0  0  0  0
 23 24  1  0  0  0  0
 23 25  1  0  0  0  0
 26 27  1  0  0  0  0
 26 28  1  0  0  0  0
 29 30  2  0  0  0  0
 29 31  1  0  0  0  0
 31 32  1  0  0  0  0
 31 33  1  0  0  0  0
 33 34  1  0  0  0  0
 33 35  1  0  0  0  0
 33 36  1  0  0  0  0
M  CHG  1  20   1
M  END
$$$$

  -OEChem-02172215453D

 36 35  0     1  0  0  0  0  0999 V2000
   -3.5747   -2.1958    1.1198 H   0  0  0  0  0  0  0  0  0  0  0  0
   -3.5960   -1.2677    0.5416 C   0  0  0  0  0  0  0  0  0  0  0  0
   -4.6041   -0.8496    0.5812 H   0  0  0  0  0  0  0  0  0  0  0  0
   -3.3410   -1.4978   -0.4961 H   0  0  0  0  0  0  0  0  0  0  0  0
   -2.5963   -0.2791    1.1088 C   0  0  0  0  0  0  0  0  0  0  0  0
   -1.9696   -0.5520    2.1215 O   0  0  0  0  0  0  0  0  0  0  0  0
   -2.4788    0.9884    0.5621 N   0  0  0  0  0  0  0  0  0  0  0  0
   -3.0397    1.0922   -0.2793 H   0  0  0  0  0  0  0  0  0  0  0  0
   -1.1799    1.6979    0.5244 C   0  0  1  0  0  0  0  0  0  0  0  0
   -1.1441    2.3313   -0.3675 H   0  0  0  0  0  0  0  0  0  0  0  0
   -1.0983    2.5991    1.7780 C   0  0  0  0  0  0  0  0  0  0  0  0
   -1.2453    1.9913    2.6781 H   0  0  0  0  0  0  0  0  0  0  0  0
   -0.1018    3.0492    1.8369 H   0  0  0  0  0  0  0  0  0  0  0  0
   -2.1259    3.7388    1.7411 C   0  0  0  0  0  0  0  0  0  0  0  0
   -1.9600    4.3584    0.8529 H   0  0  0  0  0  0  0  0  0  0  0  0
   -3.1375    3.3222    1.6845 H   0  0  0  0  0  0  0  0  0  0  0  0
   -1.9910    4.5865    3.0049 C   0  0  0  0  0  0  0  0  0  0  0  0
   -2.1409    3.9439    3.8798 H   0  0  0  0  0  0  0  0  0  0  0  0
   -0.9792    5.0046    3.0510 H   0  0  0  0  0  0  0  0  0  0  0  0
   -2.9872    5.6739    2.9991 N   0  3  0  0  0  0  0  0  0  0  0  0
   -3.5936    5.7447    2.1831 H   0  0  0  0  0  0  0  0  0  0  0  0
   -3.1384    6.5168    3.9802 C   0  0  0  0  0  0  0  0  0  0  0  0
   -2.3645    6.4540    5.1168 N   0  0  0  0  0  0  0  0  0  0  0  0
   -1.7935    5.6232    5.2582 H   0  0  0  0  0  0  0  0  0  0  0  0
   -2.6616    6.9752    5.9394 H   0  0  0  0  0  0  0  0  0  0  0  0
   -4.0910    7.5036    3.8873 N   0  0  0  0  0  0  0  0  0  0  0  0
   -4.5376    7.6716    2.9879 H   0  0  0  0  0  0  0  0  0  0  0  0
   -4.0616    8.2716    4.5557 H   0  0  0  0  0  0  0  0  0  0  0  0
    0.0422    0.7405    0.4126 C   0  0  0  0  0  0  0  0  0  0  0  0
    0.0457   -0.0640   -0.5105 O   0  0  0  0  0  0  0  0  0  0  0  0
    1.1879    0.8775    1.1786 N   0  0  0  0  0  0  0  0  0  0  0  0
    1.1057    1.4304    2.0250 H   0  0  0  0  0  0  0  0  0  0  0  0
    2.3161   -0.0423    1.0667 C   0  0  0  0  0  0  0  0  0  0  0  0
    2.7121   -0.0442    0.0454 H   0  0  0  0  0  0  0  0  0  0  0  0
    3.1207    0.2588    1.7443 H   0  0  0  0  0  0  0  0  0  0  0  0
    2.0070   -1.0609    1.3252 H   0  0  0  0  0  0  0  0  0  0  0  0
  1  2  1  0  0  0  0
  2  3  1  0  0  0  0
  2  4  1  0  0  0  0
  2  5  1  0  0  0  0
  5  6  2  0  0  0  0
  5  7  1  0  0  0  0
  7  8  1  0  0  0  0
  7  9  1  0  0  0  0
  9 10  1  0  0  0  0
  9 11  1  0  0  0  0
  9 29  1  0  0  0  0
 11 12  1  0  0  0  0
 11 13  1  0  0  0  0
 11 14  1  0  0  0  0
 14 15  1  0  0  0  0
 14 16  1  0  0  0  0
 14 17  1  0  0  0  0
 17 18  1  0  0  0  0
 17 19  1  0  0  0  0
 17 20  1  0  0  0  0
 20 21  1  0  0  0  0
 20 22  2  0  0  0  0
 22 23  1  0  0  0  0
 22 26  1  0  0  0  0
 23 24  1  0  0  0  0
 23 25  1  0  0  0  0
 26 27  1  0  0  0  0
 26 28  1  0  0  0  0
 29 30  2  0  0  0  0
 29 31  1  0  0  0  0
 31 32  1  0  0  0  0
 31 33  1  0  0  0  0
 33 34  1  0  0  0  0
 33 35  1  0  0  0  0
 33 36  1  0  0  0  0
M  CHG  1  20   1
M  END
$$$$

  -OEChem-02172215453D

 36 35  0     1  0  0  0  0  0999 V2000
   -3.5354   -2.2164    1.0785 H   0  0  0  0  0  0  0  0  0  0  0  0
   -3.5919   -1.2675    0.5376 C   0  0  0  0  0  0  0  0  0  0  0  0
   -4.6031   -0.8661    0.6345 H   0  0  0  0  0  0  0  0  0  0  0  0
   -3.3785   -1.4547   -0.5177 H   0  0  0  0  0  0  0  0  0  0  0  0
   -2.5821   -0.2869    1.1009 C   0  0  0  0  0  0  0  0  0  0  0  0
   -1.9341   -0.5778    2.0950 O   0  0  0  0  0  0  0  0  0  0  0  0
   -2.4703    0.9858    0.5658 N   0  0  0  0  0  0  0  0  0  0  0  0
   -3.0408    1.1038   -0.2674 H   0  0  0  0  0  0  0  0  0  0  0  0
   -1.1774    1.7047    0.5336 C   0  0  1  0  0  0  0  0  0  0  0  0
   -1.1470    2.3405   -0.3570 H   0  0  0  0  0  0  0  0  0  0  0  0
   -1.0904    2.6060    1.7852 C   0  0  0  0  0  0  0  0  0  0  0  0
   -1.2365    1.9997    2.6865 H   0  0  0  0  0  0  0  0  0  0  0  0
   -0.0913    3.0523    1.8388 H   0  0  0  0  0  0  0  0  0  0  0  0
   -2.1208    3.7423    1.7504 C   0  0  0  0  0  0  0  0  0  0  0  0
   -1.9589    4.3596    0.8603 H   0  0  0  0  0  0  0  0  0  0  0  0
   -3.1317    3.3233    1.6983 H   0  0  0  0  0  0  0  0  0  0  0  0
   -1.9849    4.5950    3.0106 C   0  0  0  0  0  0  0  0  0  0  0  0
   -2.1302    3.9565    3.8894 H   0  0  0  0  0  0  0  0  0  0  0  0
   -0.9748    5.0182    3.0510 H   0  0  0  0  0  0  0  0  0  0  0  0
   -2.9867    5.6769    2.9999 N   0  3  0  0  0  0  0  0  0  0  0  0
   -3.5924    5.7411    2.1828 H   0  0  0  0  0  0  0  0  0  0  0  0
   -3.1416    6.5251    3.9758 C   0  0  0  0  0  0  0  0  0  0  0  0
   -2.3665    6.4744    5.1123 N   0  0  0  0  0  0  0  0  0  0  0  0
   -1.7753    5.6572    5.2508 H   0  0  0  0  0  0  0  0  0  0  0  0
   -2.6711    6.9900    5.9357 H   0  0  0  0  0  0  0  0  0  0  0  0
   -4.1030    7.5029    3.8790 N   0  0  0  0  0  0  0  0  0  0  0  0
   -4.5595    7.6574    2.9819 H   0  0  0  0  0  0  0  0  0  0  0  0
   -4.0798    8.2756    4.5422 H   0  0  0  0  0  0  0  0  0  0  0  0
    0.0478    0.7561    0.4141 C   0  0  0  0  0  0  0  0  0  0  0  0
    0.1534    0.1054   -0.6172 O   0  0  0  0  0  0  0  0  0  0  0  0
    1.0557    0.6934    1.3613 N   0  0  0  0  0  0  0  0  0  0  0  0
    0.8203    1.0533    2.2806 H   0  0  0  0  0  0  0  0  0  0  0  0
    2.1333   -0.2873    1.2743 C   0  0  0  0  0  0  0  0  0  0  0  0
    2.6885   -0.1674    0.3378 H   0  0  0  0  0  0  0  0  0  0  0  0
    2.8327   -0.1591    2.1061 H   0  0  0  0  0  0  0  0  0  0  0  0
    1.7282   -1.3044    1.3138 H   0  0  0  0  0  0  0  0  0  0  0  0
  1  2  1  0  0  0  0
  2  3  1  0  0  0  0
  2  4  1  0  0  0  0
  2  5  1  0  0  0  0
  5  6  2  0  0  0  0
  5  7  1  0  0  0  0
  7  8  1  0  0  0  0
  7  9  1  0  0  0  0
  9 10  1  0  0  0  0
  9 11  1  0  0  0  0
  9 29  1  0  0  0  0
 11 12  1  0  0  0  0
 11 13  1  0  0  0  0
 11 14  1  0  0  0  0
 14 15  1  0  0  0  0
 14 16  1  0  0  0  0
 14 17  1  0  0  0  0
 17 18  1  0  0  0  0
 17 19  1  0  0  0  0
 17 20  1  0  0  0  0
 20 21  1  0  0  0  0
 20 22  2  0  0  0  0
 22 23  1  0  0  0  0
 22 26  1  0  0  0  0
 23 24  1  0  0  0  0
 23 25  1  0  0  0  0
 26 27  1  0  0  0  0
 26 28  1  0  0  0  0
 29 30  2  0  0  0  0
 29 31  1  0  0  0  0
 31 32  1  0  0  0  0
 31 33  1  0  0  0  0
 33 34  1  0  0  0  0
 33 35  1  0  0  0  0
 33 36  1  0  0  0  0
M  CHG  1  20   1
M  END
$$$$

  -OEChem-02172215453D

 36 35  0     1  0  0  0  0  0999 V2000
   -3.6795   -2.1619    1.0920 H   0  0  0  0  0  0  0  0  0  0  0  0
   -3.6498   -1.2438    0.4985 C   0  0  0  0  0  0  0  0  0  0  0  0
   -4.6392   -0.7814    0.5169 H   0  0  0  0  0  0  0  0  0  0  0  0
   -3.3927   -1.5019   -0.5321 H   0  0  0  0  0  0  0  0  0  0  0  0
   -2.6148   -0.2915    1.0653 C   0  0  0  0  0  0  0  0  0  0  0  0
   -1.9782   -0.6006    2.0613 O   0  0  0  0  0  0  0  0  0  0  0  0
   -2.4702    0.9784    0.5332 N   0  0  0  0  0  0  0  0  0  0  0  0
   -3.0320    1.1166   -0.3032 H   0  0  0  0  0  0  0  0  0  0  0  0
   -1.1726    1.6879    0.5331 C   0  0  1  0  0  0  0  0  0  0  0  0
   -1.1212    2.3249   -0.3560 H   0  0  0  0  0  0  0  0  0  0  0  0
   -1.1012    2.5879    1.7856 C   0  0  0  0  0  0  0  0  0  0  0  0
   -1.2742    1.9827    2.6825 H   0  0  0  0  0  0  0  0  0  0  0  0
   -0.0954    3.0166    1.8597 H   0  0  0  0  0  0  0  0  0  0  0  0
   -2.1167    3.7364    1.7365 C   0  0  0  0  0  0  0  0  0  0  0  0
   -1.9320    4.3555    0.8519 H   0  0  0  0  0  0  0  0  0  0  0  0
   -3.1314    3.3300    1.6663 H   0  0  0  0  0  0  0  0  0  0  0  0
   -1.9868    4.5797    3.0034 C   0  0  0  0  0  0  0  0  0  0  0  0
   -2.1530    3.9379    3.8760 H   0  0  0  0  0  0  0  0  0  0  0  0
   -0.9709    4.9860    3.0593 H   0  0  0  0  0  0  0  0  0  0  0  0
   -2.9705    5.6778    2.9910 N   0  3  0  0  0  0  0  0  0  0  0  0
   -3.5479    5.7765    2.1572 H   0  0  0  0  0  0  0  0  0  0  0  0
   -3.1203    6.5184    3.9743 C   0  0  0  0  0  0  0  0  0  0  0  0
   -2.3566    6.4418    5.1172 N   0  0  0  0  0  0  0  0  0  0  0  0
   -1.5553    5.8137    5.1151 H   0  0  0  0  0  0  0  0  0  0  0  0
   -2.3384    7.2401    5.7489 H   0  0  0  0  0  0  0  0  0  0  0  0
   -4.0646    7.5127    3.8813 N   0  0  0  0  0  0  0  0  0  0  0  0
   -4.7513    7.4690    3.1310 H   0  0  0  0  0  0  0  0  0  0  0  0
   -4.3108    8.0289    4.7241 H   0  0  0  0  0  0  0  0  0  0  0  0
    0.0586    0.7453    0.4485 C   0  0  0  0  0  0  0  0  0  0  0  0
    0.3452    0.2908   -0.6501 O   0  0  0  0  0  0  0  0  0  0  0  0
    0.8676    0.4681    1.5370 N   0  0  0  0  0  0  0  0  0  0  0  0
    0.4217    0.5971    2.4416 H   0  0  0  0  0  0  0  0  0  0  0  0
    1.9530   -0.5043    1.4597 C   0  0  0  0  0  0  0  0  0  0  0  0
    2.6529   -0.2393    0.6599 H   0  0  0  0  0  0  0  0  0  0  0  0
    2.5063   -0.5312    2.4033 H   0  0  0  0  0  0  0  0  0  0  0  0
    1.5558   -1.5055    1.2607 H   0  0  0  0  0  0  0  0  0  0  0  0
  1  2  1  0  0  0  0
  2  3  1  0  0  0  0
  2  4  1  0  0  0  0
  2  5  1  0  0  0  0
  5  6  2  0  0  0  0
  5  7  1  0  0  0  0
  7  8  1  0  0  0  0
  7  9  1  0  0  0  0
  9 10  1  0  0  0  0
  9 11  1  0  0  0  0
  9 29  1  0  0  0  0
 11 12  1  0  0  0  0
 11 13  1  0  0  0  0
 11 14  1  0  0  0  0
 14 15  1  0  0  0  0
 14 16  1  0  0  0  0
 14 17  1  0  0  0  0
 17 18  1  0  0  0  0
 17 19  1  0  0  0  0
 17 20  1  0  0  0  0
 20 21  1  0  0  0  0
 20 22  2  0  0  0  0
 22 23  1  0  0  0  0
 22 26  1  0  0  0  0
 23 24  1  0  0  0  0
 23 25  1  0  0  0  0
 26 27  1  0  0  0  0
 26 28  1  0  0  0  0
 29 30  2  0  0  0  0
 29 31  1  0  0  0  0
 31 32  1  0  0  0  0
 31 33  1  0  0  0  0
 33 34  1  0  0  0  0
 33 35  1  0  0  0  0
 33 36  1  0  0  0  0
M  CHG  1  20   1
M  END
$$$$

  -OEChem-02172215453D

 36 35  0     1  0  0  0  0  0999 V2000
   -3.7371   -2.1788    1.0117 H   0  0  0  0  0  0  0  0  0  0  0  0
   -3.7679   -1.2044    0.5153 C   0  0  0  0  0  0  0  0  0  0  0  0
   -4.7427   -0.7470    0.6988 H   0  0  0  0  0  0  0  0  0  0  0  0
   -3.6389   -1.3570   -0.5590 H   0  0  0  0  0  0  0  0  0  0  0  0
   -2.6640   -0.3127    1.0503 C   0  0  0  0  0  0  0  0  0  0  0  0
   -2.0261   -0.6565    2.0334 O   0  0  0  0  0  0  0  0  0  0  0  0
   -2.4763    0.9530    0.5223 N   0  0  0  0  0  0  0  0  0  0  0  0
   -3.0528    1.1304   -0.2966 H   0  0  0  0  0  0  0  0  0  0  0  0
   -1.1730    1.6537    0.5342 C   0  0  1  0  0  0  0  0  0  0  0  0
   -1.1167    2.2919   -0.3542 H   0  0  0  0  0  0  0  0  0  0  0  0
   -1.1034    2.5530    1.7862 C   0  0  0  0  0  0  0  0  0  0  0  0
   -1.2886    1.9491    2.6816 H   0  0  0  0  0  0  0  0  0  0  0  0
   -0.0927    2.9689    1.8691 H   0  0  0  0  0  0  0  0  0  0  0  0
   -2.1081    3.7104    1.7303 C   0  0  0  0  0  0  0  0  0  0  0  0
   -1.9112    4.3277    0.8470 H   0  0  0  0  0  0  0  0  0  0  0  0
   -3.1259    3.3135    1.6532 H   0  0  0  0  0  0  0  0  0  0  0  0
   -1.9795    4.5521    2.9983 C   0  0  0  0  0  0  0  0  0  0  0  0
   -2.1573    3.9118    3.8698 H   0  0  0  0  0  0  0  0  0  0  0  0
   -0.9601    4.9490    3.0612 H   0  0  0  0  0  0  0  0  0  0  0  0
   -2.9536    5.6587    2.9780 N   0  3  0  0  0  0  0  0  0  0  0  0
   -3.5188    5.7660    2.1370 H   0  0  0  0  0  0  0  0  0  0  0  0
   -3.1041    6.5008    3.9596 C   0  0  0  0  0  0  0  0  0  0  0  0
   -2.3499    6.4173    5.1082 N   0  0  0  0  0  0  0  0  0  0  0  0
   -1.5539    5.7827    5.1107 H   0  0  0  0  0  0  0  0  0  0  0  0
   -2.3284    7.2157    5.7395 H   0  0  0  0  0  0  0  0  0  0  0  0
   -4.0391    7.5032    3.8580 N   0  0  0  0  0  0  0  0  0  0  0  0
   -4.7211    7.4631    3.1032 H   0  0  0  0  0  0  0  0  0  0  0  0
   -4.2883    8.0216    4.6984 H   0  0  0  0  0  0  0  0  0  0  0  0
    0.0743    0.7319    0.4690 C   0  0  0  0  0  0  0  0  0  0  0  0
    0.5713    0.5248   -0.6287 O   0  0  0  0  0  0  0  0  0  0  0  0
    0.6887    0.2332    1.6037 N   0  0  0  0  0  0  0  0  0  0  0  0
    0.0617    0.1344    2.4016 H   0  0  0  0  0  0  0  0  0  0  0  0
    1.8169   -0.6888    1.5269 C   0  0  0  0  0  0  0  0  0  0  0  0
    2.6517   -0.2315    0.9849 H   0  0  0  0  0  0  0  0  0  0  0  0
    2.1620   -0.9482    2.5324 H   0  0  0  0  0  0  0  0  0  0  0  0
    1.5252   -1.6096    1.0105 H   0  0  0  0  0  0  0  0  0  0  0  0
  1  2  1  0  0  0  0
  2  3  1  0  0  0  0
  2  4  1  0  0  0  0
  2  5  1  0  0  0  0
  5  6  2  0  0  0  0
  5  7  1  0  0  0  0
  7  8  1  0  0  0  0
  7  9  1  0  0  0  0
  9 10  1  0  0  0  0
  9 11  1  0  0  0  0
  9 29  1  0  0  0  0
 11 12  1  0  0  0  0
 11 13  1  0  0  0  0
 11 14  1  0  0  0  0
 14 15  1  0  0  0  0
 14 16  1  0  0  0  0
 14 17  1  0  0  0  0
 17 18  1  0  0  0  0
 17 19  1  0  0  0  0
 17 20  1  0  0  0  0
 20 21  1  0  0  0  0
 20 22  2  0  0  0  0
 22 23  1  0  0  0  0
 22 26  1  0  0  0  0
 23 24  1  0  0  0  0
 23 25  1  0  0  0  0
 26 27  1  0  0  0  0
 26 28  1  0  0  0  0
 29 30  2  0  0  0  0
 29 31  1  0  0  0  0
 31 32  1  0  0  0  0
 31 33  1  0  0  0  0
 33 34  1  0  0  0  0
 33 35  1  0  0  0  0
 33 36  1  0  0  0  0
M  CHG  1  20   1
M  END
$$$$

  -OEChem-02172215453D

 36 35  0     1  0  0  0  0  0999 V2000
   -3.8716   -2.1526    0.9958 H   0  0  0  0  0  0  0  0  0  0  0  0
   -3.8726   -1.1729    0.5093 C   0  0  0  0  0  0  0  0  0  0  0  0
   -4.8305   -0.6842    0.7031 H   0  0  0  0  0  0  0  0  0  0  0  0
   -3.7553   -1.3194   -0.5673 H   0  0  0  0  0  0  0  0  0  0  0  0
   -2.7359   -0.3246    1.0463 C   0  0  0  0  0  0  0  0  0  0  0  0
   -2.1245   -0.6902    2.0372 O   0  0  0  0  0  0  0  0  0  0  0  0
   -2.4981    0.9294    0.5118 N   0  0  0  0  0  0  0  0  0  0  0  0
   -3.0775    1.1281   -0.2999 H   0  0  0  0  0  0  0  0  0  0  0  0
   -1.1873    1.6199    0.5245 C   0  0  1  0  0  0  0  0  0  0  0  0
   -1.1319    2.2553   -0.3658 H   0  0  0  0  0  0  0  0  0  0  0  0
   -1.1177    2.5202    1.7744 C   0  0  0  0  0  0  0  0  0  0  0  0
   -1.3079    1.9175    2.6696 H   0  0  0  0  0  0  0  0  0  0  0  0
   -0.1044    2.9289    1.8614 H   0  0  0  0  0  0  0  0  0  0  0  0
   -2.1124    3.6855    1.7158 C   0  0  0  0  0  0  0  0  0  0  0  0
   -1.9070    4.3021    0.8341 H   0  0  0  0  0  0  0  0  0  0  0  0
   -3.1333    3.2978    1.6350 H   0  0  0  0  0  0  0  0  0  0  0  0
   -1.9773    4.5227    2.9863 C   0  0  0  0  0  0  0  0  0  0  0  0
   -2.1620    3.8815    3.8559 H   0  0  0  0  0  0  0  0  0  0  0  0
   -0.9539    4.9088    3.0513 H   0  0  0  0  0  0  0  0  0  0  0  0
   -2.9396    5.6397    2.9704 N   0  3  0  0  0  0  0  0  0  0  0  0
   -3.5028    5.7571    2.1294 H   0  0  0  0  0  0  0  0  0  0  0  0
   -3.0811    6.4794    3.9557 C   0  0  0  0  0  0  0  0  0  0  0  0
   -2.3286    6.3838    5.1044 N   0  0  0  0  0  0  0  0  0  0  0  0
   -1.5396    5.7402    5.1057 H   0  0  0  0  0  0  0  0  0  0  0  0
   -2.2992    7.1795    5.7389 H   0  0  0  0  0  0  0  0  0  0  0  0
   -4.0056    7.4918    3.8586 N   0  0  0  0  0  0  0  0  0  0  0  0
   -4.6869    7.4629    3.1026 H   0  0  0  0  0  0  0  0  0  0  0  0
   -4.2527    8.0050    4.7028 H   0  0  0  0  0  0  0  0  0  0  0  0
    0.0824    0.7274    0.4843 C   0  0  0  0  0  0  0  0  0  0  0  0
    0.7588    0.7479   -0.5340 O   0  0  0  0  0  0  0  0  0  0  0  0
    0.5299    0.0124    1.5796 N   0  0  0  0  0  0  0  0  0  0  0  0
   -0.1994   -0.2090    2.2610 H   0  0  0  0  0  0  0  0  0  0  0  0
    1.6817   -0.8802    1.5107 C   0  0  0  0  0  0  0  0  0  0  0  0
    2.5807   -0.3283    1.2161 H   0  0  0  0  0  0  0  0  0  0  0  0
    1.8646   -1.3372    2.4879 H   0  0  0  0  0  0  0  0  0  0  0  0
    1.5051   -1.6784    0.7822 H   0  0  0  0  0  0  0  0  0  0  0  0
  1  2  1  0  0  0  0
  2  3  1  0  0  0  0
  2  4  1  0  0  0  0
  2  5  1  0  0  0  0
  5  6  2  0  0  0  0
  5  7  1  0  0  0  0
  7  8  1  0  0  0  0
  7  9  1  0  0  0  0
  9 10  1  0  0  0  0
  9 11  1  0  0  0  0
  9 29  1  0  0  0  0
 11 12  1  0  0  0  0
 11 13  1  0  0  0  0
 11 14  1  0  0  0  0
 14 15  1  0  0  0  0
 14 16  1  0  0  0  0
 14 17  1  0  0  0  0
 17 18  1  0  0  0  0
 17 19  1  0  0  0  0
 17 20  1  0  0  0  0
 20 21  1  0  0  0  0
 20 22  2  0  0  0  0
 22 23  1  0  0  0  0
 22 26  1  0  0  0  0
 23 24  1  0  0  0  0
 23 25  1  0  0  0  0
 26 27  1  0  0  0  0
 26 28  1  0  0  0  0
 29 30  2  0  0  0  0
 29 31  1  0  0  0  0
 31 32  1  0  0  0  0
 31 33  1  0  0  0  0
 33 34  1  0  0  0  0
 33 35  1  0  0  0  0
 33 36  1  0  0  0  0
M  CHG  1  20   1
M  END
$$$$

  -OEChem-02172215453D

 36 35  0     1  0  0  0  0  0999 V2000
   -4.0127   -2.1217    0.9834 H   0  0  0  0  0  0  0  0  0  0  0  0
   -3.9698   -1.1466    0.4893 C   0  0  0  0  0  0  0  0  0  0  0  0
   -4.9140   -0.6241    0.6592 H   0  0  0  0  0  0  0  0  0  0  0  0
   -3.8356   -1.3058   -0.5834 H   0  0  0  0  0  0  0  0  0  0  0  0
   -2.8165   -0.3324    1.0435 C   0  0  0  0  0  0  0  0  0  0  0  0
   -2.2416   -0.7116    2.0499 O   0  0  0  0  0  0  0  0  0  0  0  0
   -2.5314    0.9087    0.5035 N   0  0  0  0  0  0  0  0  0  0  0  0
   -3.1093    1.1235   -0.3053 H   0  0  0  0  0  0  0  0  0  0  0  0
   -1.2125    1.5878    0.5136 C   0  0  1  0  0  0  0  0  0  0  0  0
   -1.1577    2.2193   -0.3800 H   0  0  0  0  0  0  0  0  0  0  0  0
   -1.1390    2.4897    1.7620 C   0  0  0  0  0  0  0  0  0  0  0  0
   -1.3325    1.8879    2.6573 H   0  0  0  0  0  0  0  0  0  0  0  0
   -0.1231    2.8921    1.8502 H   0  0  0  0  0  0  0  0  0  0  0  0
   -2.1235    3.6639    1.7038 C   0  0  0  0  0  0  0  0  0  0  0  0
   -1.9135    4.2796    0.8223 H   0  0  0  0  0  0  0  0  0  0  0  0
   -3.1482    3.2855    1.6237 H   0  0  0  0  0  0  0  0  0  0  0  0
   -1.9782    4.4969    2.9760 C   0  0  0  0  0  0  0  0  0  0  0  0
   -2.1666    3.8554    3.8444 H   0  0  0  0  0  0  0  0  0  0  0  0
   -0.9507    4.8726    3.0398 H   0  0  0  0  0  0  0  0  0  0  0  0
   -2.9283    5.6239    2.9660 N   0  3  0  0  0  0  0  0  0  0  0  0
   -3.4924    5.7499    2.1267 H   0  0  0  0  0  0  0  0  0  0  0  0
   -3.0577    6.4614    3.9547 C   0  0  0  0  0  0  0  0  0  0  0  0
   -2.3022    6.3524    5.1001 N   0  0  0  0  0  0  0  0  0  0  0  0
   -1.5202    5.7002    5.0949 H   0  0  0  0  0  0  0  0  0  0  0  0
   -2.2605    7.1453    5.7375 H   0  0  0  0  0  0  0  0  0  0  0  0
   -3.9708    7.4850    3.8641 N   0  0  0  0  0  0  0  0  0  0  0  0
   -4.6542    7.4666    3.1095 H   0  0  0  0  0  0  0  0  0  0  0  0
   -4.2099    7.9978    4.7112 H   0  0  0  0  0  0  0  0  0  0  0  0
    0.0768    0.7205    0.4928 C   0  0  0  0  0  0  0  0  0  0  0  0
    0.8857    0.9379   -0.3980 O   0  0  0  0  0  0  0  0  0  0  0  0
    0.3963   -0.2043    1.4681 N   0  0  0  0  0  0  0  0  0  0  0  0
   -0.3734   -0.4832    2.0813 H   0  0  0  0  0  0  0  0  0  0  0  0
    1.5719   -1.0646    1.4008 C   0  0  0  0  0  0  0  0  0  0  0  0
    2.4864   -0.4637    1.3591 H   0  0  0  0  0  0  0  0  0  0  0  0
    1.6220   -1.7059    2.2862 H   0  0  0  0  0  0  0  0  0  0  0  0
    1.5299   -1.7031    0.5122 H   0  0  0  0  0  0  0  0  0  0  0  0
  1  2  1  0  0  0  0
  2  3  1  0  0  0  0
  2  4  1  0  0  0  0
  2  5  1  0  0  0  0
  5  6  2  0  0  0  0
  5  7  1  0  0  0  0
  7  8  1  0  0  0  0
  7  9  1  0  0  0  0
  9 10  1  0  0  0  0
  9 11  1  0  0  0  0
  9 29  1  0  0  0  0
 11 12  1  0  0  0  0
 11 13  1  0  0  0  0
 11 14  1  0  0  0  0
 14 15  1  0  0  0  0
 14 16  1  0  0  0  0
 14 17  1  0  0  0  0
 17 18  1  0  0  0  0
 17 19  1  0  0  0  0
 17 20  1  0  0  0  0
 20 21  1  0  0  0  0
 20 22  2  0  0  0  0
 22 23  1  0  0  0  0
 22 26  1  0  0  0  0
 23 24  1  0  0  0  0
 23 25  1  0  0  0  0
 26 27  1  0  0  0  0
 26 28  1  0  0  0  0
 29 30  2  0  0  0  0
 29 31  1  0  0  0  0
 31 32  1  0  0  0  0
 31 33  1  0  0  0  0
 33 34  1  0  0  0  0
 33 35  1  0  0  0  0
 33 36  1  0  0  0  0
M  CHG  1  20   1
M  END
$$$$

  -OEChem-02172215453D

 36 35  0     1  0  0  0  0  0999 V2000
   -4.1541   -2.0752    0.9814 H   0  0  0  0  0  0  0  0  0  0  0  0
   -4.0845   -1.0970    0.4967 C   0  0  0  0  0  0  0  0  0  0  0  0
   -5.0045   -0.5410    0.6920 H   0  0  0  0  0  0  0  0  0  0  0  0
   -3.9789   -1.2491   -0.5803 H   0  0  0  0  0  0  0  0  0  0  0  0
   -2.8903   -0.3330    1.0357 C   0  0  0  0  0  0  0  0  0  0  0  0
   -2.3208   -0.7375    2.0349 O   0  0  0  0  0  0  0  0  0  0  0  0
   -2.5667    0.8980    0.4954 N   0  0  0  0  0  0  0  0  0  0  0  0
   -3.1531    1.1392   -0.2997 H   0  0  0  0  0  0  0  0  0  0  0  0
   -1.2363    1.5573    0.4977 C   0  0  1  0  0  0  0  0  0  0  0  0
   -1.1831    2.1893   -0.3957 H   0  0  0  0  0  0  0  0  0  0  0  0
   -1.1560    2.4542    1.7494 C   0  0  0  0  0  0  0  0  0  0  0  0
   -1.3547    1.8499    2.6420 H   0  0  0  0  0  0  0  0  0  0  0  0
   -0.1370    2.8487    1.8408 H   0  0  0  0  0  0  0  0  0  0  0  0
   -2.1279    3.6388    1.6942 C   0  0  0  0  0  0  0  0  0  0  0  0
   -1.9091    4.2559    0.8160 H   0  0  0  0  0  0  0  0  0  0  0  0
   -3.1568    3.2726    1.6118 H   0  0  0  0  0  0  0  0  0  0  0  0
   -1.9764    4.4652    2.9696 C   0  0  0  0  0  0  0  0  0  0  0  0
   -2.1746    3.8227    3.8350 H   0  0  0  0  0  0  0  0  0  0  0  0
   -0.9451    4.8291    3.0373 H   0  0  0  0  0  0  0  0  0  0  0  0
   -2.9151    5.6018    2.9599 N   0  3  0  0  0  0  0  0  0  0  0  0
   -3.4729    5.7375    2.1181 H   0  0  0  0  0  0  0  0  0  0  0  0
   -3.0398    6.4382    3.9500 C   0  0  0  0  0  0  0  0  0  0  0  0
   -2.2902    6.3195    5.0982 N   0  0  0  0  0  0  0  0  0  0  0  0
   -1.5219    5.6514    5.0986 H   0  0  0  0  0  0  0  0  0  0  0  0
   -2.2344    7.1147    5.7314 H   0  0  0  0  0  0  0  0  0  0  0  0
   -3.9367    7.4752    3.8541 N   0  0  0  0  0  0  0  0  0  0  0  0
   -4.6110    7.4723    3.0914 H   0  0  0  0  0  0  0  0  0  0  0  0
   -4.1743    7.9916    4.6992 H   0  0  0  0  0  0  0  0  0  0  0  0
    0.0639    0.7035    0.4767 C   0  0  0  0  0  0  0  0  0  0  0  0
    0.9692    1.0942   -0.2468 O   0  0  0  0  0  0  0  0  0  0  0  0
    0.2898   -0.4115    1.2592 N   0  0  0  0  0  0  0  0  0  0  0  0
   -0.4921   -0.7365    1.8323 H   0  0  0  0  0  0  0  0  0  0  0  0
    1.5063   -1.2143    1.2044 C   0  0  0  0  0  0  0  0  0  0  0  0
    2.3793   -0.6081    1.4685 H   0  0  0  0  0  0  0  0  0  0  0  0
    1.4395   -2.0489    1.9091 H   0  0  0  0  0  0  0  0  0  0  0  0
    1.6520   -1.6222    0.1985 H   0  0  0  0  0  0  0  0  0  0  0  0
  1  2  1  0  0  0  0
  2  3  1  0  0  0  0
  2  4  1  0  0  0  0
  2  5  1  0  0  0  0
  5  6  2  0  0  0  0
  5  7  1  0  0  0  0
  7  8  1  0  0  0  0
  7  9  1  0  0  0  0
  9 10  1  0  0  0  0
  9 11  1  0  0  0  0
  9 29  1  0  0  0  0
 11 12  1  0  0  0  0
 11 13  1  0  0  0  0
 11 14  1  0  0  0  0
 14 15  1  0  0  0  0
 14 16  1  0  0  0  0
 14 17  1  0  0  0  0
 17 18  1  0  0  0  0
 17 19  1  0  0  0  0
 17 20  1  0  0  0  0
 20 21  1  0  0  0  0
 20 22  2  0  0  0  0
 22 23  1  0  0  0  0
 22 26  1  0  0  0  0
 23 24  1  0  0  0  0
 23 25  1  0  0  0  0
 26 27  1  0  0  0  0
 26 28  1  0  0  0  0
 29 30  2  0  0  0  0
 29 31  1  0  0  0  0
 31 32  1  0  0  0  0
 31 33  1  0  0  0  0
 33 34  1  0  0  0  0
 33 35  1  0  0  0  0
 33 36  1  0  0  0  0
M  CHG  1  20   1
M  END
$$$$

  -OEChem-02172215453D

 36 35  0     1  0  0  0  0  0999 V2000
   -3.2617   -1.5411   -0.5115 H   0  0  0  0  0  0  0  0  0  0  0  0
   -3.5896   -1.2059    0.4753 C   0  0  0  0  0  0  0  0  0  0  0  0
   -4.5294   -0.6581    0.3743 H   0  0  0  0  0  0  0  0  0  0  0  0
   -3.7616   -2.0843    1.1041 H   0  0  0  0  0  0  0  0  0  0  0  0
   -2.5308   -0.3181    1.1009 C   0  0  0  0  0  0  0  0  0  0  0  0
   -2.0676   -0.6088    2.1885 O   0  0  0  0  0  0  0  0  0  0  0  0
   -2.2456    0.9118    0.5426 N   0  0  0  0  0  0  0  0  0  0  0  0
   -2.7785    1.0852   -0.3051 H   0  0  0  0  0  0  0  0  0  0  0  0
   -0.9497    1.6318    0.6072 C   0  0  1  0  0  0  0  0  0  0  0  0
   -0.8791    2.2572   -0.2887 H   0  0  0  0  0  0  0  0  0  0  0  0
   -1.0343    2.5432    1.8552 C   0  0  0  0  0  0  0  0  0  0  0  0
   -1.2636    1.9302    2.7341 H   0  0  0  0  0  0  0  0  0  0  0  0
   -0.0591    3.0099    2.0343 H   0  0  0  0  0  0  0  0  0  0  0  0
   -2.0690    3.6662    1.7186 C   0  0  0  0  0  0  0  0  0  0  0  0
   -1.8203    4.2974    0.8588 H   0  0  0  0  0  0  0  0  0  0  0  0
   -3.0650    3.2401    1.5594 H   0  0  0  0  0  0  0  0  0  0  0  0
   -2.0608    4.4927    3.0028 C   0  0  0  0  0  0  0  0  0  0  0  0
   -2.2846    3.8336    3.8491 H   0  0  0  0  0  0  0  0  0  0  0  0
   -1.0593    4.9135    3.1475 H   0  0  0  0  0  0  0  0  0  0  0  0
   -3.0587    5.5750    2.9311 N   0  3  0  0  0  0  0  0  0  0  0  0
   -3.5636    5.6860    2.0532 H   0  0  0  0  0  0  0  0  0  0  0  0
   -3.2976    6.3924    3.9160 C   0  0  0  0  0  0  0  0  0  0  0  0
   -2.6230    6.3014    5.1127 N   0  0  0  0  0  0  0  0  0  0  0  0
   -1.8211    5.6756    5.1623 H   0  0  0  0  0  0  0  0  0  0  0  0
   -2.6595    7.0874    5.7585 H   0  0  0  0  0  0  0  0  0  0  0  0
   -4.2464    7.3762    3.7695 N   0  0  0  0  0  0  0  0  0  0  0  0
   -4.8735    7.3363    2.9685 H   0  0  0  0  0  0  0  0  0  0  0  0
   -4.5691    7.8643    4.6032 H   0  0  0  0  0  0  0  0  0  0  0  0
    0.4292    0.8972    0.6855 C   0  0  0  0  0  0  0  0  0  0  0  0
    1.4241    1.5850    0.5162 O   0  0  0  0  0  0  0  0  0  0  0  0
    0.7630   -0.3210    1.2320 N   0  0  0  0  0  0  0  0  0  0  0  0
    1.7448   -0.3223    1.4996 H   0  0  0  0  0  0  0  0  0  0  0  0
    0.3231   -1.5680    0.6157 C   0  0  0  0  0  0  0  0  0  0  0  0
    1.1879   -2.1105    0.2207 H   0  0  0  0  0  0  0  0  0  0  0  0
   -0.1725   -2.2059    1.3547 H   0  0  0  0  0  0  0  0  0  0  0  0
   -0.3651   -1.3876   -0.2160 H   0  0  0  0  0  0  0  0  0  0  0  0
  1  2  1  0  0  0  0
  2  3  1  0  0  0  0
  2  4  1  0  0  0  0
  2  5  1  0  0  0  0
  5  6  2  0  0  0  0
  5  7  1  0  0  0  0
  7  8  1  0  0  0  0
  7  9  1  0  0  0  0
  9 10  1  0  0  0  0
  9 11  1  0  0  0  0
  9 29  1  0  0  0  0
 11 12  1  0  0  0  0
 11 13  1  0  0  0  0
 11 14  1  0  0  0  0
 14 15  1  0  0  0  0
 14 16  1  0  0  0  0
 14 17  1  0  0  0  0
 17 18  1  0  0  0  0
 17 19  1  0  0  0  0
 17 20  1  0  0  0  0
 20 21  1  0  0  0  0
 20 22  2  0  0  0  0
 22 23  1  0  0  0  0
 22 26  1  0  0  0  0
 23 24  1  0  0  0  0
 23 25  1  0  0  0  0
 26 27  1  0  0  0  0
 26 28  1  0  0  0  0
 29 30  2  0  0  0  0
 29 31  1  0  0  0  0
 31 32  1  0  0  0  0
 31 33  1  0  0  0  0
 33 34  1  0  0  0  0
 33 35  1  0  0  0  0
 33 36  1  0  0  0  0
M  CHG  1  20   1
M  END
$$$$

  -OEChem-02172215453D

 36 35  0     1  0  0  0  0  0999 V2000
   -3.6688   -2.3476    1.0557 H   0  0  0  0  0  0  0  0  0  0  0  0
   -3.7441   -1.4175    0.4848 C   0  0  0  0  0  0  0  0  0  0  0  0
   -4.7634   -1.0337    0.5688 H   0  0  0  0  0  0  0  0  0  0  0  0
   -3.5267   -1.6339   -0.5639 H   0  0  0  0  0  0  0  0  0  0  0  0
   -2.7566   -0.3986    1.0184 C   0  0  0  0  0  0  0  0  0  0  0  0
   -2.2050   -0.5927    2.0870 O   0  0  0  0  0  0  0  0  0  0  0  0
   -2.6870    0.8602    0.4578 N   0  0  0  0  0  0  0  0  0  0  0  0
   -3.3705    0.9651   -0.2874 H   0  0  0  0  0  0  0  0  0  0  0  0
   -1.4390    1.6201    0.2046 C   0  0  1  0  0  0  0  0  0  0  0  0
   -1.6247    2.2733   -0.6547 H   0  0  0  0  0  0  0  0  0  0  0  0
   -1.1772    2.4948    1.4485 C   0  0  0  0  0  0  0  0  0  0  0  0
   -1.1433    1.8607    2.3412 H   0  0  0  0  0  0  0  0  0  0  0  0
   -0.1958    2.9732    1.3489 H   0  0  0  0  0  0  0  0  0  0  0  0
   -2.2310    3.5939    1.6311 C   0  0  0  0  0  0  0  0  0  0  0  0
   -2.2435    4.2444    0.7497 H   0  0  0  0  0  0  0  0  0  0  0  0
   -3.2229    3.1428    1.7411 H   0  0  0  0  0  0  0  0  0  0  0  0
   -1.8935    4.4052    2.8800 C   0  0  0  0  0  0  0  0  0  0  0  0
   -1.8632    3.7297    3.7420 H   0  0  0  0  0  0  0  0  0  0  0  0
   -0.9022    4.8556    2.7567 H   0  0  0  0  0  0  0  0  0  0  0  0
   -2.9035    5.4568    3.0964 N   0  3  0  0  0  0  0  0  0  0  0  0
   -3.6485    5.5349    2.4059 H   0  0  0  0  0  0  0  0  0  0  0  0
   -2.8947    6.2605    4.1207 C   0  0  0  0  0  0  0  0  0  0  0  0
   -1.9235    6.1853    5.0935 N   0  0  0  0  0  0  0  0  0  0  0  0
   -1.2990    5.3813    5.0814 H   0  0  0  0  0  0  0  0  0  0  0  0
   -2.0834    6.6543    5.9827 H   0  0  0  0  0  0  0  0  0  0  0  0
   -3.8771    7.2137    4.2445 N   0  0  0  0  0  0  0  0  0  0  0  0
   -4.4841    7.3974    3.4480 H   0  0  0  0  0  0  0  0  0  0  0  0
   -3.7459    7.9593    4.9259 H   0  0  0  0  0  0  0  0  0  0  0  0
   -0.0999    0.8884   -0.1164 C   0  0  0  0  0  0  0  0  0  0  0  0
    0.6476    1.4436   -0.9042 O   0  0  0  0  0  0  0  0  0  0  0  0
    0.2299   -0.4370    0.0521 N   0  0  0  0  0  0  0  0  0  0  0  0
    0.9082   -0.7057   -0.6580 H   0  0  0  0  0  0  0  0  0  0  0  0
    0.5847   -0.9246    1.3811 C   0  0  0  0  0  0  0  0  0  0  0  0
    0.3292   -0.1995    2.1607 H   0  0  0  0  0  0  0  0  0  0  0  0
    0.0644   -1.8640    1.5928 H   0  0  0  0  0  0  0  0  0  0  0  0
    1.6625   -1.1077    1.4355 H   0  0  0  0  0  0  0  0  0  0  0  0
  1  2  1  0  0  0  0
  2  3  1  0  0  0  0
  2  4  1  0  0  0  0
  2  5  1  0  0  0  0
  5  6  2  0  0  0  0
  5  7  1  0  0  0  0
  7  8  1  0  0  0  0
  7  9  1  0  0  0  0
  9 10  1  0  0  0  0
  9 11  1  0  0  0  0
  9 29  1  0  0  0  0
 11 12  1  0  0  0  0
 11 13  1  0  0  0  0
 11 14  1  0  0  0  0
 14 15  1  0  0  0  0
 14 16  1  0  0  0  0
 14 17  1  0  0  0  0
 17 18  1  0  0  0  0
 17 19  1  0  0  0  0
 17 20  1  0  0  0  0
 20 21  1  0  0  0  0
 20 22  2  0  0  0  0
 22 23  1  0  0  0  0
 22 26  1  0  0  0  0
 23 24  1  0  0  0  0
 23 25  1  0  0  0  0
 26 27  1  0  0  0  0
 26 28  1  0  0  0  0
 29 30  2  0  0  0  0
 29 31  1  0  0  0  0
 31 32  1  0  0  0  0
 31 33  1  0  0  0  0
 33 34  1  0  0  0  0
 33 35  1  0  0  0  0
 33 36  1  0  0  0  0
M  CHG  1  20   1
M  END
$$$$

  -OEChem-02172215453D

 36 35  0     1  0  0  0  0  0999 V2000
   -4.3143   -1.9745    1.0582 H   0  0  0  0  0  0  0  0  0  0  0  0
   -4.2253   -0.9934    0.5826 C   0  0  0  0  0  0  0  0  0  0  0  0
   -5.0700   -0.3745    0.8937 H   0  0  0  0  0  0  0  0  0  0  0  0
   -4.2582   -1.1271   -0.5015 H   0  0  0  0  0  0  0  0  0  0  0  0
   -2.9212   -0.3335    0.9864 C   0  0  0  0  0  0  0  0  0  0  0  0
   -2.2266   -0.8511    1.8429 O   0  0  0  0  0  0  0  0  0  0  0  0
   -2.5832    0.8939    0.4473 N   0  0  0  0  0  0  0  0  0  0  0  0
   -3.2363    1.2161   -0.2618 H   0  0  0  0  0  0  0  0  0  0  0  0
   -1.2474    1.5446    0.4245 C   0  0  1  0  0  0  0  0  0  0  0  0
   -1.2022    2.1766   -0.4682 H   0  0  0  0  0  0  0  0  0  0  0  0
   -1.1705    2.4390    1.6832 C   0  0  0  0  0  0  0  0  0  0  0  0
   -1.3655    1.8245    2.5696 H   0  0  0  0  0  0  0  0  0  0  0  0
   -0.1571    2.8430    1.7853 H   0  0  0  0  0  0  0  0  0  0  0  0
   -2.1440    3.6233    1.6431 C   0  0  0  0  0  0  0  0  0  0  0  0
   -1.9283    4.2500    0.7710 H   0  0  0  0  0  0  0  0  0  0  0  0
   -3.1735    3.2603    1.5616 H   0  0  0  0  0  0  0  0  0  0  0  0
   -1.9811    4.4329    2.9284 C   0  0  0  0  0  0  0  0  0  0  0  0
   -2.1735    3.7783    3.7860 H   0  0  0  0  0  0  0  0  0  0  0  0
   -0.9479    4.7925    2.9926 H   0  0  0  0  0  0  0  0  0  0  0  0
   -2.9147    5.5737    2.9493 N   0  3  0  0  0  0  0  0  0  0  0  0
   -3.4792    5.7304    2.1158 H   0  0  0  0  0  0  0  0  0  0  0  0
   -3.0207    6.3909    3.9575 C   0  0  0  0  0  0  0  0  0  0  0  0
   -2.2554    6.2444    5.0923 N   0  0  0  0  0  0  0  0  0  0  0  0
   -1.4872    5.5765    5.0660 H   0  0  0  0  0  0  0  0  0  0  0  0
   -2.1908    7.0234    5.7445 H   0  0  0  0  0  0  0  0  0  0  0  0
   -3.9115    7.4358    3.8955 N   0  0  0  0  0  0  0  0  0  0  0  0
   -4.5988    7.4521    3.1446 H   0  0  0  0  0  0  0  0  0  0  0  0
   -4.1266    7.9426    4.7525 H   0  0  0  0  0  0  0  0  0  0  0  0
    0.0608    0.6972    0.3770 C   0  0  0  0  0  0  0  0  0  0  0  0
    1.1120    1.3045    0.2153 O   0  0  0  0  0  0  0  0  0  0  0  0
    0.1019   -0.6843    0.3536 N   0  0  0  0  0  0  0  0  0  0  0  0
   -0.7159   -1.1464    0.7529 H   0  0  0  0  0  0  0  0  0  0  0  0
    1.3503   -1.4391    0.3115 C   0  0  0  0  0  0  0  0  0  0  0  0
    1.9568   -1.2296    1.1990 H   0  0  0  0  0  0  0  0  0  0  0  0
    1.1412   -2.5129    0.2795 H   0  0  0  0  0  0  0  0  0  0  0  0
    1.9290   -1.1761   -0.5806 H   0  0  0  0  0  0  0  0  0  0  0  0
  1  2  1  0  0  0  0
  2  3  1  0  0  0  0
  2  4  1  0  0  0  0
  2  5  1  0  0  0  0
  5  6  2  0  0  0  0
  5  7  1  0  0  0  0
  7  8  1  0  0  0  0
  7  9  1  0  0  0  0
  9 10  1  0  0  0  0
  9 11  1  0  0  0  0
  9 29  1  0  0  0  0
 11 12  1  0  0  0  0
 11 13  1  0  0  0  0
 11 14  1  0  0  0  0
 14 15  1  0  0  0  0
 14 16  1  0  0  0  0
 14 17  1  0  0  0  0
 17 18  1  0  0  0  0
 17 19  1  0  0  0  0
 17 20  1  0  0  0  0
 20 21  1  0  0  0  0
 20 22  2  0  0  0  0
 22 23  1  0  0  0  0
 22 26  1  0  0  0  0
 23 24  1  0  0  0  0
 23 25  1  0  0  0  0
 26 27  1  0  0  0  0
 26 28  1  0  0  0  0
 29 30  2  0  0  0  0
 29 31  1  0  0  0  0
 31 32  1  0  0  0  0
 31 33  1  0  0  0  0
 33 34  1  0  0  0  0
 33 35  1  0  0  0  0
 33 36  1  0  0  0  0
M  CHG  1  20   1
M  END
$$$$

  -OEChem-02172215453D

 36 35  0     1  0  0  0  0  0999 V2000
   -4.2875   -1.9490    1.1008 H   0  0  0  0  0  0  0  0  0  0  0  0
   -4.2102   -0.9609    0.6377 C   0  0  0  0  0  0  0  0  0  0  0  0
   -5.0207   -0.3329    1.0148 H   0  0  0  0  0  0  0  0  0  0  0  0
   -4.3166   -1.0734   -0.4440 H   0  0  0  0  0  0  0  0  0  0  0  0
   -2.8688   -0.3340    0.9672 C   0  0  0  0  0  0  0  0  0  0  0  0
   -2.1161   -0.8995    1.7390 O   0  0  0  0  0  0  0  0  0  0  0  0
   -2.5412    0.8993    0.4338 N   0  0  0  0  0  0  0  0  0  0  0  0
   -3.2223    1.2550   -0.2317 H   0  0  0  0  0  0  0  0  0  0  0  0
   -1.2102    1.5593    0.4163 C   0  0  1  0  0  0  0  0  0  0  0  0
   -1.1597    2.1904   -0.4767 H   0  0  0  0  0  0  0  0  0  0  0  0
   -1.1522    2.4550    1.6777 C   0  0  0  0  0  0  0  0  0  0  0  0
   -1.3469    1.8373    2.5619 H   0  0  0  0  0  0  0  0  0  0  0  0
   -0.1460    2.8730    1.7903 H   0  0  0  0  0  0  0  0  0  0  0  0
   -2.1352    3.6308    1.6337 C   0  0  0  0  0  0  0  0  0  0  0  0
   -1.9181    4.2620    0.7652 H   0  0  0  0  0  0  0  0  0  0  0  0
   -3.1615    3.2600    1.5453 H   0  0  0  0  0  0  0  0  0  0  0  0
   -1.9852    4.4362    2.9233 C   0  0  0  0  0  0  0  0  0  0  0  0
   -2.1767    3.7759    3.7768 H   0  0  0  0  0  0  0  0  0  0  0  0
   -0.9551    4.8030    2.9942 H   0  0  0  0  0  0  0  0  0  0  0  0
   -2.9268    5.5705    2.9448 N   0  3  0  0  0  0  0  0  0  0  0  0
   -3.4836    5.7308    2.1068 H   0  0  0  0  0  0  0  0  0  0  0  0
   -3.0442    6.3826    3.9561 C   0  0  0  0  0  0  0  0  0  0  0  0
   -2.2843    6.2364    5.0947 N   0  0  0  0  0  0  0  0  0  0  0  0
   -1.5146    5.5700    5.0717 H   0  0  0  0  0  0  0  0  0  0  0  0
   -2.2234    7.0153    5.7470 H   0  0  0  0  0  0  0  0  0  0  0  0
   -3.9417    7.4216    3.8930 N   0  0  0  0  0  0  0  0  0  0  0  0
   -4.6242    7.4367    3.1378 H   0  0  0  0  0  0  0  0  0  0  0  0
   -4.1655    7.9244    4.7501 H   0  0  0  0  0  0  0  0  0  0  0  0
    0.0910    0.7000    0.3675 C   0  0  0  0  0  0  0  0  0  0  0  0
    1.1667    1.2850    0.4125 O   0  0  0  0  0  0  0  0  0  0  0  0
    0.1001   -0.6438    0.0409 N   0  0  0  0  0  0  0  0  0  0  0  0
   -0.7452   -1.1455    0.3102 H   0  0  0  0  0  0  0  0  0  0  0  0
    1.3338   -1.4183   -0.0541 C   0  0  0  0  0  0  0  0  0  0  0  0
    1.8573   -1.4266    0.9077 H   0  0  0  0  0  0  0  0  0  0  0  0
    1.1106   -2.4513   -0.3375 H   0  0  0  0  0  0  0  0  0  0  0  0
    1.9986   -0.9916   -0.8129 H   0  0  0  0  0  0  0  0  0  0  0  0
  1  2  1  0  0  0  0
  2  3  1  0  0  0  0
  2  4  1  0  0  0  0
  2  5  1  0  0  0  0
  5  6  2  0  0  0  0
  5  7  1  0  0  0  0
  7  8  1  0  0  0  0
  7  9  1  0  0  0  0
  9 10  1  0  0  0  0
  9 11  1  0  0  0  0
  9 29  1  0  0  0  0
 11 12  1  0  0  0  0
 11 13  1  0  0  0  0
 11 14  1  0  0  0  0
 14 15  1  0  0  0  0
 14 16  1  0  0  0  0
 14 17  1  0  0  0  0
 17 18  1  0  0  0  0
 17 19  1  0  0  0  0
 17 20  1  0  0  0  0
 20 21  1  0  0  0  0
 20 22  2  0  0  0  0
 22 23  1  0  0  0  0
 22 26  1  0  0  0  0
 23 24  1  0  0  0  0
 23 25  1  0  0  0  0
 26 27  1  0  0  0  0
 26 28  1  0  0  0  0
 29 30  2  0  0  0  0
 29 31  1  0  0  0  0
 31 32  1  0  0  0  0
 31 33  1  0  0  0  0
 33 34  1  0  0  0  0
 33 35  1  0  0  0  0
 33 36  1  0  0  0  0
M  CHG  1  20   1
M  END
$$$$

  -OEChem-02172215453D

 36 35  0     1  0  0  0  0  0999 V2000
   -4.1514   -1.9926    1.1771 H   0  0  0  0  0  0  0  0  0  0  0  0
   -4.1195   -1.0015    0.7144 C   0  0  0  0  0  0  0  0  0  0  0  0
   -4.9203   -0.3910    1.1383 H   0  0  0  0  0  0  0  0  0  0  0  0
   -4.2827   -1.1127   -0.3604 H   0  0  0  0  0  0  0  0  0  0  0  0
   -2.7749   -0.3495    0.9746 C   0  0  0  0  0  0  0  0  0  0  0  0
   -1.9632   -0.9136    1.6837 O   0  0  0  0  0  0  0  0  0  0  0  0
   -2.5008    0.8941    0.4337 N   0  0  0  0  0  0  0  0  0  0  0  0
   -3.2220    1.2529   -0.1859 H   0  0  0  0  0  0  0  0  0  0  0  0
   -1.1890    1.5888    0.3961 C   0  0  1  0  0  0  0  0  0  0  0  0
   -1.1586    2.2149   -0.5005 H   0  0  0  0  0  0  0  0  0  0  0  0
   -1.1376    2.4958    1.6515 C   0  0  0  0  0  0  0  0  0  0  0  0
   -1.3011    1.8782    2.5422 H   0  0  0  0  0  0  0  0  0  0  0  0
   -0.1427    2.9443    1.7450 H   0  0  0  0  0  0  0  0  0  0  0  0
   -2.1495    3.6478    1.6195 C   0  0  0  0  0  0  0  0  0  0  0  0
   -1.9623    4.2814    0.7460 H   0  0  0  0  0  0  0  0  0  0  0  0
   -3.1680    3.2526    1.5505 H   0  0  0  0  0  0  0  0  0  0  0  0
   -1.9938    4.4589    2.9056 C   0  0  0  0  0  0  0  0  0  0  0  0
   -2.1534    3.7943    3.7620 H   0  0  0  0  0  0  0  0  0  0  0  0
   -0.9705    4.8481    2.9572 H   0  0  0  0  0  0  0  0  0  0  0  0
   -2.9580    5.5733    2.9484 N   0  3  0  0  0  0  0  0  0  0  0  0
   -3.5605    5.7017    2.1369 H   0  0  0  0  0  0  0  0  0  0  0  0
   -3.0692    6.3810    3.9644 C   0  0  0  0  0  0  0  0  0  0  0  0
   -2.2826    6.2494    5.0868 N   0  0  0  0  0  0  0  0  0  0  0  0
   -1.7114    5.4112    5.1780 H   0  0  0  0  0  0  0  0  0  0  0  0
   -2.5476    6.7459    5.9352 H   0  0  0  0  0  0  0  0  0  0  0  0
   -3.9848    7.4055    3.9239 N   0  0  0  0  0  0  0  0  0  0  0  0
   -4.4249    7.6319    3.0342 H   0  0  0  0  0  0  0  0  0  0  0  0
   -3.9063    8.1484    4.6163 H   0  0  0  0  0  0  0  0  0  0  0  0
    0.1096    0.7255    0.3269 C   0  0  0  0  0  0  0  0  0  0  0  0
    1.1867    1.2379    0.6075 O   0  0  0  0  0  0  0  0  0  0  0  0
    0.1240   -0.5144   -0.2880 N   0  0  0  0  0  0  0  0  0  0  0  0
   -0.7627   -1.0100   -0.2654 H   0  0  0  0  0  0  0  0  0  0  0  0
    1.3362   -1.3219   -0.3878 C   0  0  0  0  0  0  0  0  0  0  0  0
    1.7112   -1.5748    0.6097 H   0  0  0  0  0  0  0  0  0  0  0  0
    1.1292   -2.2516   -0.9271 H   0  0  0  0  0  0  0  0  0  0  0  0
    2.1182   -0.7792   -0.9296 H   0  0  0  0  0  0  0  0  0  0  0  0
  1  2  1  0  0  0  0
  2  3  1  0  0  0  0
  2  4  1  0  0  0  0
  2  5  1  0  0  0  0
  5  6  2  0  0  0  0
  5  7  1  0  0  0  0
  7  8  1  0  0  0  0
  7  9  1  0  0  0  0
  9 10  1  0  0  0  0
  9 11  1  0  0  0  0
  9 29  1  0  0  0  0
 11 12  1  0  0  0  0
 11 13  1  0  0  0  0
 11 14  1  0  0  0  0
 14 15  1  0  0  0  0
 14 16  1  0  0  0  0
 14 17  1  0  0  0  0
 17 18  1  0  0  0  0
 17 19  1  0  0  0  0
 17 20  1  0  0  0  0
 20 21  1  0  0  0  0
 20 22  2  0  0  0  0
 22 23  1  0  0  0  0
 22 26  1  0  0  0  0
 23 24  1  0  0  0  0
 23 25  1  0  0  0  0
 26 27  1  0  0  0  0
 26 28  1  0  0  0  0
 29 30  2  0  0  0  0
 29 31  1  0  0  0  0
 31 32  1  0  0  0  0
 31 33  1  0  0  0  0
 33 34  1  0  0  0  0
 33 35  1  0  0  0  0
 33 36  1  0  0  0  0
M  CHG  1  20   1
M  END
$$$$

  -OEChem-02172215453D

 36 35  0     1  0  0  0  0  0999 V2000
   -4.0094   -2.0316    1.1646 H   0  0  0  0  0  0  0  0  0  0  0  0
   -4.0158   -1.0300    0.7242 C   0  0  0  0  0  0  0  0  0  0  0  0
   -4.8260   -0.4538    1.1768 H   0  0  0  0  0  0  0  0  0  0  0  0
   -4.1960   -1.1222   -0.3493 H   0  0  0  0  0  0  0  0  0  0  0  0
   -2.6867   -0.3436    0.9747 C   0  0  0  0  0  0  0  0  0  0  0  0
   -1.8638   -0.8811    1.6912 O   0  0  0  0  0  0  0  0  0  0  0  0
   -2.4517    0.9095    0.4334 N   0  0  0  0  0  0  0  0  0  0  0  0
   -3.1882    1.2586   -0.1735 H   0  0  0  0  0  0  0  0  0  0  0  0
   -1.1532    1.6266    0.3961 C   0  0  1  0  0  0  0  0  0  0  0  0
   -1.1244    2.2545   -0.4995 H   0  0  0  0  0  0  0  0  0  0  0  0
   -1.1067    2.5321    1.6509 C   0  0  0  0  0  0  0  0  0  0  0  0
   -1.2534    1.9124    2.5430 H   0  0  0  0  0  0  0  0  0  0  0  0
   -0.1173    2.9949    1.7335 H   0  0  0  0  0  0  0  0  0  0  0  0
   -2.1356    3.6671    1.6236 C   0  0  0  0  0  0  0  0  0  0  0  0
   -1.9635    4.3038    0.7492 H   0  0  0  0  0  0  0  0  0  0  0  0
   -3.1482    3.2558    1.5604 H   0  0  0  0  0  0  0  0  0  0  0  0
   -1.9853    4.4796    2.9082 C   0  0  0  0  0  0  0  0  0  0  0  0
   -2.1307    3.8124    3.7653 H   0  0  0  0  0  0  0  0  0  0  0  0
   -0.9681    4.8850    2.9553 H   0  0  0  0  0  0  0  0  0  0  0  0
   -2.9680    5.5772    2.9522 N   0  3  0  0  0  0  0  0  0  0  0  0
   -3.5774    5.6920    2.1441 H   0  0  0  0  0  0  0  0  0  0  0  0
   -3.0900    6.3847    3.9663 C   0  0  0  0  0  0  0  0  0  0  0  0
   -2.2966    6.2674    5.0853 N   0  0  0  0  0  0  0  0  0  0  0  0
   -1.7089    5.4399    5.1717 H   0  0  0  0  0  0  0  0  0  0  0  0
   -2.5685    6.7554    5.9364 H   0  0  0  0  0  0  0  0  0  0  0  0
   -4.0312    7.3857    3.9282 N   0  0  0  0  0  0  0  0  0  0  0  0
   -4.4842    7.5974    3.0415 H   0  0  0  0  0  0  0  0  0  0  0  0
   -3.9761    8.1279    4.6236 H   0  0  0  0  0  0  0  0  0  0  0  0
    0.1295    0.7437    0.3208 C   0  0  0  0  0  0  0  0  0  0  0  0
    1.1666    1.0911    0.8731 O   0  0  0  0  0  0  0  0  0  0  0  0
    0.1805   -0.3265   -0.5556 N   0  0  0  0  0  0  0  0  0  0  0  0
   -0.7126   -0.6799   -0.8818 H   0  0  0  0  0  0  0  0  0  0  0  0
    1.3400   -1.2075   -0.6501 C   0  0  0  0  0  0  0  0  0  0  0  0
    1.4999   -1.7306    0.2988 H   0  0  0  0  0  0  0  0  0  0  0  0
    1.1877   -1.9530   -1.4365 H   0  0  0  0  0  0  0  0  0  0  0  0
    2.2415   -0.6343   -0.8921 H   0  0  0  0  0  0  0  0  0  0  0  0
  1  2  1  0  0  0  0
  2  3  1  0  0  0  0
  2  4  1  0  0  0  0
  2  5  1  0  0  0  0
  5  6  2  0  0  0  0
  5  7  1  0  0  0  0
  7  8  1  0  0  0  0
  7  9  1  0  0  0  0
  9 10  1  0  0  0  0
  9 11  1  0  0  0  0
  9 29  1  0  0  0  0
 11 12  1  0  0  0  0
 11 13  1  0  0  0  0
 11 14  1  0  0  0  0
 14 15  1  0  0  0  0
 14 16  1  0  0  0  0
 14 17  1  0  0  0  0
 17 18  1  0  0  0  0
 17 19  1  0  0  0  0
 17 20  1  0  0  0  0
 20 21  1  0  0  0  0
 20 22  2  0  0  0  0
 22 23  1  0  0  0  0
 22 26  1  0  0  0  0
 23 24  1  0  0  0  0
 23 25  1  0  0  0  0
 26 27  1  0  0  0  0
 26 28  1  0  0  0  0
 29 30  2  0  0  0  0
 29 31  1  0  0  0  0
 31 32  1  0  0  0  0
 31 33  1  0  0  0  0
 33 34  1  0  0  0  0
 33 35  1  0  0  0  0
 33 36  1  0  0  0  0
M  CHG  1  20   1
M  END
$$$$

  -OEChem-02172215453D

 36 35  0     1  0  0  0  0  0999 V2000
   -3.9578   -2.0524    1.1726 H   0  0  0  0  0  0  0  0  0  0  0  0
   -3.9666   -1.0645    0.7023 C   0  0  0  0  0  0  0  0  0  0  0  0
   -4.7994   -0.4887    1.1123 H   0  0  0  0  0  0  0  0  0  0  0  0
   -4.1117   -1.1915   -0.3730 H   0  0  0  0  0  0  0  0  0  0  0  0
   -2.6564   -0.3489    0.9719 C   0  0  0  0  0  0  0  0  0  0  0  0
   -1.8380   -0.8648    1.7086 O   0  0  0  0  0  0  0  0  0  0  0  0
   -2.4374    0.9035    0.4213 N   0  0  0  0  0  0  0  0  0  0  0  0
   -3.1727    1.2342   -0.1970 H   0  0  0  0  0  0  0  0  0  0  0  0
   -1.1493    1.6373    0.3922 C   0  0  1  0  0  0  0  0  0  0  0  0
   -1.1153    2.2602   -0.5068 H   0  0  0  0  0  0  0  0  0  0  0  0
   -1.1125    2.5516    1.6405 C   0  0  0  0  0  0  0  0  0  0  0  0
   -1.2525    1.9351    2.5362 H   0  0  0  0  0  0  0  0  0  0  0  0
   -0.1242    3.0189    1.7159 H   0  0  0  0  0  0  0  0  0  0  0  0
   -2.1479    3.6811    1.6142 C   0  0  0  0  0  0  0  0  0  0  0  0
   -1.9834    4.3183    0.7389 H   0  0  0  0  0  0  0  0  0  0  0  0
   -3.1583    3.2632    1.5560 H   0  0  0  0  0  0  0  0  0  0  0  0
   -1.9932    4.4936    2.8993 C   0  0  0  0  0  0  0  0  0  0  0  0
   -2.1300    3.8239    3.7557 H   0  0  0  0  0  0  0  0  0  0  0  0
   -0.9770    4.9020    2.9401 H   0  0  0  0  0  0  0  0  0  0  0  0
   -2.9766    5.5902    2.9574 N   0  3  0  0  0  0  0  0  0  0  0  0
   -3.5961    5.7060    2.1572 H   0  0  0  0  0  0  0  0  0  0  0  0
   -3.0885    6.3924    3.9775 C   0  0  0  0  0  0  0  0  0  0  0  0
   -2.2835    6.2692    5.0877 N   0  0  0  0  0  0  0  0  0  0  0  0
   -1.6940    5.4420    5.1630 H   0  0  0  0  0  0  0  0  0  0  0  0
   -2.5483    6.7506    5.9448 H   0  0  0  0  0  0  0  0  0  0  0  0
   -4.0302    7.3936    3.9566 N   0  0  0  0  0  0  0  0  0  0  0  0
   -4.4948    7.6111    3.0773 H   0  0  0  0  0  0  0  0  0  0  0  0
   -3.9685    8.1302    4.6575 H   0  0  0  0  0  0  0  0  0  0  0  0
    0.1290    0.7473    0.3398 C   0  0  0  0  0  0  0  0  0  0  0  0
    1.0756    0.9399    1.0939 O   0  0  0  0  0  0  0  0  0  0  0  0
    0.3050   -0.1211   -0.7237 N   0  0  0  0  0  0  0  0  0  0  0  0
   -0.5148   -0.3347   -1.2818 H   0  0  0  0  0  0  0  0  0  0  0  0
    1.4666   -0.9982   -0.8370 C   0  0  0  0  0  0  0  0  0  0  0  0
    1.5197   -1.6739    0.0236 H   0  0  0  0  0  0  0  0  0  0  0  0
    1.4012   -1.6015   -1.7474 H   0  0  0  0  0  0  0  0  0  0  0  0
    2.3904   -0.4112   -0.8804 H   0  0  0  0  0  0  0  0  0  0  0  0
  1  2  1  0  0  0  0
  2  3  1  0  0  0  0
  2  4  1  0  0  0  0
  2  5  1  0  0  0  0
  5  6  2  0  0  0  0
  5  7  1  0  0  0  0
  7  8  1  0  0  0  0
  7  9  1  0  0  0  0
  9 10  1  0  0  0  0
  9 11  1  0  0  0  0
  9 29  1  0  0  0  0
 11 12  1  0  0  0  0
 11 13  1  0  0  0  0
 11 14  1  0  0  0  0
 14 15  1  0  0  0  0
 14 16  1  0  0  0  0
 14 17  1  0  0  0  0
 17 18  1  0  0  0  0
 17 19  1  0  0  0  0
 17 20  1  0  0  0  0
 20 21  1  0  0  0  0
 20 22  2  0  0  0  0
 22 23  1  0  0  0  0
 22 26  1  0  0  0  0
 23 24  1  0  0  0  0
 23 25  1  0  0  0  0
 26 27  1  0  0  0  0
 26 28  1  0  0  0  0
 29 30  2  0  0  0  0
 29 31  1  0  0  0  0
 31 32  1  0  0  0  0
 31 33  1  0  0  0  0
 33 34  1  0  0  0  0
 33 35  1  0  0  0  0
 33 36  1  0  0  0  0
M  CHG  1  20   1
M  END
$$$$

  -OEChem-02172215453D

 36 35  0     1  0  0  0  0  0999 V2000
   -3.9633   -2.0538    1.1723 H   0  0  0  0  0  0  0  0  0  0  0  0
   -3.9743   -1.0587    0.7176 C   0  0  0  0  0  0  0  0  0  0  0  0
   -4.7989   -0.4855    1.1478 H   0  0  0  0  0  0  0  0  0  0  0  0
   -4.1350   -1.1684   -0.3575 H   0  0  0  0  0  0  0  0  0  0  0  0
   -2.6578   -0.3523    0.9807 C   0  0  0  0  0  0  0  0  0  0  0  0
   -1.8466   -0.8670    1.7255 O   0  0  0  0  0  0  0  0  0  0  0  0
   -2.4333    0.8959    0.4229 N   0  0  0  0  0  0  0  0  0  0  0  0
   -3.1647    1.2215   -0.2021 H   0  0  0  0  0  0  0  0  0  0  0  0
   -1.1454    1.6283    0.3966 C   0  0  1  0  0  0  0  0  0  0  0  0
   -1.1074    2.2513   -0.5018 H   0  0  0  0  0  0  0  0  0  0  0  0
   -1.1123    2.5442    1.6420 C   0  0  0  0  0  0  0  0  0  0  0  0
   -1.2583    1.9306    2.5389 H   0  0  0  0  0  0  0  0  0  0  0  0
   -0.1209    3.0053    1.7189 H   0  0  0  0  0  0  0  0  0  0  0  0
   -2.1466    3.6739    1.6093 C   0  0  0  0  0  0  0  0  0  0  0  0
   -1.9789    4.3095    0.7334 H   0  0  0  0  0  0  0  0  0  0  0  0
   -3.1572    3.2570    1.5485 H   0  0  0  0  0  0  0  0  0  0  0  0
   -1.9937    4.4863    2.8939 C   0  0  0  0  0  0  0  0  0  0  0  0
   -2.1336    3.8172    3.7504 H   0  0  0  0  0  0  0  0  0  0  0  0
   -0.9766    4.8924    2.9374 H   0  0  0  0  0  0  0  0  0  0  0  0
   -2.9751    5.5846    2.9490 N   0  3  0  0  0  0  0  0  0  0  0  0
   -3.5918    5.7031    2.1469 H   0  0  0  0  0  0  0  0  0  0  0  0
   -3.0868    6.3862    3.9692 C   0  0  0  0  0  0  0  0  0  0  0  0
   -2.2836    6.2593    5.0801 N   0  0  0  0  0  0  0  0  0  0  0  0
   -1.7056    5.4244    5.1592 H   0  0  0  0  0  0  0  0  0  0  0  0
   -2.5480    6.7425    5.9362 H   0  0  0  0  0  0  0  0  0  0  0  0
   -4.0233    7.3921    3.9470 N   0  0  0  0  0  0  0  0  0  0  0  0
   -4.4852    7.6128    3.0672 H   0  0  0  0  0  0  0  0  0  0  0  0
   -3.9605    8.1272    4.6492 H   0  0  0  0  0  0  0  0  0  0  0  0
    0.1326    0.7381    0.3588 C   0  0  0  0  0  0  0  0  0  0  0  0
    0.9725    0.7791    1.2506 O   0  0  0  0  0  0  0  0  0  0  0  0
    0.4695    0.1050   -0.8251 N   0  0  0  0  0  0  0  0  0  0  0  0
   -0.2553    0.0254   -1.5309 H   0  0  0  0  0  0  0  0  0  0  0  0
    1.6703   -0.7128   -0.9682 C   0  0  0  0  0  0  0  0  0  0  0  0
    1.6385   -1.5629   -0.2780 H   0  0  0  0  0  0  0  0  0  0  0  0
    1.7490   -1.0974   -1.9896 H   0  0  0  0  0  0  0  0  0  0  0  0
    2.5671   -0.1210   -0.7549 H   0  0  0  0  0  0  0  0  0  0  0  0
  1  2  1  0  0  0  0
  2  3  1  0  0  0  0
  2  4  1  0  0  0  0
  2  5  1  0  0  0  0
  5  6  2  0  0  0  0
  5  7  1  0  0  0  0
  7  8  1  0  0  0  0
  7  9  1  0  0  0  0
  9 10  1  0  0  0  0
  9 11  1  0  0  0  0
  9 29  1  0  0  0  0
 11 12  1  0  0  0  0
 11 13  1  0  0  0  0
 11 14  1  0  0  0  0
 14 15  1  0  0  0  0
 14 16  1  0  0  0  0
 14 17  1  0  0  0  0
 17 18  1  0  0  0  0
 17 19  1  0  0  0  0
 17 20  1  0  0  0  0
 20 21  1  0  0  0  0
 20 22  2  0  0  0  0
 22 23  1  0  0  0  0
 22 26  1  0  0  0  0
 23 24  1  0  0  0  0
 23 25  1  0  0  0  0
 26 27  1  0  0  0  0
 26 28  1  0  0  0  0
 29 30  2  0  0  0  0
 29 31  1  0  0  0  0
 31 32  1  0  0  0  0
 31 33  1  0  0  0  0
 33 34  1  0  0  0  0
 33 35  1  0  0  0  0
 33 36  1  0  0  0  0
M  CHG  1  20   1
M  END
$$$$

  -OEChem-02172215453D

 36 35  0     1  0  0  0  0  0999 V2000
   -3.9846   -2.0552    1.1812 H   0  0  0  0  0  0  0  0  0  0  0  0
   -3.9832   -1.0714    0.7028 C   0  0  0  0  0  0  0  0  0  0  0  0
   -4.8242   -0.4920    1.0905 H   0  0  0  0  0  0  0  0  0  0  0  0
   -4.1052   -1.2078   -0.3743 H   0  0  0  0  0  0  0  0  0  0  0  0
   -2.6785   -0.3541    0.9941 C   0  0  0  0  0  0  0  0  0  0  0  0
   -1.8889   -0.8556    1.7696 O   0  0  0  0  0  0  0  0  0  0  0  0
   -2.4462    0.8870    0.4243 N   0  0  0  0  0  0  0  0  0  0  0  0
   -3.1643    1.1936   -0.2252 H   0  0  0  0  0  0  0  0  0  0  0  0
   -1.1564    1.6161    0.3922 C   0  0  1  0  0  0  0  0  0  0  0  0
   -1.1217    2.2374   -0.5073 H   0  0  0  0  0  0  0  0  0  0  0  0
   -1.1165    2.5342    1.6358 C   0  0  0  0  0  0  0  0  0  0  0  0
   -1.2642    1.9227    2.5340 H   0  0  0  0  0  0  0  0  0  0  0  0
   -0.1205    2.9862    1.7088 H   0  0  0  0  0  0  0  0  0  0  0  0
   -2.1470    3.6681    1.6082 C   0  0  0  0  0  0  0  0  0  0  0  0
   -1.9811    4.3028    0.7316 H   0  0  0  0  0  0  0  0  0  0  0  0
   -3.1589    3.2540    1.5520 H   0  0  0  0  0  0  0  0  0  0  0  0
   -1.9865    4.4821    2.8917 C   0  0  0  0  0  0  0  0  0  0  0  0
   -2.1253    3.8138    3.7492 H   0  0  0  0  0  0  0  0  0  0  0  0
   -0.9683    4.8855    2.9308 H   0  0  0  0  0  0  0  0  0  0  0  0
   -2.9649    5.5831    2.9497 N   0  3  0  0  0  0  0  0  0  0  0  0
   -3.5907    5.6960    2.1539 H   0  0  0  0  0  0  0  0  0  0  0  0
   -3.0713    6.3872    3.9688 C   0  0  0  0  0  0  0  0  0  0  0  0
   -2.2647    6.2626    5.0779 N   0  0  0  0  0  0  0  0  0  0  0  0
   -1.6775    5.4336    5.1518 H   0  0  0  0  0  0  0  0  0  0  0  0
   -2.5304    6.7412    5.9361 H   0  0  0  0  0  0  0  0  0  0  0  0
   -4.0124    7.3891    3.9500 N   0  0  0  0  0  0  0  0  0  0  0  0
   -4.4819    7.6045    3.0728 H   0  0  0  0  0  0  0  0  0  0  0  0
   -3.9510    8.1248    4.6516 H   0  0  0  0  0  0  0  0  0  0  0  0
    0.1269    0.7319    0.3665 C   0  0  0  0  0  0  0  0  0  0  0  0
    0.8496    0.6190    1.3496 O   0  0  0  0  0  0  0  0  0  0  0  0
    0.6458    0.3454   -0.8579 N   0  0  0  0  0  0  0  0  0  0  0  0
    0.0358    0.4111   -1.6664 H   0  0  0  0  0  0  0  0  0  0  0  0
    1.8921   -0.4045   -0.9895 C   0  0  0  0  0  0  0  0  0  0  0  0
    1.8239   -1.3588   -0.4561 H   0  0  0  0  0  0  0  0  0  0  0  0
    2.1014   -0.6117   -2.0435 H   0  0  0  0  0  0  0  0  0  0  0  0
    2.7312    0.1675   -0.5786 H   0  0  0  0  0  0  0  0  0  0  0  0
  1  2  1  0  0  0  0
  2  3  1  0  0  0  0
  2  4  1  0  0  0  0
  2  5  1  0  0  0  0
  5  6  2  0  0  0  0
  5  7  1  0  0  0  0
  7  8  1  0  0  0  0
  7  9  1  0  0  0  0
  9 10  1  0  0  0  0
  9 11  1  0  0  0  0
  9 29  1  0  0  0  0
 11 12  1  0  0  0  0
 11 13  1  0  0  0  0
 11 14  1  0  0  0  0
 14 15  1  0  0  0  0
 14 16  1  0  0  0  0
 14 17  1  0  0  0  0
 17 18  1  0  0  0  0
 17 19  1  0  0  0  0
 17 20  1  0  0  0  0
 20 21  1  0  0  0  0
 20 22  2  0  0  0  0
 22 23  1  0  0  0  0
 22 26  1  0  0  0  0
 23 24  1  0  0  0  0
 23 25  1  0  0  0  0
 26 27  1  0  0  0  0
 26 28  1  0  0  0  0
 29 30  2  0  0  0  0
 29 31  1  0  0  0  0
 31 32  1  0  0  0  0
 31 33  1  0  0  0  0
 33 34  1  0  0  0  0
 33 35  1  0  0  0  0
 33 36  1  0  0  0  0
M  CHG  1  20   1
M  END
$$$$

  -OEChem-02172215453D

 36 35  0     1  0  0  0  0  0999 V2000
   -4.0025   -2.0636    1.1844 H   0  0  0  0  0  0  0  0  0  0  0  0
   -3.9867   -1.0935    0.6787 C   0  0  0  0  0  0  0  0  0  0  0  0
   -4.8541   -0.5144    1.0033 H   0  0  0  0  0  0  0  0  0  0  0  0
   -4.0486   -1.2618   -0.3991 H   0  0  0  0  0  0  0  0  0  0  0  0
   -2.7081   -0.3508    1.0189 C   0  0  0  0  0  0  0  0  0  0  0  0
   -1.9608   -0.8164    1.8553 O   0  0  0  0  0  0  0  0  0  0  0  0
   -2.4664    0.8800    0.4308 N   0  0  0  0  0  0  0  0  0  0  0  0
   -3.1616    1.1523   -0.2578 H   0  0  0  0  0  0  0  0  0  0  0  0
   -1.1730    1.6028    0.3870 C   0  0  1  0  0  0  0  0  0  0  0  0
   -1.1442    2.2220   -0.5142 H   0  0  0  0  0  0  0  0  0  0  0  0
   -1.1236    2.5224    1.6277 C   0  0  0  0  0  0  0  0  0  0  0  0
   -1.2712    1.9145    2.5285 H   0  0  0  0  0  0  0  0  0  0  0  0
   -0.1241    2.9674    1.6951 H   0  0  0  0  0  0  0  0  0  0  0  0
   -2.1498    3.6593    1.6037 C   0  0  0  0  0  0  0  0  0  0  0  0
   -1.9883    4.2917    0.7245 H   0  0  0  0  0  0  0  0  0  0  0  0
   -3.1634    3.2480    1.5556 H   0  0  0  0  0  0  0  0  0  0  0  0
   -1.9770    4.4722    2.8858 C   0  0  0  0  0  0  0  0  0  0  0  0
   -2.1127    3.8056    3.7450 H   0  0  0  0  0  0  0  0  0  0  0  0
   -0.9572    4.8719    2.9180 H   0  0  0  0  0  0  0  0  0  0  0  0
   -2.9505    5.5765    2.9482 N   0  3  0  0  0  0  0  0  0  0  0  0
   -3.5775    5.6926    2.1538 H   0  0  0  0  0  0  0  0  0  0  0  0
   -3.0482    6.3817    3.9669 C   0  0  0  0  0  0  0  0  0  0  0  0
   -2.2366    6.2554    5.0721 N   0  0  0  0  0  0  0  0  0  0  0  0
   -1.6551    5.4223    5.1447 H   0  0  0  0  0  0  0  0  0  0  0  0
   -2.5018    6.7305    5.9326 H   0  0  0  0  0  0  0  0  0  0  0  0
   -3.9854    7.3866    3.9513 N   0  0  0  0  0  0  0  0  0  0  0  0
   -4.4604    7.6009    3.0768 H   0  0  0  0  0  0  0  0  0  0  0  0
   -3.9183    8.1232    4.6515 H   0  0  0  0  0  0  0  0  0  0  0  0
    0.1180    0.7289    0.3737 C   0  0  0  0  0  0  0  0  0  0  0  0
    0.7217    0.4567    1.4037 O   0  0  0  0  0  0  0  0  0  0  0  0
    0.8135    0.5914   -0.8165 N   0  0  0  0  0  0  0  0  0  0  0  0
    0.3226    0.8131   -1.6769 H   0  0  0  0  0  0  0  0  0  0  0  0
    2.1055   -0.0837   -0.9093 C   0  0  0  0  0  0  0  0  0  0  0  0
    2.0271   -1.1132   -0.5433 H   0  0  0  0  0  0  0  0  0  0  0  0
    2.4464   -0.1113   -1.9489 H   0  0  0  0  0  0  0  0  0  0  0  0
    2.8584    0.4439   -0.3140 H   0  0  0  0  0  0  0  0  0  0  0  0
  1  2  1  0  0  0  0
  2  3  1  0  0  0  0
  2  4  1  0  0  0  0
  2  5  1  0  0  0  0
  5  6  2  0  0  0  0
  5  7  1  0  0  0  0
  7  8  1  0  0  0  0
  7  9  1  0  0  0  0
  9 10  1  0  0  0  0
  9 11  1  0  0  0  0
  9 29  1  0  0  0  0
 11 12  1  0  0  0  0
 11 13  1  0  0  0  0
 11 14  1  0  0  0  0
 14 15  1  0  0  0  0
 14 16  1  0  0  0  0
 14 17  1  0  0  0  0
 17 18  1  0  0  0  0
 17 19  1  0  0  0  0
 17 20  1  0  0  0  0
 20 21  1  0  0  0  0
 20 22  2  0  0  0  0
 22 23  1  0  0  0  0
 22 26  1  0  0  0  0
 23 24  1  0  0  0  0
 23 25  1  0  0  0  0
 26 27  1  0  0  0  0
 26 28  1  0  0  0  0
 29 30  2  0  0  0  0
 29 31  1  0  0  0  0
 31 32  1  0  0  0  0
 31 33  1  0  0  0  0
 33 34  1  0  0  0  0
 33 35  1  0  0  0  0
 33 36  1  0  0  0  0
M  CHG  1  20   1
M  END
$$$$

  -OEChem-02172215453D

 36 35  0     1  0  0  0  0  0999 V2000
   -3.9523   -2.1100    1.1616 H   0  0  0  0  0  0  0  0  0  0  0  0
   -3.9226   -1.1680    0.6058 C   0  0  0  0  0  0  0  0  0  0  0  0
   -4.8560   -0.6277    0.7787 H   0  0  0  0  0  0  0  0  0  0  0  0
   -3.8299   -1.3954   -0.4588 H   0  0  0  0  0  0  0  0  0  0  0  0
   -2.7437   -0.3309    1.0648 C   0  0  0  0  0  0  0  0  0  0  0  0
   -2.1263   -0.6749    2.0526 O   0  0  0  0  0  0  0  0  0  0  0  0
   -2.5024    0.8864    0.4495 N   0  0  0  0  0  0  0  0  0  0  0  0
   -3.1364    1.0691   -0.3227 H   0  0  0  0  0  0  0  0  0  0  0  0
   -1.2028    1.5977    0.3866 C   0  0  1  0  0  0  0  0  0  0  0  0
   -1.1823    2.2128   -0.5173 H   0  0  0  0  0  0  0  0  0  0  0  0
   -1.1322    2.5169    1.6265 C   0  0  0  0  0  0  0  0  0  0  0  0
   -1.2762    1.9127    2.5302 H   0  0  0  0  0  0  0  0  0  0  0  0
   -0.1280    2.9524    1.6848 H   0  0  0  0  0  0  0  0  0  0  0  0
   -2.1520    3.6601    1.6107 C   0  0  0  0  0  0  0  0  0  0  0  0
   -1.9959    4.2893    0.7284 H   0  0  0  0  0  0  0  0  0  0  0  0
   -3.1683    3.2537    1.5733 H   0  0  0  0  0  0  0  0  0  0  0  0
   -1.9657    4.4772    2.8881 C   0  0  0  0  0  0  0  0  0  0  0  0
   -2.0984    3.8133    3.7499 H   0  0  0  0  0  0  0  0  0  0  0  0
   -0.9437    4.8722    2.9118 H   0  0  0  0  0  0  0  0  0  0  0  0
   -2.9341    5.5865    2.9546 N   0  3  0  0  0  0  0  0  0  0  0  0
   -3.5756    5.6956    2.1707 H   0  0  0  0  0  0  0  0  0  0  0  0
   -3.0187    6.3951    3.9720 C   0  0  0  0  0  0  0  0  0  0  0  0
   -2.1961    6.2650    5.0685 N   0  0  0  0  0  0  0  0  0  0  0  0
   -1.6315    5.4204    5.1415 H   0  0  0  0  0  0  0  0  0  0  0  0
   -2.4458    6.7485    5.9287 H   0  0  0  0  0  0  0  0  0  0  0  0
   -3.9497    7.4067    3.9651 N   0  0  0  0  0  0  0  0  0  0  0  0
   -4.4363    7.6218    3.0971 H   0  0  0  0  0  0  0  0  0  0  0  0
   -3.8708    8.1433    4.6638 H   0  0  0  0  0  0  0  0  0  0  0  0
    0.0933    0.7322    0.3818 C   0  0  0  0  0  0  0  0  0  0  0  0
    0.5564    0.2387    1.3998 O   0  0  0  0  0  0  0  0  0  0  0  0
    0.9474    0.8302   -0.7050 N   0  0  0  0  0  0  0  0  0  0  0  0
    0.5891    1.2561   -1.5539 H   0  0  0  0  0  0  0  0  0  0  0  0
    2.2608    0.1921   -0.7493 C   0  0  0  0  0  0  0  0  0  0  0  0
    2.1694   -0.8873   -0.5859 H   0  0  0  0  0  0  0  0  0  0  0  0
    2.7305    0.3545   -1.7242 H   0  0  0  0  0  0  0  0  0  0  0  0
    2.9165    0.6096    0.0225 H   0  0  0  0  0  0  0  0  0  0  0  0
  1  2  1  0  0  0  0
  2  3  1  0  0  0  0
  2  4  1  0  0  0  0
  2  5  1  0  0  0  0
  5  6  2  0  0  0  0
  5  7  1  0  0  0  0
  7  8  1  0  0  0  0
  7  9  1  0  0  0  0
  9 10  1  0  0  0  0
  9 11  1  0  0  0  0
  9 29  1  0  0  0  0
 11 12  1  0  0  0  0
 11 13  1  0  0  0  0
 11 14  1  0  0  0  0
 14 15  1  0  0  0  0
 14 16  1  0  0  0  0
 14 17  1  0  0  0  0
 17 18  1  0  0  0  0
 17 19  1  0  0  0  0
 17 20  1  0  0  0  0
 20 21  1  0  0  0  0
 20 22  2  0  0  0  0
 22 23  1  0  0  0  0
 22 26  1  0  0  0  0
 23 24  1  0  0  0  0
 23 25  1  0  0  0  0
 26 27  1  0  0  0  0
 26 28  1  0  0  0  0
 29 30  2  0  0  0  0
 29 31  1  0  0  0  0
 31 32  1  0  0  0  0
 31 33  1  0  0  0  0
 33 34  1  0  0  0  0
 33 35  1  0  0  0  0
 33 36  1  0  0  0  0
M  CHG  1  20   1
M  END
$$$$

  -OEChem-02172215453D

 36 35  0     1  0  0  0  0  0999 V2000
   -3.6595   -2.2113    1.1178 H   0  0  0  0  0  0  0  0  0  0  0  0
   -3.6398   -1.3205    0.4833 C   0  0  0  0  0  0  0  0  0  0  0  0
   -4.6612   -0.9561    0.3541 H   0  0  0  0  0  0  0  0  0  0  0  0
   -3.2287   -1.5965   -0.4904 H   0  0  0  0  0  0  0  0  0  0  0  0
   -2.7791   -0.2498    1.1255 C   0  0  0  0  0  0  0  0  0  0  0  0
   -2.4974   -0.3359    2.3080 O   0  0  0  0  0  0  0  0  0  0  0  0
   -2.5725    0.9557    0.4769 N   0  0  0  0  0  0  0  0  0  0  0  0
   -3.0891    0.9885   -0.3971 H   0  0  0  0  0  0  0  0  0  0  0  0
   -1.2573    1.6384    0.4059 C   0  0  1  0  0  0  0  0  0  0  0  0
   -1.2311    2.2497   -0.5005 H   0  0  0  0  0  0  0  0  0  0  0  0
   -1.1478    2.5482    1.6481 C   0  0  0  0  0  0  0  0  0  0  0  0
   -1.2880    1.9494    2.5550 H   0  0  0  0  0  0  0  0  0  0  0  0
   -0.1349    2.9641    1.6928 H   0  0  0  0  0  0  0  0  0  0  0  0
   -2.1459    3.7108    1.6382 C   0  0  0  0  0  0  0  0  0  0  0  0
   -1.9870    4.3342    0.7522 H   0  0  0  0  0  0  0  0  0  0  0  0
   -3.1690    3.3206    1.6092 H   0  0  0  0  0  0  0  0  0  0  0  0
   -1.9414    4.5311    2.9101 C   0  0  0  0  0  0  0  0  0  0  0  0
   -2.0827    3.8749    3.7765 H   0  0  0  0  0  0  0  0  0  0  0  0
   -0.9138    4.9108    2.9287 H   0  0  0  0  0  0  0  0  0  0  0  0
   -2.8941    5.6540    2.9683 N   0  3  0  0  0  0  0  0  0  0  0  0
   -3.5103    5.7857    2.1679 H   0  0  0  0  0  0  0  0  0  0  0  0
   -2.9689    6.4736    3.9775 C   0  0  0  0  0  0  0  0  0  0  0  0
   -2.1482    6.3437    5.0758 N   0  0  0  0  0  0  0  0  0  0  0  0
   -1.5847    5.4999    5.1630 H   0  0  0  0  0  0  0  0  0  0  0  0
   -2.3420    6.8876    5.9137 H   0  0  0  0  0  0  0  0  0  0  0  0
   -3.8834    7.4999    3.9521 N   0  0  0  0  0  0  0  0  0  0  0  0
   -4.5812    7.5400    3.2119 H   0  0  0  0  0  0  0  0  0  0  0  0
   -3.9996    8.0924    4.7720 H   0  0  0  0  0  0  0  0  0  0  0  0
    0.0240    0.7528    0.4097 C   0  0  0  0  0  0  0  0  0  0  0  0
    0.2081   -0.1634    1.1940 O   0  0  0  0  0  0  0  0  0  0  0  0
    1.0351    1.0379   -0.4932 N   0  0  0  0  0  0  0  0  0  0  0  0
    0.8864    1.7897   -1.1590 H   0  0  0  0  0  0  0  0  0  0  0  0
    2.2790    0.2757   -0.5675 C   0  0  0  0  0  0  0  0  0  0  0  0
    2.0714   -0.7799   -0.7741 H   0  0  0  0  0  0  0  0  0  0  0  0
    2.9165    0.6639   -1.3678 H   0  0  0  0  0  0  0  0  0  0  0  0
    2.8292    0.3464    0.3771 H   0  0  0  0  0  0  0  0  0  0  0  0
  1  2  1  0  0  0  0
  2  3  1  0  0  0  0
  2  4  1  0  0  0  0
  2  5  1  0  0  0  0
  5  6  2  0  0  0  0
  5  7  1  0  0  0  0
  7  8  1  0  0  0  0
  7  9  1  0  0  0  0
  9 10  1  0  0  0  0
  9 11  1  0  0  0  0
  9 29  1  0  0  0  0
 11 12  1  0  0  0  0
 11 13  1  0  0  0  0
 11 14  1  0  0  0  0
 14 15  1  0  0  0  0
 14 16  1  0  0  0  0
 14 17  1  0  0  0  0
 17 18  1  0  0  0  0
 17 19  1  0  0  0  0
 17 20  1  0  0  0  0
 20 21  1  0  0  0  0
 20 22  2  0  0  0  0
 22 23  1  0  0  0  0
 22 26  1  0  0  0  0
 23 24  1  0  0  0  0
 23 25  1  0  0  0  0
 26 27  1  0  0  0  0
 26 28  1  0  0  0  0
 29 30  2  0  0  0  0
 29 31  1  0  0  0  0
 31 32  1  0  0  0  0
 31 33  1  0  0  0  0
 33 34  1  0  0  0  0
 33 35  1  0  0  0  0
 33 36  1  0  0  0  0
M  CHG  1  20   1
M  END
$$$$

  -OEChem-02172215453D

 36 35  0     1  0  0  0  0  0999 V2000
   -3.6495   -2.2172    1.1300 H   0  0  0  0  0  0  0  0  0  0  0  0
   -3.6151   -1.3310    0.4898 C   0  0  0  0  0  0  0  0  0  0  0  0
   -4.6333   -0.9696    0.3306 H   0  0  0  0  0  0  0  0  0  0  0  0
   -3.1767   -1.6133   -0.4705 H   0  0  0  0  0  0  0  0  0  0  0  0
   -2.7737   -0.2535    1.1450 C   0  0  0  0  0  0  0  0  0  0  0  0
   -2.4873   -0.3403    2.3281 O   0  0  0  0  0  0  0  0  0  0  0  0
   -2.5594    0.9541    0.5026 N   0  0  0  0  0  0  0  0  0  0  0  0
   -3.0552    0.9799   -0.3837 H   0  0  0  0  0  0  0  0  0  0  0  0
   -1.2369    1.6261    0.4498 C   0  0  1  0  0  0  0  0  0  0  0  0
   -1.1979    2.2342   -0.4587 H   0  0  0  0  0  0  0  0  0  0  0  0
   -1.1415    2.5377    1.6923 C   0  0  0  0  0  0  0  0  0  0  0  0
   -1.3013    1.9423    2.5980 H   0  0  0  0  0  0  0  0  0  0  0  0
   -0.1280    2.9499    1.7547 H   0  0  0  0  0  0  0  0  0  0  0  0
   -2.1326    3.7068    1.6609 C   0  0  0  0  0  0  0  0  0  0  0  0
   -1.9549    4.3254    0.7750 H   0  0  0  0  0  0  0  0  0  0  0  0
   -3.1573    3.3223    1.6141 H   0  0  0  0  0  0  0  0  0  0  0  0
   -1.9485    4.5331    2.9323 C   0  0  0  0  0  0  0  0  0  0  0  0
   -2.1091    3.8825    3.7995 H   0  0  0  0  0  0  0  0  0  0  0  0
   -0.9197    4.9088    2.9680 H   0  0  0  0  0  0  0  0  0  0  0  0
   -2.8975    5.6606    2.9658 N   0  3  0  0  0  0  0  0  0  0  0  0
   -3.5045    5.7841    2.1570 H   0  0  0  0  0  0  0  0  0  0  0  0
   -2.9890    6.4871    3.9682 C   0  0  0  0  0  0  0  0  0  0  0  0
   -2.1912    6.3621    5.0837 N   0  0  0  0  0  0  0  0  0  0  0  0
   -1.6450    5.5097    5.1936 H   0  0  0  0  0  0  0  0  0  0  0  0
   -2.4032    6.9125    5.9132 H   0  0  0  0  0  0  0  0  0  0  0  0
   -3.8992    7.5166    3.9195 N   0  0  0  0  0  0  0  0  0  0  0  0
   -4.5601    7.5810    3.1478 H   0  0  0  0  0  0  0  0  0  0  0  0
   -4.0028    8.1431    4.7156 H   0  0  0  0  0  0  0  0  0  0  0  0
    0.0490    0.7434    0.4606 C   0  0  0  0  0  0  0  0  0  0  0  0
    0.0700   -0.4200    0.8305 O   0  0  0  0  0  0  0  0  0  0  0  0
    1.1787    1.2161   -0.1874 N   0  0  0  0  0  0  0  0  0  0  0  0
    1.1508    2.1531   -0.5766 H   0  0  0  0  0  0  0  0  0  0  0  0
    2.3916    0.4220   -0.3664 C   0  0  0  0  0  0  0  0  0  0  0  0
    2.1876   -0.4533   -0.9923 H   0  0  0  0  0  0  0  0  0  0  0  0
    3.1703    1.0195   -0.8504 H   0  0  0  0  0  0  0  0  0  0  0  0
    2.7727    0.0792    0.6017 H   0  0  0  0  0  0  0  0  0  0  0  0
  1  2  1  0  0  0  0
  2  3  1  0  0  0  0
  2  4  1  0  0  0  0
  2  5  1  0  0  0  0
  5  6  2  0  0  0  0
  5  7  1  0  0  0  0
  7  8  1  0  0  0  0
  7  9  1  0  0  0  0
  9 10  1  0  0  0  0
  9 11  1  0  0  0  0
  9 29  1  0  0  0  0
 11 12  1  0  0  0  0
 11 13  1  0  0  0  0
 11 14  1  0  0  0  0
 14 15  1  0  0  0  0
 14 16  1  0  0  0  0
 14 17  1  0  0  0  0
 17 18  1  0  0  0  0
 17 19  1  0  0  0  0
 17 20  1  0  0  0  0
 20 21  1  0  0  0  0
 20 22  2  0  0  0  0
 22 23  1  0  0  0  0
 22 26  1  0  0  0  0
 23 24  1  0  0  0  0
 23 25  1  0  0  0  0
 26 27  1  0  0  0  0
 26 28  1  0  0  0  0
 29 30  2  0  0  0  0
 29 31  1  0  0  0  0
 31 32  1  0  0  0  0
 31 33  1  0  0  0  0
 33 34  1  0  0  0  0
 33 35  1  0  0  0  0
 33 36  1  0  0  0  0
M  CHG  1  20   1
M  END
$$$$

  -OEChem-02172215453D

 36 35  0     1  0  0  0  0  0999 V2000
   -3.7703   -2.1595    1.2025 H   0  0  0  0  0  0  0  0  0  0  0  0
   -3.6388   -1.3172    0.5175 C   0  0  0  0  0  0  0  0  0  0  0  0
   -4.6176   -0.8892    0.2911 H   0  0  0  0  0  0  0  0  0  0  0  0
   -3.1832   -1.6866   -0.4048 H   0  0  0  0  0  0  0  0  0  0  0  0
   -2.7403   -0.2719    1.1490 C   0  0  0  0  0  0  0  0  0  0  0  0
   -2.3431   -0.4163    2.2946 O   0  0  0  0  0  0  0  0  0  0  0  0
   -2.5372    0.9490    0.5267 N   0  0  0  0  0  0  0  0  0  0  0  0
   -3.0393    0.9938   -0.3552 H   0  0  0  0  0  0  0  0  0  0  0  0
   -1.2130    1.6182    0.4891 C   0  0  1  0  0  0  0  0  0  0  0  0
   -1.1621    2.2320   -0.4155 H   0  0  0  0  0  0  0  0  0  0  0  0
   -1.1351    2.5259    1.7374 C   0  0  0  0  0  0  0  0  0  0  0  0
   -1.3118    1.9282    2.6383 H   0  0  0  0  0  0  0  0  0  0  0  0
   -0.1249    2.9405    1.8202 H   0  0  0  0  0  0  0  0  0  0  0  0
   -2.1280    3.6938    1.6906 C   0  0  0  0  0  0  0  0  0  0  0  0
   -1.9357    4.3129    0.8082 H   0  0  0  0  0  0  0  0  0  0  0  0
   -3.1514    3.3084    1.6253 H   0  0  0  0  0  0  0  0  0  0  0  0
   -1.9696    4.5220    2.9643 C   0  0  0  0  0  0  0  0  0  0  0  0
   -2.1462    3.8722    3.8293 H   0  0  0  0  0  0  0  0  0  0  0  0
   -0.9427    4.9005    3.0188 H   0  0  0  0  0  0  0  0  0  0  0  0
   -2.9231    5.6465    2.9766 N   0  3  0  0  0  0  0  0  0  0  0  0
   -3.5330    5.7498    2.1668 H   0  0  0  0  0  0  0  0  0  0  0  0
   -3.0379    6.4757    3.9744 C   0  0  0  0  0  0  0  0  0  0  0  0
   -2.2632    6.3579    5.1065 N   0  0  0  0  0  0  0  0  0  0  0  0
   -1.7268    5.5006    5.2259 H   0  0  0  0  0  0  0  0  0  0  0  0
   -2.5444    6.8640    5.9439 H   0  0  0  0  0  0  0  0  0  0  0  0
   -3.9519    7.5003    3.9072 N   0  0  0  0  0  0  0  0  0  0  0  0
   -4.4000    7.7023    3.0157 H   0  0  0  0  0  0  0  0  0  0  0  0
   -3.8904    8.2520    4.5918 H   0  0  0  0  0  0  0  0  0  0  0  0
    0.0626    0.7197    0.4837 C   0  0  0  0  0  0  0  0  0  0  0  0
    0.0049   -0.5002    0.4231 O   0  0  0  0  0  0  0  0  0  0  0  0
    1.2754    1.2956    0.1389 N   0  0  0  0  0  0  0  0  0  0  0  0
    1.3178    2.3062    0.0601 H   0  0  0  0  0  0  0  0  0  0  0  0
    2.4871    0.5238   -0.1280 C   0  0  0  0  0  0  0  0  0  0  0  0
    2.3513   -0.1119   -1.0096 H   0  0  0  0  0  0  0  0  0  0  0  0
    3.3321    1.1943   -0.3131 H   0  0  0  0  0  0  0  0  0  0  0  0
    2.7340   -0.1129    0.7286 H   0  0  0  0  0  0  0  0  0  0  0  0
  1  2  1  0  0  0  0
  2  3  1  0  0  0  0
  2  4  1  0  0  0  0
  2  5  1  0  0  0  0
  5  6  2  0  0  0  0
  5  7  1  0  0  0  0
  7  8  1  0  0  0  0
  7  9  1  0  0  0  0
  9 10  1  0  0  0  0
  9 11  1  0  0  0  0
  9 29  1  0  0  0  0
 11 12  1  0  0  0  0
 11 13  1  0  0  0  0
 11 14  1  0  0  0  0
 14 15  1  0  0  0  0
 14 16  1  0  0  0  0
 14 17  1  0  0  0  0
 17 18  1  0  0  0  0
 17 19  1  0  0  0  0
 17 20  1  0  0  0  0
 20 21  1  0  0  0  0
 20 22  2  0  0  0  0
 22 23  1  0  0  0  0
 22 26  1  0  0  0  0
 23 24  1  0  0  0  0
 23 25  1  0  0  0  0
 26 27  1  0  0  0  0
 26 28  1  0  0  0  0
 29 30  2  0  0  0  0
 29 31  1  0  0  0  0
 31 32  1  0  0  0  0
 31 33  1  0  0  0  0
 33 34  1  0  0  0  0
 33 35  1  0  0  0  0
 33 36  1  0  0  0  0
M  CHG  1  20   1
M  END
$$$$

  -OEChem-02172215453D

 36 35  0     1  0  0  0  0  0999 V2000
   -3.7062   -2.2099    1.0163 H   0  0  0  0  0  0  0  0  0  0  0  0
   -3.6656   -1.2807    0.4409 C   0  0  0  0  0  0  0  0  0  0  0  0
   -4.6575   -0.8235    0.4374 H   0  0  0  0  0  0  0  0  0  0  0  0
   -3.3733   -1.5185   -0.5851 H   0  0  0  0  0  0  0  0  0  0  0  0
   -2.6518   -0.3344    1.0532 C   0  0  0  0  0  0  0  0  0  0  0  0
   -2.0426   -0.6676    2.0577 O   0  0  0  0  0  0  0  0  0  0  0  0
   -2.4888    0.9379    0.5249 N   0  0  0  0  0  0  0  0  0  0  0  0
   -3.0334    1.0665   -0.3237 H   0  0  0  0  0  0  0  0  0  0  0  0
   -1.1849    1.6436    0.5302 C   0  0  1  0  0  0  0  0  0  0  0  0
   -1.2358    2.4641   -0.1919 H   0  0  0  0  0  0  0  0  0  0  0  0
   -0.9247    2.2392    1.9357 C   0  0  0  0  0  0  0  0  0  0  0  0
   -0.9704    1.4570    2.6987 H   0  0  0  0  0  0  0  0  0  0  0  0
    0.0866    2.6559    1.9707 H   0  0  0  0  0  0  0  0  0  0  0  0
   -1.9124    3.3604    2.2795 C   0  0  0  0  0  0  0  0  0  0  0  0
   -1.8374    4.1642    1.5395 H   0  0  0  0  0  0  0  0  0  0  0  0
   -2.9351    2.9679    2.2589 H   0  0  0  0  0  0  0  0  0  0  0  0
   -1.5950    3.8951    3.6748 C   0  0  0  0  0  0  0  0  0  0  0  0
   -1.6591    3.0679    4.3910 H   0  0  0  0  0  0  0  0  0  0  0  0
   -0.5709    4.2846    3.6851 H   0  0  0  0  0  0  0  0  0  0  0  0
   -2.5440    4.9606    4.0467 N   0  3  0  0  0  0  0  0  0  0  0  0
   -3.2496    5.2167    3.3575 H   0  0  0  0  0  0  0  0  0  0  0  0
   -2.5395    5.5529    5.2064 C   0  0  0  0  0  0  0  0  0  0  0  0
   -1.6309    5.2204    6.1857 N   0  0  0  0  0  0  0  0  0  0  0  0
   -1.0808    4.3738    6.0531 H   0  0  0  0  0  0  0  0  0  0  0  0
   -1.8065    5.5299    7.1396 H   0  0  0  0  0  0  0  0  0  0  0  0
   -3.4625    6.5366    5.4711 N   0  0  0  0  0  0  0  0  0  0  0  0
   -4.0238    6.9040    4.7050 H   0  0  0  0  0  0  0  0  0  0  0  0
   -3.3237    7.1279    6.2889 H   0  0  0  0  0  0  0  0  0  0  0  0
    0.0160    0.7578    0.0849 C   0  0  0  0  0  0  0  0  0  0  0  0
   -0.1769   -0.2931   -0.5138 O   0  0  0  0  0  0  0  0  0  0  0  0
    1.2969    1.2844    0.0442 N   0  0  0  0  0  0  0  0  0  0  0  0
    1.4535    2.1922    0.4688 H   0  0  0  0  0  0  0  0  0  0  0  0
    2.4380    0.5688   -0.5205 C   0  0  0  0  0  0  0  0  0  0  0  0
    2.2899    0.3933   -1.5916 H   0  0  0  0  0  0  0  0  0  0  0  0
    3.3552    1.1510   -0.3903 H   0  0  0  0  0  0  0  0  0  0  0  0
    2.5695   -0.3977   -0.0215 H   0  0  0  0  0  0  0  0  0  0  0  0
  1  2  1  0  0  0  0
  2  3  1  0  0  0  0
  2  4  1  0  0  0  0
  2  5  1  0  0  0  0
  5  6  2  0  0  0  0
  5  7  1  0  0  0  0
  7  8  1  0  0  0  0
  7  9  1  0  0  0  0
  9 10  1  0  0  0  0
  9 11  1  0  0  0  0
  9 29  1  0  0  0  0
 11 12  1  0  0  0  0
 11 13  1  0  0  0  0
 11 14  1  0  0  0  0
 14 15  1  0  0  0  0
 14 16  1  0  0  0  0
 14 17  1  0  0  0  0
 17 18  1  0  0  0  0
 17 19  1  0  0  0  0
 17 20  1  0  0  0  0
 20 21  1  0  0  0  0
 20 22  2  0  0  0  0
 22 23  1  0  0  0  0
 22 26  1  0  0  0  0
 23 24  1  0  0  0  0
 23 25  1  0  0  0  0
 26 27  1  0  0  0  0
 26 28  1  0  0  0  0
 29 30  2  0  0  0  0
 29 31  1  0  0  0  0
 31 32  1  0  0  0  0
 31 33  1  0  0  0  0
 33 34  1  0  0  0  0
 33 35  1  0  0  0  0
 33 36  1  0  0  0  0
M  CHG  1  20   1
M  END
$$$$

  -OEChem-02172215453D

 36 35  0     1  0  0  0  0  0999 V2000
   -3.6230   -2.2203    0.9730 H   0  0  0  0  0  0  0  0  0  0  0  0
   -3.6425   -1.2582    0.4532 C   0  0  0  0  0  0  0  0  0  0  0  0
   -4.6396   -0.8239    0.5517 H   0  0  0  0  0  0  0  0  0  0  0  0
   -3.4260   -1.4292   -0.6046 H   0  0  0  0  0  0  0  0  0  0  0  0
   -2.6036   -0.3256    1.0445 C   0  0  0  0  0  0  0  0  0  0  0  0
   -1.9405   -0.6853    2.0051 O   0  0  0  0  0  0  0  0  0  0  0  0
   -2.4641    0.9578    0.5381 N   0  0  0  0  0  0  0  0  0  0  0  0
   -3.0234    1.0992   -0.2992 H   0  0  0  0  0  0  0  0  0  0  0  0
   -1.1668    1.6729    0.5419 C   0  0  1  0  0  0  0  0  0  0  0  0
   -1.2226    2.5000   -0.1724 H   0  0  0  0  0  0  0  0  0  0  0  0
   -0.9051    2.2620    1.9506 C   0  0  0  0  0  0  0  0  0  0  0  0
   -0.9411    1.4754    2.7099 H   0  0  0  0  0  0  0  0  0  0  0  0
    0.0995    2.6939    1.9830 H   0  0  0  0  0  0  0  0  0  0  0  0
   -1.9042    3.3724    2.2990 C   0  0  0  0  0  0  0  0  0  0  0  0
   -1.8370    4.1782    1.5602 H   0  0  0  0  0  0  0  0  0  0  0  0
   -2.9228    2.9695    2.2760 H   0  0  0  0  0  0  0  0  0  0  0  0
   -1.5979    3.9119    3.6947 C   0  0  0  0  0  0  0  0  0  0  0  0
   -1.6539    3.0861    4.4129 H   0  0  0  0  0  0  0  0  0  0  0  0
   -0.5798    4.3167    3.7084 H   0  0  0  0  0  0  0  0  0  0  0  0
   -2.5647    4.9645    4.0569 N   0  3  0  0  0  0  0  0  0  0  0  0
   -3.2724    5.2035    3.3635 H   0  0  0  0  0  0  0  0  0  0  0  0
   -2.5772    5.5616    5.2141 C   0  0  0  0  0  0  0  0  0  0  0  0
   -1.6714    5.2485    6.2022 N   0  0  0  0  0  0  0  0  0  0  0  0
   -1.0967    4.4180    6.0735 H   0  0  0  0  0  0  0  0  0  0  0  0
   -1.8641    5.5527    7.1544 H   0  0  0  0  0  0  0  0  0  0  0  0
   -3.5206    6.5278    5.4700 N   0  0  0  0  0  0  0  0  0  0  0  0
   -4.0791    6.8865    4.6981 H   0  0  0  0  0  0  0  0  0  0  0  0
   -3.4001    7.1209    6.2891 H   0  0  0  0  0  0  0  0  0  0  0  0
    0.0119    0.7763    0.0609 C   0  0  0  0  0  0  0  0  0  0  0  0
   -0.2116   -0.1274   -0.7358 O   0  0  0  0  0  0  0  0  0  0  0  0
    1.3333    1.1328    0.2740 N   0  0  0  0  0  0  0  0  0  0  0  0
    1.5221    1.8796    0.9337 H   0  0  0  0  0  0  0  0  0  0  0  0
    2.4575    0.3594   -0.2466 C   0  0  0  0  0  0  0  0  0  0  0  0
    2.4361    0.3394   -1.3416 H   0  0  0  0  0  0  0  0  0  0  0  0
    3.4054    0.8041    0.0708 H   0  0  0  0  0  0  0  0  0  0  0  0
    2.4180   -0.6711    0.1232 H   0  0  0  0  0  0  0  0  0  0  0  0
  1  2  1  0  0  0  0
  2  3  1  0  0  0  0
  2  4  1  0  0  0  0
  2  5  1  0  0  0  0
  5  6  2  0  0  0  0
  5  7  1  0  0  0  0
  7  8  1  0  0  0  0
  7  9  1  0  0  0  0
  9 10  1  0  0  0  0
  9 11  1  0  0  0  0
  9 29  1  0  0  0  0
 11 12  1  0  0  0  0
 11 13  1  0  0  0  0
 11 14  1  0  0  0  0
 14 15  1  0  0  0  0
 14 16  1  0  0  0  0
 14 17  1  0  0  0  0
 17 18  1  0  0  0  0
 17 19  1  0  0  0  0
 17 20  1  0  0  0  0
 20 21  1  0  0  0  0
 20 22  2  0  0  0  0
 22 23  1  0  0  0  0
 22 26  1  0  0  0  0
 23 24  1  0  0  0  0
 23 25  1  0  0  0  0
 26 27  1  0  0  0  0
 26 28  1  0  0  0  0
 29 30  2  0  0  0  0
 29 31  1  0  0  0  0
 31 32  1  0  0  0  0
 31 33  1  0  0  0  0
 33 34  1  0  0  0  0
 33 35  1  0  0  0  0
 33 36  1  0  0  0  0
M  CHG  1  20   1
M  END
$$$$

  -OEChem-02172215453D

 36 35  0     1  0  0  0  0  0999 V2000
   -3.5986   -2.2131    0.9886 H   0  0  0  0  0  0  0  0  0  0  0  0
   -3.6182   -1.2541    0.4628 C   0  0  0  0  0  0  0  0  0  0  0  0
   -4.6102   -0.8110    0.5741 H   0  0  0  0  0  0  0  0  0  0  0  0
   -3.4199   -1.4333   -0.5970 H   0  0  0  0  0  0  0  0  0  0  0  0
   -2.5630   -0.3256    1.0314 C   0  0  0  0  0  0  0  0  0  0  0  0
   -1.8570   -0.7021    1.9544 O   0  0  0  0  0  0  0  0  0  0  0  0
   -2.4443    0.9661    0.5421 N   0  0  0  0  0  0  0  0  0  0  0  0
   -3.0155    1.1194   -0.2853 H   0  0  0  0  0  0  0  0  0  0  0  0
   -1.1553    1.6935    0.5513 C   0  0  1  0  0  0  0  0  0  0  0  0
   -1.2158    2.5233   -0.1595 H   0  0  0  0  0  0  0  0  0  0  0  0
   -0.8983    2.2833    1.9598 C   0  0  0  0  0  0  0  0  0  0  0  0
   -0.9278    1.4951    2.7183 H   0  0  0  0  0  0  0  0  0  0  0  0
    0.1017    2.7267    1.9892 H   0  0  0  0  0  0  0  0  0  0  0  0
   -1.9086    3.3844    2.3067 C   0  0  0  0  0  0  0  0  0  0  0  0
   -1.8483    4.1905    1.5674 H   0  0  0  0  0  0  0  0  0  0  0  0
   -2.9234    2.9722    2.2823 H   0  0  0  0  0  0  0  0  0  0  0  0
   -1.6089    3.9276    3.7025 C   0  0  0  0  0  0  0  0  0  0  0  0
   -1.6580    3.1014    4.4207 H   0  0  0  0  0  0  0  0  0  0  0  0
   -0.5945    4.3415    3.7166 H   0  0  0  0  0  0  0  0  0  0  0  0
   -2.5848    4.9715    4.0649 N   0  3  0  0  0  0  0  0  0  0  0  0
   -3.2891    5.2113    3.3685 H   0  0  0  0  0  0  0  0  0  0  0  0
   -2.6024    5.5679    5.2223 C   0  0  0  0  0  0  0  0  0  0  0  0
   -1.6940    5.2621    6.2101 N   0  0  0  0  0  0  0  0  0  0  0  0
   -1.1158    4.4339    6.0824 H   0  0  0  0  0  0  0  0  0  0  0  0
   -1.8901    5.5645    7.1624 H   0  0  0  0  0  0  0  0  0  0  0  0
   -3.5497    6.5305    5.4766 N   0  0  0  0  0  0  0  0  0  0  0  0
   -4.1069    6.8876    4.7029 H   0  0  0  0  0  0  0  0  0  0  0  0
   -3.4297    7.1268    6.2936 H   0  0  0  0  0  0  0  0  0  0  0  0
    0.0141    0.7981    0.0505 C   0  0  0  0  0  0  0  0  0  0  0  0
   -0.1906    0.0558   -0.9023 O   0  0  0  0  0  0  0  0  0  0  0  0
    1.3170    0.9530    0.4934 N   0  0  0  0  0  0  0  0  0  0  0  0
    1.4598    1.4985    1.3363 H   0  0  0  0  0  0  0  0  0  0  0  0
    2.4145    0.1169    0.0154 C   0  0  0  0  0  0  0  0  0  0  0  0
    2.5402    0.2283   -1.0670 H   0  0  0  0  0  0  0  0  0  0  0  0
    3.3518    0.4050    0.5012 H   0  0  0  0  0  0  0  0  0  0  0  0
    2.2180   -0.9375    0.2384 H   0  0  0  0  0  0  0  0  0  0  0  0
  1  2  1  0  0  0  0
  2  3  1  0  0  0  0
  2  4  1  0  0  0  0
  2  5  1  0  0  0  0
  5  6  2  0  0  0  0
  5  7  1  0  0  0  0
  7  8  1  0  0  0  0
  7  9  1  0  0  0  0
  9 10  1  0  0  0  0
  9 11  1  0  0  0  0
  9 29  1  0  0  0  0
 11 12  1  0  0  0  0
 11 13  1  0  0  0  0
 11 14  1  0  0  0  0
 14 15  1  0  0  0  0
 14 16  1  0  0  0  0
 14 17  1  0  0  0  0
 17 18  1  0  0  0  0
 17 19  1  0  0  0  0
 17 20  1  0  0  0  0
 20 21  1  0  0  0  0
 20 22  2  0  0  0  0
 22 23  1  0  0  0  0
 22 26  1  0  0  0  0
 23 24  1  0  0  0  0
 23 25  1  0  0  0  0
 26 27  1  0  0  0  0
 26 28  1  0  0  0  0
 29 30  2  0  0  0  0
 29 31  1  0  0  0  0
 31 32  1  0  0  0  0
 31 33  1  0  0  0  0
 33 34  1  0  0  0  0
 33 35  1  0  0  0  0
 33 36  1  0  0  0  0
M  CHG  1  20   1
M  END
$$$$

  -OEChem-02172215453D

 36 35  0     1  0  0  0  0  0999 V2000
   -3.5509   -2.2274    0.9526 H   0  0  0  0  0  0  0  0  0  0  0  0
   -3.6092   -1.2487    0.4678 C   0  0  0  0  0  0  0  0  0  0  0  0
   -4.6006   -0.8258    0.6448 H   0  0  0  0  0  0  0  0  0  0  0  0
   -3.4608   -1.3827   -0.6069 H   0  0  0  0  0  0  0  0  0  0  0  0
   -2.5404   -0.3283    1.0233 C   0  0  0  0  0  0  0  0  0  0  0  0
   -1.8088   -0.7187    1.9203 O   0  0  0  0  0  0  0  0  0  0  0  0
   -2.4299    0.9686    0.5475 N   0  0  0  0  0  0  0  0  0  0  0  0
   -3.0117    1.1375   -0.2696 H   0  0  0  0  0  0  0  0  0  0  0  0
   -1.1451    1.7011    0.5644 C   0  0  1  0  0  0  0  0  0  0  0  0
   -1.2086    2.5345   -0.1423 H   0  0  0  0  0  0  0  0  0  0  0  0
   -0.8876    2.2890    1.9724 C   0  0  0  0  0  0  0  0  0  0  0  0
   -0.9180    1.4994    2.7297 H   0  0  0  0  0  0  0  0  0  0  0  0
    0.1133    2.7320    1.9990 H   0  0  0  0  0  0  0  0  0  0  0  0
   -1.9015    3.3867    2.3188 C   0  0  0  0  0  0  0  0  0  0  0  0
   -1.8427    4.1920    1.5787 H   0  0  0  0  0  0  0  0  0  0  0  0
   -2.9149    2.9713    2.2934 H   0  0  0  0  0  0  0  0  0  0  0  0
   -1.6072    3.9335    3.7142 C   0  0  0  0  0  0  0  0  0  0  0  0
   -1.6546    3.1092    4.4345 H   0  0  0  0  0  0  0  0  0  0  0  0
   -0.5943    4.3509    3.7301 H   0  0  0  0  0  0  0  0  0  0  0  0
   -2.5907    4.9736    4.0683 N   0  3  0  0  0  0  0  0  0  0  0  0
   -3.2892    5.2108    3.3651 H   0  0  0  0  0  0  0  0  0  0  0  0
   -2.6194    5.5759    5.2223 C   0  0  0  0  0  0  0  0  0  0  0  0
   -1.7160    5.2815    6.2181 N   0  0  0  0  0  0  0  0  0  0  0  0
   -1.1371    4.4519    6.1042 H   0  0  0  0  0  0  0  0  0  0  0  0
   -1.9122    5.6005    7.1648 H   0  0  0  0  0  0  0  0  0  0  0  0
   -3.5718    6.5373    5.4628 N   0  0  0  0  0  0  0  0  0  0  0  0
   -4.1218    6.8894    4.6817 H   0  0  0  0  0  0  0  0  0  0  0  0
   -3.4579    7.1407    6.2754 H   0  0  0  0  0  0  0  0  0  0  0  0
    0.0210    0.8107    0.0540 C   0  0  0  0  0  0  0  0  0  0  0  0
   -0.1260    0.2405   -1.0195 O   0  0  0  0  0  0  0  0  0  0  0  0
    1.2491    0.7384    0.6892 N   0  0  0  0  0  0  0  0  0  0  0  0
    1.2858    1.0710    1.6471 H   0  0  0  0  0  0  0  0  0  0  0  0
    2.3141   -0.1478    0.2290 C   0  0  0  0  0  0  0  0  0  0  0  0
    2.5934    0.0893   -0.8035 H   0  0  0  0  0  0  0  0  0  0  0  0
    3.2019   -0.0343    0.8584 H   0  0  0  0  0  0  0  0  0  0  0  0
    1.9881   -1.1928    0.2729 H   0  0  0  0  0  0  0  0  0  0  0  0
  1  2  1  0  0  0  0
  2  3  1  0  0  0  0
  2  4  1  0  0  0  0
  2  5  1  0  0  0  0
  5  6  2  0  0  0  0
  5  7  1  0  0  0  0
  7  8  1  0  0  0  0
  7  9  1  0  0  0  0
  9 10  1  0  0  0  0
  9 11  1  0  0  0  0
  9 29  1  0  0  0  0
 11 12  1  0  0  0  0
 11 13  1  0  0  0  0
 11 14  1  0  0  0  0
 14 15  1  0  0  0  0
 14 16  1  0  0  0  0
 14 17  1  0  0  0  0
 17 18  1  0  0  0  0
 17 19  1  0  0  0  0
 17 20  1  0  0  0  0
 20 21  1  0  0  0  0
 20 22  2  0  0  0  0
 22 23  1  0  0  0  0
 22 26  1  0  0  0  0
 23 24  1  0  0  0  0
 23 25  1  0  0  0  0
 26 27  1  0  0  0  0
 26 28  1  0  0  0  0
 29 30  2  0  0  0  0
 29 31  1  0  0  0  0
 31 32  1  0  0  0  0
 31 33  1  0  0  0  0
 33 34  1  0  0  0  0
 33 35  1  0  0  0  0
 33 36  1  0  0  0  0
M  CHG  1  20   1
M  END
$$$$

  -OEChem-02172215453D

 36 35  0     1  0  0  0  0  0999 V2000
   -3.5658   -2.2223    0.9581 H   0  0  0  0  0  0  0  0  0  0  0  0
   -3.6299   -1.2368    0.4879 C   0  0  0  0  0  0  0  0  0  0  0  0
   -4.6088   -0.8048    0.7076 H   0  0  0  0  0  0  0  0  0  0  0  0
   -3.5251   -1.3589   -0.5932 H   0  0  0  0  0  0  0  0  0  0  0  0
   -2.5297   -0.3355    1.0138 C   0  0  0  0  0  0  0  0  0  0  0  0
   -1.7789   -0.7389    1.8892 O   0  0  0  0  0  0  0  0  0  0  0  0
   -2.4141    0.9615    0.5405 N   0  0  0  0  0  0  0  0  0  0  0  0
   -3.0071    1.1460   -0.2652 H   0  0  0  0  0  0  0  0  0  0  0  0
   -1.1333    1.6990    0.5666 C   0  0  1  0  0  0  0  0  0  0  0  0
   -1.1963    2.5309   -0.1424 H   0  0  0  0  0  0  0  0  0  0  0  0
   -0.8819    2.2909    1.9729 C   0  0  0  0  0  0  0  0  0  0  0  0
   -0.9189    1.5020    2.7304 H   0  0  0  0  0  0  0  0  0  0  0  0
    0.1213    2.7301    2.0008 H   0  0  0  0  0  0  0  0  0  0  0  0
   -1.8984    3.3872    2.3157 C   0  0  0  0  0  0  0  0  0  0  0  0
   -1.8391    4.1917    1.5744 H   0  0  0  0  0  0  0  0  0  0  0  0
   -2.9111    2.9704    2.2886 H   0  0  0  0  0  0  0  0  0  0  0  0
   -1.6066    3.9363    3.7108 C   0  0  0  0  0  0  0  0  0  0  0  0
   -1.6525    3.1135    4.4331 H   0  0  0  0  0  0  0  0  0  0  0  0
   -0.5947    4.3570    3.7269 H   0  0  0  0  0  0  0  0  0  0  0  0
   -2.5923    4.9750    4.0626 N   0  3  0  0  0  0  0  0  0  0  0  0
   -3.2934    5.2071    3.3604 H   0  0  0  0  0  0  0  0  0  0  0  0
   -2.6222    5.5780    5.2161 C   0  0  0  0  0  0  0  0  0  0  0  0
   -1.7179    5.2847    6.2114 N   0  0  0  0  0  0  0  0  0  0  0  0
   -1.1239    4.4672    6.0883 H   0  0  0  0  0  0  0  0  0  0  0  0
   -1.9215    5.5894    7.1613 H   0  0  0  0  0  0  0  0  0  0  0  0
   -3.5804    6.5333    5.4582 N   0  0  0  0  0  0  0  0  0  0  0  0
   -4.1346    6.8810    4.6780 H   0  0  0  0  0  0  0  0  0  0  0  0
   -3.4685    7.1379    6.2702 H   0  0  0  0  0  0  0  0  0  0  0  0
    0.0403    0.8165    0.0661 C   0  0  0  0  0  0  0  0  0  0  0  0
    0.0044    0.4322   -1.0952 O   0  0  0  0  0  0  0  0  0  0  0  0
    1.1399    0.5114    0.8496 N   0  0  0  0  0  0  0  0  0  0  0  0
    1.0170    0.6344    1.8500 H   0  0  0  0  0  0  0  0  0  0  0  0
    2.1740   -0.4159    0.4017 C   0  0  0  0  0  0  0  0  0  0  0  0
    2.6325   -0.0618   -0.5278 H   0  0  0  0  0  0  0  0  0  0  0  0
    2.9590   -0.5049    1.1588 H   0  0  0  0  0  0  0  0  0  0  0  0
    1.7463   -1.4087    0.2255 H   0  0  0  0  0  0  0  0  0  0  0  0
  1  2  1  0  0  0  0
  2  3  1  0  0  0  0
  2  4  1  0  0  0  0
  2  5  1  0  0  0  0
  5  6  2  0  0  0  0
  5  7  1  0  0  0  0
  7  8  1  0  0  0  0
  7  9  1  0  0  0  0
  9 10  1  0  0  0  0
  9 11  1  0  0  0  0
  9 29  1  0  0  0  0
 11 12  1  0  0  0  0
 11 13  1  0  0  0  0
 11 14  1  0  0  0  0
 14 15  1  0  0  0  0
 14 16  1  0  0  0  0
 14 17  1  0  0  0  0
 17 18  1  0  0  0  0
 17 19  1  0  0  0  0
 17 20  1  0  0  0  0
 20 21  1  0  0  0  0
 20 22  2  0  0  0  0
 22 23  1  0  0  0  0
 22 26  1  0  0  0  0
 23 24  1  0  0  0  0
 23 25  1  0  0  0  0
 26 27  1  0  0  0  0
 26 28  1  0  0  0  0
 29 30  2  0  0  0  0
 29 31  1  0  0  0  0
 31 32  1  0  0  0  0
 31 33  1  0  0  0  0
 33 34  1  0  0  0  0
 33 35  1  0  0  0  0
 33 36  1  0  0  0  0
M  CHG  1  20   1
M  END
$$$$

  -OEChem-02172215453D

 36 35  0     1  0  0  0  0  0999 V2000
   -3.6145   -2.2192    0.9660 H   0  0  0  0  0  0  0  0  0  0  0  0
   -3.6703   -1.2325    0.4976 C   0  0  0  0  0  0  0  0  0  0  0  0
   -4.6381   -0.7844    0.7340 H   0  0  0  0  0  0  0  0  0  0  0  0
   -3.5859   -1.3552   -0.5851 H   0  0  0  0  0  0  0  0  0  0  0  0
   -2.5477   -0.3494    1.0068 C   0  0  0  0  0  0  0  0  0  0  0  0
   -1.7937   -0.7628    1.8750 O   0  0  0  0  0  0  0  0  0  0  0  0
   -2.4174    0.9448    0.5315 N   0  0  0  0  0  0  0  0  0  0  0  0
   -3.0168    1.1458   -0.2658 H   0  0  0  0  0  0  0  0  0  0  0  0
   -1.1365    1.6799    0.5672 C   0  0  1  0  0  0  0  0  0  0  0  0
   -1.1969    2.5109   -0.1433 H   0  0  0  0  0  0  0  0  0  0  0  0
   -0.8883    2.2761    1.9712 C   0  0  0  0  0  0  0  0  0  0  0  0
   -0.9322    1.4897    2.7313 H   0  0  0  0  0  0  0  0  0  0  0  0
    0.1193    2.7057    1.9999 H   0  0  0  0  0  0  0  0  0  0  0  0
   -1.8997    3.3778    2.3103 C   0  0  0  0  0  0  0  0  0  0  0  0
   -1.8346    4.1809    1.5680 H   0  0  0  0  0  0  0  0  0  0  0  0
   -2.9144    2.9659    2.2820 H   0  0  0  0  0  0  0  0  0  0  0  0
   -1.6056    3.9274    3.7047 C   0  0  0  0  0  0  0  0  0  0  0  0
   -1.6548    3.1055    4.4281 H   0  0  0  0  0  0  0  0  0  0  0  0
   -0.5914    4.3423    3.7195 H   0  0  0  0  0  0  0  0  0  0  0  0
   -2.5851    4.9723    4.0561 N   0  3  0  0  0  0  0  0  0  0  0  0
   -3.2833    5.2103    3.3528 H   0  0  0  0  0  0  0  0  0  0  0  0
   -2.6102    5.5763    5.2094 C   0  0  0  0  0  0  0  0  0  0  0  0
   -1.7061    5.2774    6.2033 N   0  0  0  0  0  0  0  0  0  0  0  0
   -1.1162    4.4569    6.0796 H   0  0  0  0  0  0  0  0  0  0  0  0
   -1.9029    5.5872    7.1529 H   0  0  0  0  0  0  0  0  0  0  0  0
   -3.5600    6.5403    5.4518 N   0  0  0  0  0  0  0  0  0  0  0  0
   -4.1139    6.8907    4.6725 H   0  0  0  0  0  0  0  0  0  0  0  0
   -3.4415    7.1455    6.2625 H   0  0  0  0  0  0  0  0  0  0  0  0
    0.0500    0.8071    0.0849 C   0  0  0  0  0  0  0  0  0  0  0  0
    0.1775    0.6330   -1.1188 O   0  0  0  0  0  0  0  0  0  0  0  0
    0.9770    0.2682    0.9595 N   0  0  0  0  0  0  0  0  0  0  0  0
    0.6533    0.1750    1.9196 H   0  0  0  0  0  0  0  0  0  0  0  0
    2.0168   -0.6517    0.5096 C   0  0  0  0  0  0  0  0  0  0  0  0
    2.6472   -0.1794   -0.2516 H   0  0  0  0  0  0  0  0  0  0  0  0
    2.6545   -0.9429    1.3496 H   0  0  0  0  0  0  0  0  0  0  0  0
    1.5700   -1.5562    0.0832 H   0  0  0  0  0  0  0  0  0  0  0  0
  1  2  1  0  0  0  0
  2  3  1  0  0  0  0
  2  4  1  0  0  0  0
  2  5  1  0  0  0  0
  5  6  2  0  0  0  0
  5  7  1  0  0  0  0
  7  8  1  0  0  0  0
  7  9  1  0  0  0  0
  9 10  1  0  0  0  0
  9 11  1  0  0  0  0
  9 29  1  0  0  0  0
 11 12  1  0  0  0  0
 11 13  1  0  0  0  0
 11 14  1  0  0  0  0
 14 15  1  0  0  0  0
 14 16  1  0  0  0  0
 14 17  1  0  0  0  0
 17 18  1  0  0  0  0
 17 19  1  0  0  0  0
 17 20  1  0  0  0  0
 20 21  1  0  0  0  0
 20 22  2  0  0  0  0
 22 23  1  0  0  0  0
 22 26  1  0  0  0  0
 23 24  1  0  0  0  0
 23 25  1  0  0  0  0
 26 27  1  0  0  0  0
 26 28  1  0  0  0  0
 29 30  2  0  0  0  0
 29 31  1  0  0  0  0
 31 32  1  0  0  0  0
 31 33  1  0  0  0  0
 33 34  1  0  0  0  0
 33 35  1  0  0  0  0
 33 36  1  0  0  0  0
M  CHG  1  20   1
M  END
$$$$

  -OEChem-02172215453D

 36 35  0     1  0  0  0  0  0999 V2000
   -3.7000   -2.2126    0.9697 H   0  0  0  0  0  0  0  0  0  0  0  0
   -3.7395   -1.2239    0.5034 C   0  0  0  0  0  0  0  0  0  0  0  0
   -4.6967   -0.7569    0.7465 H   0  0  0  0  0  0  0  0  0  0  0  0
   -3.6651   -1.3468   -0.5798 H   0  0  0  0  0  0  0  0  0  0  0  0
   -2.5963   -0.3642    1.0068 C   0  0  0  0  0  0  0  0  0  0  0  0
   -1.8548   -0.7896    1.8801 O   0  0  0  0  0  0  0  0  0  0  0  0
   -2.4354    0.9229    0.5216 N   0  0  0  0  0  0  0  0  0  0  0  0
   -3.0452    1.1443   -0.2625 H   0  0  0  0  0  0  0  0  0  0  0  0
   -1.1505    1.6527    0.5598 C   0  0  1  0  0  0  0  0  0  0  0  0
   -1.2092    2.4814   -0.1541 H   0  0  0  0  0  0  0  0  0  0  0  0
   -0.9023    2.2533    1.9605 C   0  0  0  0  0  0  0  0  0  0  0  0
   -0.9530    1.4697    2.7231 H   0  0  0  0  0  0  0  0  0  0  0  0
    0.1091    2.6739    1.9890 H   0  0  0  0  0  0  0  0  0  0  0  0
   -1.9055    3.3624    2.2969 C   0  0  0  0  0  0  0  0  0  0  0  0
   -1.8351    4.1637    1.5534 H   0  0  0  0  0  0  0  0  0  0  0  0
   -2.9232    2.9585    2.2706 H   0  0  0  0  0  0  0  0  0  0  0  0
   -1.6028    3.9095    3.6905 C   0  0  0  0  0  0  0  0  0  0  0  0
   -1.6576    3.0880    4.4135 H   0  0  0  0  0  0  0  0  0  0  0  0
   -0.5847    4.3150    3.7027 H   0  0  0  0  0  0  0  0  0  0  0  0
   -2.5711    4.9628    4.0463 N   0  3  0  0  0  0  0  0  0  0  0  0
   -3.2675    5.2102    3.3449 H   0  0  0  0  0  0  0  0  0  0  0  0
   -2.5858    5.5654    5.2004 C   0  0  0  0  0  0  0  0  0  0  0  0
   -1.6809    5.2573    6.1908 N   0  0  0  0  0  0  0  0  0  0  0  0
   -1.0956    4.4343    6.0627 H   0  0  0  0  0  0  0  0  0  0  0  0
   -1.8707    5.5676    7.1416 H   0  0  0  0  0  0  0  0  0  0  0  0
   -3.5262    6.5368    5.4480 N   0  0  0  0  0  0  0  0  0  0  0  0
   -4.0769    6.8949    4.6701 H   0  0  0  0  0  0  0  0  0  0  0  0
   -3.3981    7.1400    6.2588 H   0  0  0  0  0  0  0  0  0  0  0  0
    0.0549    0.7924    0.1043 C   0  0  0  0  0  0  0  0  0  0  0  0
    0.3866    0.8432   -1.0713 O   0  0  0  0  0  0  0  0  0  0  0  0
    0.7906    0.0316    0.9946 N   0  0  0  0  0  0  0  0  0  0  0  0
    0.2842   -0.2251    1.8428 H   0  0  0  0  0  0  0  0  0  0  0  0
    1.8579   -0.8599    0.5531 C   0  0  0  0  0  0  0  0  0  0  0  0
    2.6323   -0.2994    0.0183 H   0  0  0  0  0  0  0  0  0  0  0  0
    2.3225   -1.3492    1.4147 H   0  0  0  0  0  0  0  0  0  0  0  0
    1.4610   -1.6334   -0.1129 H   0  0  0  0  0  0  0  0  0  0  0  0
  1  2  1  0  0  0  0
  2  3  1  0  0  0  0
  2  4  1  0  0  0  0
  2  5  1  0  0  0  0
  5  6  2  0  0  0  0
  5  7  1  0  0  0  0
  7  8  1  0  0  0  0
  7  9  1  0  0  0  0
  9 10  1  0  0  0  0
  9 11  1  0  0  0  0
  9 29  1  0  0  0  0
 11 12  1  0  0  0  0
 11 13  1  0  0  0  0
 11 14  1  0  0  0  0
 14 15  1  0  0  0  0
 14 16  1  0  0  0  0
 14 17  1  0  0  0  0
 17 18  1  0  0  0  0
 17 19  1  0  0  0  0
 17 20  1  0  0  0  0
 20 21  1  0  0  0  0
 20 22  2  0  0  0  0
 22 23  1  0  0  0  0
 22 26  1  0  0  0  0
 23 24  1  0  0  0  0
 23 25  1  0  0  0  0
 26 27  1  0  0  0  0
 26 28  1  0  0  0  0
 29 30  2  0  0  0  0
 29 31  1  0  0  0  0
 31 32  1  0  0  0  0
 31 33  1  0  0  0  0
 33 34  1  0  0  0  0
 33 35  1  0  0  0  0
 33 36  1  0  0  0  0
M  CHG  1  20   1
M  END
$$$$

  -OEChem-02172215453D

 36 35  0     1  0  0  0  0  0999 V2000
   -3.8143   -2.2016    0.9730 H   0  0  0  0  0  0  0  0  0  0  0  0
   -3.8148   -1.2213    0.4874 C   0  0  0  0  0  0  0  0  0  0  0  0
   -4.7687   -0.7291    0.6903 H   0  0  0  0  0  0  0  0  0  0  0  0
   -3.7084   -1.3660   -0.5908 H   0  0  0  0  0  0  0  0  0  0  0  0
   -2.6683   -0.3784    1.0120 C   0  0  0  0  0  0  0  0  0  0  0  0
   -1.9603   -0.8103    1.9089 O   0  0  0  0  0  0  0  0  0  0  0  0
   -2.4689    0.8985    0.5151 N   0  0  0  0  0  0  0  0  0  0  0  0
   -3.0788    1.1309   -0.2656 H   0  0  0  0  0  0  0  0  0  0  0  0
   -1.1779    1.6221    0.5496 C   0  0  1  0  0  0  0  0  0  0  0  0
   -1.2390    2.4467   -0.1690 H   0  0  0  0  0  0  0  0  0  0  0  0
   -0.9277    2.2282    1.9467 C   0  0  0  0  0  0  0  0  0  0  0  0
   -0.9814    1.4460    2.7108 H   0  0  0  0  0  0  0  0  0  0  0  0
    0.0869    2.6417    1.9741 H   0  0  0  0  0  0  0  0  0  0  0  0
   -1.9205    3.3459    2.2846 C   0  0  0  0  0  0  0  0  0  0  0  0
   -1.8452    4.1470    1.5415 H   0  0  0  0  0  0  0  0  0  0  0  0
   -2.9422    2.9514    2.2635 H   0  0  0  0  0  0  0  0  0  0  0  0
   -1.6044    3.8888    3.6767 C   0  0  0  0  0  0  0  0  0  0  0  0
   -1.6630    3.0659    4.3980 H   0  0  0  0  0  0  0  0  0  0  0  0
   -0.5820    4.2834    3.6826 H   0  0  0  0  0  0  0  0  0  0  0  0
   -2.5584    4.9522    4.0416 N   0  3  0  0  0  0  0  0  0  0  0  0
   -3.2525    5.2142    3.3428 H   0  0  0  0  0  0  0  0  0  0  0  0
   -2.5574    5.5522    5.1975 C   0  0  0  0  0  0  0  0  0  0  0  0
   -1.6489    5.2317    6.1809 N   0  0  0  0  0  0  0  0  0  0  0  0
   -1.0787    4.3985    6.0496 H   0  0  0  0  0  0  0  0  0  0  0  0
   -1.8259    5.5459    7.1331 H   0  0  0  0  0  0  0  0  0  0  0  0
   -3.4796    6.5394    5.4516 N   0  0  0  0  0  0  0  0  0  0  0  0
   -4.0305    6.9056    4.6777 H   0  0  0  0  0  0  0  0  0  0  0  0
   -3.3323    7.1438    6.2580 H   0  0  0  0  0  0  0  0  0  0  0  0
    0.0523    0.7820    0.1216 C   0  0  0  0  0  0  0  0  0  0  0  0
    0.5698    1.0273   -0.9585 O   0  0  0  0  0  0  0  0  0  0  0  0
    0.6108   -0.1808    0.9411 N   0  0  0  0  0  0  0  0  0  0  0  0
    0.0009   -0.5141    1.6911 H   0  0  0  0  0  0  0  0  0  0  0  0
    1.7021   -1.0466    0.5086 C   0  0  0  0  0  0  0  0  0  0  0  0
    2.5681   -0.4504    0.2021 H   0  0  0  0  0  0  0  0  0  0  0  0
    2.0107   -1.7036    1.3274 H   0  0  0  0  0  0  0  0  0  0  0  0
    1.3871   -1.6679   -0.3364 H   0  0  0  0  0  0  0  0  0  0  0  0
  1  2  1  0  0  0  0
  2  3  1  0  0  0  0
  2  4  1  0  0  0  0
  2  5  1  0  0  0  0
  5  6  2  0  0  0  0
  5  7  1  0  0  0  0
  7  8  1  0  0  0  0
  7  9  1  0  0  0  0
  9 10  1  0  0  0  0
  9 11  1  0  0  0  0
  9 29  1  0  0  0  0
 11 12  1  0  0  0  0
 11 13  1  0  0  0  0
 11 14  1  0  0  0  0
 14 15  1  0  0  0  0
 14 16  1  0  0  0  0
 14 17  1  0  0  0  0
 17 18  1  0  0  0  0
 17 19  1  0  0  0  0
 17 20  1  0  0  0  0
 20 21  1  0  0  0  0
 20 22  2  0  0  0  0
 22 23  1  0  0  0  0
 22 26  1  0  0  0  0
 23 24  1  0  0  0  0
 23 25  1  0  0  0  0
 26 27  1  0  0  0  0
 26 28  1  0  0  0  0
 29 30  2  0  0  0  0
 29 31  1  0  0  0  0
 31 32  1  0  0  0  0
 31 33  1  0  0  0  0
 33 34  1  0  0  0  0
 33 35  1  0  0  0  0
 33 36  1  0  0  0  0
M  CHG  1  20   1
M  END
$$$$

  -OEChem-02172215453D

 36 35  0     1  0  0  0  0  0999 V2000
   -3.9768   -2.1431    1.0053 H   0  0  0  0  0  0  0  0  0  0  0  0
   -3.9499   -1.1579    0.5306 C   0  0  0  0  0  0  0  0  0  0  0  0
   -4.8673   -0.6208    0.7822 H   0  0  0  0  0  0  0  0  0  0  0  0
   -3.8994   -1.2945   -0.5525 H   0  0  0  0  0  0  0  0  0  0  0  0
   -2.7416   -0.3790    1.0137 C   0  0  0  0  0  0  0  0  0  0  0  0
   -2.0483   -0.8363    1.9081 O   0  0  0  0  0  0  0  0  0  0  0  0
   -2.4921    0.8829    0.5032 N   0  0  0  0  0  0  0  0  0  0  0  0
   -3.1163    1.1429   -0.2572 H   0  0  0  0  0  0  0  0  0  0  0  0
   -1.1905    1.5923    0.5239 C   0  0  1  0  0  0  0  0  0  0  0  0
   -1.2504    2.4147   -0.1972 H   0  0  0  0  0  0  0  0  0  0  0  0
   -0.9370    2.1936    1.9216 C   0  0  0  0  0  0  0  0  0  0  0  0
   -0.9952    1.4089    2.6829 H   0  0  0  0  0  0  0  0  0  0  0  0
    0.0805    2.6000    1.9510 H   0  0  0  0  0  0  0  0  0  0  0  0
   -1.9209    3.3186    2.2601 C   0  0  0  0  0  0  0  0  0  0  0  0
   -1.8368    4.1198    1.5176 H   0  0  0  0  0  0  0  0  0  0  0  0
   -2.9457    2.9330    2.2365 H   0  0  0  0  0  0  0  0  0  0  0  0
   -1.6017    3.8559    3.6537 C   0  0  0  0  0  0  0  0  0  0  0  0
   -1.6689    3.0324    4.3736 H   0  0  0  0  0  0  0  0  0  0  0  0
   -0.5756    4.2412    3.6624 H   0  0  0  0  0  0  0  0  0  0  0  0
   -2.5473    4.9258    4.0201 N   0  3  0  0  0  0  0  0  0  0  0  0
   -3.2413    5.1924    3.3232 H   0  0  0  0  0  0  0  0  0  0  0  0
   -2.5417    5.5225    5.1774 C   0  0  0  0  0  0  0  0  0  0  0  0
   -1.6355    5.1913    6.1594 N   0  0  0  0  0  0  0  0  0  0  0  0
   -1.0637    4.3603    6.0216 H   0  0  0  0  0  0  0  0  0  0  0  0
   -1.8082    5.5029    7.1131 H   0  0  0  0  0  0  0  0  0  0  0  0
   -3.4607    6.5113    5.4371 N   0  0  0  0  0  0  0  0  0  0  0  0
   -4.0099    6.8843    4.6652 H   0  0  0  0  0  0  0  0  0  0  0  0
   -3.3132    7.1085    6.2489 H   0  0  0  0  0  0  0  0  0  0  0  0
    0.0578    0.7658    0.1176 C   0  0  0  0  0  0  0  0  0  0  0  0
    0.7388    1.1785   -0.8099 O   0  0  0  0  0  0  0  0  0  0  0  0
    0.4614   -0.3706    0.7913 N   0  0  0  0  0  0  0  0  0  0  0  0
   -0.1984   -0.7468    1.4764 H   0  0  0  0  0  0  0  0  0  0  0  0
    1.5928   -1.1941    0.3809 C   0  0  0  0  0  0  0  0  0  0  0  0
    2.5150   -0.6036    0.3711 H   0  0  0  0  0  0  0  0  0  0  0  0
    1.7256   -2.0275    1.0778 H   0  0  0  0  0  0  0  0  0  0  0  0
    1.4264   -1.6035   -0.6209 H   0  0  0  0  0  0  0  0  0  0  0  0
  1  2  1  0  0  0  0
  2  3  1  0  0  0  0
  2  4  1  0  0  0  0
  2  5  1  0  0  0  0
  5  6  2  0  0  0  0
  5  7  1  0  0  0  0
  7  8  1  0  0  0  0
  7  9  1  0  0  0  0
  9 10  1  0  0  0  0
  9 11  1  0  0  0  0
  9 29  1  0  0  0  0
 11 12  1  0  0  0  0
 11 13  1  0  0  0  0
 11 14  1  0  0  0  0
 14 15  1  0  0  0  0
 14 16  1  0  0  0  0
 14 17  1  0  0  0  0
 17 18  1  0  0  0  0
 17 19  1  0  0  0  0
 17 20  1  0  0  0  0
 20 21  1  0  0  0  0
 20 22  2  0  0  0  0
 22 23  1  0  0  0  0
 22 26  1  0  0  0  0
 23 24  1  0  0  0  0
 23 25  1  0  0  0  0
 26 27  1  0  0  0  0
 26 28  1  0  0  0  0
 29 30  2  0  0  0  0
 29 31  1  0  0  0  0
 31 32  1  0  0  0  0
 31 33  1  0  0  0  0
 33 34  1  0  0  0  0
 33 35  1  0  0  0  0
 33 36  1  0  0  0  0
M  CHG  1  20   1
M  END
$$$$

  -OEChem-02172215453D

 36 35  0     1  0  0  0  0  0999 V2000
   -4.1195   -2.1061    1.0556 H   0  0  0  0  0  0  0  0  0  0  0  0
   -4.0468   -1.1476    0.5335 C   0  0  0  0  0  0  0  0  0  0  0  0
   -4.9503   -0.5676    0.7361 H   0  0  0  0  0  0  0  0  0  0  0  0
   -3.9773   -1.3401   -0.5400 H   0  0  0  0  0  0  0  0  0  0  0  0
   -2.8218   -0.3878    1.0047 C   0  0  0  0  0  0  0  0  0  0  0  0
   -2.1280   -0.8571    1.8922 O   0  0  0  0  0  0  0  0  0  0  0  0
   -2.5508    0.8649    0.4826 N   0  0  0  0  0  0  0  0  0  0  0  0
   -3.1822    1.1349   -0.2680 H   0  0  0  0  0  0  0  0  0  0  0  0
   -1.2425    1.5643    0.4901 C   0  0  1  0  0  0  0  0  0  0  0  0
   -1.3046    2.3827   -0.2356 H   0  0  0  0  0  0  0  0  0  0  0  0
   -0.9817    2.1707    1.8843 C   0  0  0  0  0  0  0  0  0  0  0  0
   -1.0411    1.3874    2.6471 H   0  0  0  0  0  0  0  0  0  0  0  0
    0.0389    2.5704    1.9083 H   0  0  0  0  0  0  0  0  0  0  0  0
   -1.9524    3.3056    2.2290 C   0  0  0  0  0  0  0  0  0  0  0  0
   -1.8646    4.1067    1.4871 H   0  0  0  0  0  0  0  0  0  0  0  0
   -2.9819    2.9321    2.2137 H   0  0  0  0  0  0  0  0  0  0  0  0
   -1.6114    3.8348    3.6211 C   0  0  0  0  0  0  0  0  0  0  0  0
   -1.6809    3.0089    4.3379 H   0  0  0  0  0  0  0  0  0  0  0  0
   -0.5801    4.2058    3.6189 H   0  0  0  0  0  0  0  0  0  0  0  0
   -2.5344    4.9162    4.0104 N   0  3  0  0  0  0  0  0  0  0  0  0
   -3.2335    5.2021    3.3265 H   0  0  0  0  0  0  0  0  0  0  0  0
   -2.4980    5.5015    5.1733 C   0  0  0  0  0  0  0  0  0  0  0  0
   -1.5795    5.1444    6.1347 N   0  0  0  0  0  0  0  0  0  0  0  0
   -1.0327    4.2992    5.9813 H   0  0  0  0  0  0  0  0  0  0  0  0
   -1.7274    5.4523    7.0938 H   0  0  0  0  0  0  0  0  0  0  0  0
   -3.3899    6.5076    5.4592 N   0  0  0  0  0  0  0  0  0  0  0  0
   -3.9400    6.9049    4.7001 H   0  0  0  0  0  0  0  0  0  0  0  0
   -3.2158    7.0902    6.2762 H   0  0  0  0  0  0  0  0  0  0  0  0
    0.0184    0.7501    0.0927 C   0  0  0  0  0  0  0  0  0  0  0  0
    0.8345    1.2956   -0.6363 O   0  0  0  0  0  0  0  0  0  0  0  0
    0.2918   -0.5218    0.5566 N   0  0  0  0  0  0  0  0  0  0  0  0
   -0.3831   -0.9313    1.2066 H   0  0  0  0  0  0  0  0  0  0  0  0
    1.4992   -1.2690    0.2246 C   0  0  0  0  0  0  0  0  0  0  0  0
    2.3894   -0.7292    0.5641 H   0  0  0  0  0  0  0  0  0  0  0  0
    1.4830   -2.2492    0.7106 H   0  0  0  0  0  0  0  0  0  0  0  0
    1.5706   -1.4219   -0.8575 H   0  0  0  0  0  0  0  0  0  0  0  0
  1  2  1  0  0  0  0
  2  3  1  0  0  0  0
  2  4  1  0  0  0  0
  2  5  1  0  0  0  0
  5  6  2  0  0  0  0
  5  7  1  0  0  0  0
  7  8  1  0  0  0  0
  7  9  1  0  0  0  0
  9 10  1  0  0  0  0
  9 11  1  0  0  0  0
  9 29  1  0  0  0  0
 11 12  1  0  0  0  0
 11 13  1  0  0  0  0
 11 14  1  0  0  0  0
 14 15  1  0  0  0  0
 14 16  1  0  0  0  0
 14 17  1  0  0  0  0
 17 18  1  0  0  0  0
 17 19  1  0  0  0  0
 17 20  1  0  0  0  0
 20 21  1  0  0  0  0
 20 22  2  0  0  0  0
 22 23  1  0  0  0  0
 22 26  1  0  0  0  0
 23 24  1  0  0  0  0
 23 25  1  0  0  0  0
 26 27  1  0  0  0  0
 26 28  1  0  0  0  0
 29 30  2  0  0  0  0
 29 31  1  0  0  0  0
 31 32  1  0  0  0  0
 31 33  1  0  0  0  0
 33 34  1  0  0  0  0
 33 35  1  0  0  0  0
 33 36  1  0  0  0  0
M  CHG  1  20   1
M  END
$$$$

  -OEChem-02172215453D

 36 35  0     1  0  0  0  0  0999 V2000
   -4.2215   -2.0158    0.8838 H   0  0  0  0  0  0  0  0  0  0  0  0
   -4.1509   -1.0059    0.4693 C   0  0  0  0  0  0  0  0  0  0  0  0
   -5.0114   -0.4252    0.8098 H   0  0  0  0  0  0  0  0  0  0  0  0
   -4.1737   -1.0742   -0.6210 H   0  0  0  0  0  0  0  0  0  0  0  0
   -2.8636   -0.3440    0.9221 C   0  0  0  0  0  0  0  0  0  0  0  0
   -2.1727   -0.8871    1.7681 O   0  0  0  0  0  0  0  0  0  0  0  0
   -2.5285    0.9043    0.4285 N   0  0  0  0  0  0  0  0  0  0  0  0
   -3.1582    1.2387   -0.2970 H   0  0  0  0  0  0  0  0  0  0  0  0
   -1.1996    1.5637    0.4760 C   0  0  1  0  0  0  0  0  0  0  0  0
   -1.2211    2.3944   -0.2374 H   0  0  0  0  0  0  0  0  0  0  0  0
   -0.9669    2.1364    1.8899 C   0  0  0  0  0  0  0  0  0  0  0  0
   -1.0727    1.3391    2.6333 H   0  0  0  0  0  0  0  0  0  0  0  0
    0.0618    2.5095    1.9579 H   0  0  0  0  0  0  0  0  0  0  0  0
   -1.9185    3.2904    2.2235 C   0  0  0  0  0  0  0  0  0  0  0  0
   -1.7858    4.1006    1.4986 H   0  0  0  0  0  0  0  0  0  0  0  0
   -2.9559    2.9441    2.1683 H   0  0  0  0  0  0  0  0  0  0  0  0
   -1.6137    3.7893    3.6343 C   0  0  0  0  0  0  0  0  0  0  0  0
   -1.7279    2.9559    4.3371 H   0  0  0  0  0  0  0  0  0  0  0  0
   -0.5747    4.1353    3.6719 H   0  0  0  0  0  0  0  0  0  0  0  0
   -2.5266    4.8870    4.0019 N   0  3  0  0  0  0  0  0  0  0  0  0
   -3.1719    5.2160    3.2854 H   0  0  0  0  0  0  0  0  0  0  0  0
   -2.5247    5.4595    5.1714 C   0  0  0  0  0  0  0  0  0  0  0  0
   -1.6546    5.0752    6.1663 N   0  0  0  0  0  0  0  0  0  0  0  0
   -0.8951    4.4448    5.9164 H   0  0  0  0  0  0  0  0  0  0  0  0
   -1.5214    5.6925    6.9649 H   0  0  0  0  0  0  0  0  0  0  0  0
   -3.4122    6.4764    5.4315 N   0  0  0  0  0  0  0  0  0  0  0  0
   -4.1740    6.6417    4.7762 H   0  0  0  0  0  0  0  0  0  0  0  0
   -3.5405    6.7735    6.3974 H   0  0  0  0  0  0  0  0  0  0  0  0
    0.0594    0.7345    0.1006 C   0  0  0  0  0  0  0  0  0  0  0  0
    1.0039    1.3419   -0.3850 O   0  0  0  0  0  0  0  0  0  0  0  0
    0.1786   -0.6284    0.2915 N   0  0  0  0  0  0  0  0  0  0  0  0
   -0.5477   -1.0695    0.8590 H   0  0  0  0  0  0  0  0  0  0  0  0
    1.3994   -1.3778    0.0173 C   0  0  0  0  0  0  0  0  0  0  0  0
    2.2221   -1.0139    0.6415 H   0  0  0  0  0  0  0  0  0  0  0  0
    1.2460   -2.4402    0.2304 H   0  0  0  0  0  0  0  0  0  0  0  0
    1.6843   -1.2760   -1.0353 H   0  0  0  0  0  0  0  0  0  0  0  0
  1  2  1  0  0  0  0
  2  3  1  0  0  0  0
  2  4  1  0  0  0  0
  2  5  1  0  0  0  0
  5  6  2  0  0  0  0
  5  7  1  0  0  0  0
  7  8  1  0  0  0  0
  7  9  1  0  0  0  0
  9 10  1  0  0  0  0
  9 11  1  0  0  0  0
  9 29  1  0  0  0  0
 11 12  1  0  0  0  0
 11 13  1  0  0  0  0
 11 14  1  0  0  0  0
 14 15  1  0  0  0  0
 14 16  1  0  0  0  0
 14 17  1  0  0  0  0
 17 18  1  0  0  0  0
 17 19  1  0  0  0  0
 17 20  1  0  0  0  0
 20 21  1  0  0  0  0
 20 22  2  0  0  0  0
 22 23  1  0  0  0  0
 22 26  1  0  0  0  0
 23 24  1  0  0  0  0
 23 25  1  0  0  0  0
 26 27  1  0  0  0  0
 26 28  1  0  0  0  0
 29 30  2  0  0  0  0
 29 31  1  0  0  0  0
 31 32  1  0  0  0  0
 31 33  1  0  0  0  0
 33 34  1  0  0  0  0
 33 35  1  0  0  0  0
 33 36  1  0  0  0  0
M  CHG  1  20   1
M  END
$$$$

  -OEChem-02172215453D

 36 35  0     1  0  0  0  0  0999 V2000
   -4.2497   -2.0108    1.0553 H   0  0  0  0  0  0  0  0  0  0  0  0
   -4.1832   -1.0180    0.6005 C   0  0  0  0  0  0  0  0  0  0  0  0
   -5.0151   -0.4096    0.9626 H   0  0  0  0  0  0  0  0  0  0  0  0
   -4.2625   -1.1248   -0.4843 H   0  0  0  0  0  0  0  0  0  0  0  0
   -2.8635   -0.3645    0.9636 C   0  0  0  0  0  0  0  0  0  0  0  0
   -2.1047   -0.9273    1.7342 O   0  0  0  0  0  0  0  0  0  0  0  0
   -2.5544    0.8826    0.4509 N   0  0  0  0  0  0  0  0  0  0  0  0
   -3.2279    1.2307   -0.2272 H   0  0  0  0  0  0  0  0  0  0  0  0
   -1.2311    1.5553    0.4559 C   0  0  1  0  0  0  0  0  0  0  0  0
   -1.2776    2.3791   -0.2636 H   0  0  0  0  0  0  0  0  0  0  0  0
   -0.9756    2.1420    1.8618 C   0  0  0  0  0  0  0  0  0  0  0  0
   -1.0572    1.3481    2.6118 H   0  0  0  0  0  0  0  0  0  0  0  0
    0.0495    2.5274    1.9090 H   0  0  0  0  0  0  0  0  0  0  0  0
   -1.9328    3.2878    2.2085 C   0  0  0  0  0  0  0  0  0  0  0  0
   -1.8230    4.0952    1.4764 H   0  0  0  0  0  0  0  0  0  0  0  0
   -2.9677    2.9312    2.1780 H   0  0  0  0  0  0  0  0  0  0  0  0
   -1.6026    3.7990    3.6090 C   0  0  0  0  0  0  0  0  0  0  0  0
   -1.6921    2.9690    4.3190 H   0  0  0  0  0  0  0  0  0  0  0  0
   -0.5667    4.1560    3.6220 H   0  0  0  0  0  0  0  0  0  0  0  0
   -2.5185    4.8892    3.9908 N   0  3  0  0  0  0  0  0  0  0  0  0
   -3.1796    5.2108    3.2855 H   0  0  0  0  0  0  0  0  0  0  0  0
   -2.4955    5.4681    5.1570 C   0  0  0  0  0  0  0  0  0  0  0  0
   -1.5981    5.0969    6.1329 N   0  0  0  0  0  0  0  0  0  0  0  0
   -0.8406    4.4688    5.8706 H   0  0  0  0  0  0  0  0  0  0  0  0
   -1.4539    5.7162    6.9279 H   0  0  0  0  0  0  0  0  0  0  0  0
   -3.3844    6.4800    5.4319 N   0  0  0  0  0  0  0  0  0  0  0  0
   -4.1633    6.6358    4.7949 H   0  0  0  0  0  0  0  0  0  0  0  0
   -3.4896    6.7849    6.3981 H   0  0  0  0  0  0  0  0  0  0  0  0
    0.0280    0.7367    0.0531 C   0  0  0  0  0  0  0  0  0  0  0  0
    1.0250    1.3677   -0.2725 O   0  0  0  0  0  0  0  0  0  0  0  0
    0.0638   -0.6427   -0.0259 N   0  0  0  0  0  0  0  0  0  0  0  0
   -0.6726   -1.1286    0.4881 H   0  0  0  0  0  0  0  0  0  0  0  0
    1.2727   -1.3889   -0.3574 C   0  0  0  0  0  0  0  0  0  0  0  0
    2.0492   -1.2163    0.3949 H   0  0  0  0  0  0  0  0  0  0  0  0
    1.0568   -2.4611   -0.3951 H   0  0  0  0  0  0  0  0  0  0  0  0
    1.6572   -1.0824   -1.3361 H   0  0  0  0  0  0  0  0  0  0  0  0
  1  2  1  0  0  0  0
  2  3  1  0  0  0  0
  2  4  1  0  0  0  0
  2  5  1  0  0  0  0
  5  6  2  0  0  0  0
  5  7  1  0  0  0  0
  7  8  1  0  0  0  0
  7  9  1  0  0  0  0
  9 10  1  0  0  0  0
  9 11  1  0  0  0  0
  9 29  1  0  0  0  0
 11 12  1  0  0  0  0
 11 13  1  0  0  0  0
 11 14  1  0  0  0  0
 14 15  1  0  0  0  0
 14 16  1  0  0  0  0
 14 17  1  0  0  0  0
 17 18  1  0  0  0  0
 17 19  1  0  0  0  0
 17 20  1  0  0  0  0
 20 21  1  0  0  0  0
 20 22  2  0  0  0  0
 22 23  1  0  0  0  0
 22 26  1  0  0  0  0
 23 24  1  0  0  0  0
 23 25  1  0  0  0  0
 26 27  1  0  0  0  0
 26 28  1  0  0  0  0
 29 30  2  0  0  0  0
 29 31  1  0  0  0  0
 31 32  1  0  0  0  0
 31 33  1  0  0  0  0
 33 34  1  0  0  0  0
 33 35  1  0  0  0  0
 33 36  1  0  0  0  0
M  CHG  1  20   1
M  END
$$$$

  -OEChem-02172215453D

 36 35  0     1  0  0  0  0  0999 V2000
   -4.2411   -1.9795    1.1007 H   0  0  0  0  0  0  0  0  0  0  0  0
   -4.1838   -0.9815    0.6561 C   0  0  0  0  0  0  0  0  0  0  0  0
   -4.9808   -0.3639    1.0766 H   0  0  0  0  0  0  0  0  0  0  0  0
   -4.3315   -1.0709   -0.4230 H   0  0  0  0  0  0  0  0  0  0  0  0
   -2.8328   -0.3571    0.9469 C   0  0  0  0  0  0  0  0  0  0  0  0
   -2.0282   -0.9561    1.6387 O   0  0  0  0  0  0  0  0  0  0  0  0
   -2.5300    0.8914    0.4345 N   0  0  0  0  0  0  0  0  0  0  0  0
   -3.2290    1.2695   -0.2000 H   0  0  0  0  0  0  0  0  0  0  0  0
   -1.2085    1.5678    0.4394 C   0  0  1  0  0  0  0  0  0  0  0  0
   -1.2513    2.3910   -0.2809 H   0  0  0  0  0  0  0  0  0  0  0  0
   -0.9646    2.1515    1.8506 C   0  0  0  0  0  0  0  0  0  0  0  0
   -1.0476    1.3525    2.5952 H   0  0  0  0  0  0  0  0  0  0  0  0
    0.0573    2.5431    1.9098 H   0  0  0  0  0  0  0  0  0  0  0  0
   -1.9279    3.2917    2.1986 C   0  0  0  0  0  0  0  0  0  0  0  0
   -1.8186    4.1036    1.4713 H   0  0  0  0  0  0  0  0  0  0  0  0
   -2.9612    2.9310    2.1621 H   0  0  0  0  0  0  0  0  0  0  0  0
   -1.6052    3.7963    3.6040 C   0  0  0  0  0  0  0  0  0  0  0  0
   -1.6935    2.9626    4.3097 H   0  0  0  0  0  0  0  0  0  0  0  0
   -0.5708    4.1579    3.6235 H   0  0  0  0  0  0  0  0  0  0  0  0
   -2.5273    4.8807    3.9872 N   0  3  0  0  0  0  0  0  0  0  0  0
   -3.1869    5.2027    3.2807 H   0  0  0  0  0  0  0  0  0  0  0  0
   -2.5125    5.4538    5.1563 C   0  0  0  0  0  0  0  0  0  0  0  0
   -1.6186    5.0819    6.1349 N   0  0  0  0  0  0  0  0  0  0  0  0
   -0.8572    4.4589    5.8717 H   0  0  0  0  0  0  0  0  0  0  0  0
   -1.4768    5.7016    6.9300 H   0  0  0  0  0  0  0  0  0  0  0  0
   -3.4080    6.4598    5.4312 N   0  0  0  0  0  0  0  0  0  0  0  0
   -4.1825    6.6169    4.7895 H   0  0  0  0  0  0  0  0  0  0  0  0
   -3.5208    6.7600    6.3979 H   0  0  0  0  0  0  0  0  0  0  0  0
    0.0460    0.7418    0.0341 C   0  0  0  0  0  0  0  0  0  0  0  0
    1.1031    1.3441   -0.1026 O   0  0  0  0  0  0  0  0  0  0  0  0
   -0.0064   -0.5914   -0.3290 N   0  0  0  0  0  0  0  0  0  0  0  0
   -0.7870   -1.1097    0.0728 H   0  0  0  0  0  0  0  0  0  0  0  0
    1.1822   -1.3495   -0.7059 C   0  0  0  0  0  0  0  0  0  0  0  0
    1.8893   -1.3956    0.1288 H   0  0  0  0  0  0  0  0  0  0  0  0
    0.9068   -2.3712   -0.9846 H   0  0  0  0  0  0  0  0  0  0  0  0
    1.6795   -0.8835   -1.5632 H   0  0  0  0  0  0  0  0  0  0  0  0
  1  2  1  0  0  0  0
  2  3  1  0  0  0  0
  2  4  1  0  0  0  0
  2  5  1  0  0  0  0
  5  6  2  0  0  0  0
  5  7  1  0  0  0  0
  7  8  1  0  0  0  0
  7  9  1  0  0  0  0
  9 10  1  0  0  0  0
  9 11  1  0  0  0  0
  9 29  1  0  0  0  0
 11 12  1  0  0  0  0
 11 13  1  0  0  0  0
 11 14  1  0  0  0  0
 14 15  1  0  0  0  0
 14 16  1  0  0  0  0
 14 17  1  0  0  0  0
 17 18  1  0  0  0  0
 17 19  1  0  0  0  0
 17 20  1  0  0  0  0
 20 21  1  0  0  0  0
 20 22  2  0  0  0  0
 22 23  1  0  0  0  0
 22 26  1  0  0  0  0
 23 24  1  0  0  0  0
 23 25  1  0  0  0  0
 26 27  1  0  0  0  0
 26 28  1  0  0  0  0
 29 30  2  0  0  0  0
 29 31  1  0  0  0  0
 31 32  1  0  0  0  0
 31 33  1  0  0  0  0
 33 34  1  0  0  0  0
 33 35  1  0  0  0  0
 33 36  1  0  0  0  0
M  CHG  1  20   1
M  END
$$$$

  -OEChem-02172215453D

 36 35  0     1  0  0  0  0  0999 V2000
   -4.1861   -1.9783    1.1255 H   0  0  0  0  0  0  0  0  0  0  0  0
   -4.1460   -0.9755    0.6903 C   0  0  0  0  0  0  0  0  0  0  0  0
   -4.9238   -0.3621    1.1507 H   0  0  0  0  0  0  0  0  0  0  0  0
   -4.3385   -1.0521   -0.3825 H   0  0  0  0  0  0  0  0  0  0  0  0
   -2.7828   -0.3559    0.9319 C   0  0  0  0  0  0  0  0  0  0  0  0
   -1.9449   -0.9688    1.5678 O   0  0  0  0  0  0  0  0  0  0  0  0
   -2.4991    0.8978    0.4213 N   0  0  0  0  0  0  0  0  0  0  0  0
   -3.2227    1.2967   -0.1714 H   0  0  0  0  0  0  0  0  0  0  0  0
   -1.1836    1.5842    0.4304 C   0  0  1  0  0  0  0  0  0  0  0  0
   -1.2254    2.4054   -0.2918 H   0  0  0  0  0  0  0  0  0  0  0  0
   -0.9551    2.1711    1.8448 C   0  0  0  0  0  0  0  0  0  0  0  0
   -1.0345    1.3693    2.5872 H   0  0  0  0  0  0  0  0  0  0  0  0
    0.0609    2.5751    1.9141 H   0  0  0  0  0  0  0  0  0  0  0  0
   -1.9290    3.3033    2.1899 C   0  0  0  0  0  0  0  0  0  0  0  0
   -1.8223    4.1180    1.4654 H   0  0  0  0  0  0  0  0  0  0  0  0
   -2.9594    2.9357    2.1481 H   0  0  0  0  0  0  0  0  0  0  0  0
   -1.6135    3.8042    3.5984 C   0  0  0  0  0  0  0  0  0  0  0  0
   -1.6975    2.9658    4.2993 H   0  0  0  0  0  0  0  0  0  0  0  0
   -0.5813    4.1718    3.6209 H   0  0  0  0  0  0  0  0  0  0  0  0
   -2.5412    4.8818    3.9877 N   0  3  0  0  0  0  0  0  0  0  0  0
   -3.2002    5.2070    3.2820 H   0  0  0  0  0  0  0  0  0  0  0  0
   -2.5293    5.4471    5.1608 C   0  0  0  0  0  0  0  0  0  0  0  0
   -1.6343    5.0728    6.1372 N   0  0  0  0  0  0  0  0  0  0  0  0
   -0.8740    4.4490    5.8729 H   0  0  0  0  0  0  0  0  0  0  0  0
   -1.4936    5.6889    6.9355 H   0  0  0  0  0  0  0  0  0  0  0  0
   -3.4265    6.4497    5.4417 N   0  0  0  0  0  0  0  0  0  0  0  0
   -4.1985    6.6120    4.7985 H   0  0  0  0  0  0  0  0  0  0  0  0
   -3.5447    6.7372    6.4116 H   0  0  0  0  0  0  0  0  0  0  0  0
    0.0639    0.7483    0.0207 C   0  0  0  0  0  0  0  0  0  0  0  0
    1.1678    1.2747    0.0884 O   0  0  0  0  0  0  0  0  0  0  0  0
   -0.0446   -0.4719   -0.6224 N   0  0  0  0  0  0  0  0  0  0  0  0
   -0.8976   -0.9856   -0.4168 H   0  0  0  0  0  0  0  0  0  0  0  0
    1.1224   -1.2456   -1.0354 C   0  0  0  0  0  0  0  0  0  0  0  0
    1.7195   -1.5350   -0.1640 H   0  0  0  0  0  0  0  0  0  0  0  0
    0.8080   -2.1540   -1.5586 H   0  0  0  0  0  0  0  0  0  0  0  0
    1.7524   -0.6607   -1.7145 H   0  0  0  0  0  0  0  0  0  0  0  0
  1  2  1  0  0  0  0
  2  3  1  0  0  0  0
  2  4  1  0  0  0  0
  2  5  1  0  0  0  0
  5  6  2  0  0  0  0
  5  7  1  0  0  0  0
  7  8  1  0  0  0  0
  7  9  1  0  0  0  0
  9 10  1  0  0  0  0
  9 11  1  0  0  0  0
  9 29  1  0  0  0  0
 11 12  1  0  0  0  0
 11 13  1  0  0  0  0
 11 14  1  0  0  0  0
 14 15  1  0  0  0  0
 14 16  1  0  0  0  0
 14 17  1  0  0  0  0
 17 18  1  0  0  0  0
 17 19  1  0  0  0  0
 17 20  1  0  0  0  0
 20 21  1  0  0  0  0
 20 22  2  0  0  0  0
 22 23  1  0  0  0  0
 22 26  1  0  0  0  0
 23 24  1  0  0  0  0
 23 25  1  0  0  0  0
 26 27  1  0  0  0  0
 26 28  1  0  0  0  0
 29 30  2  0  0  0  0
 29 31  1  0  0  0  0
 31 32  1  0  0  0  0
 31 33  1  0  0  0  0
 33 34  1  0  0  0  0
 33 35  1  0  0  0  0
 33 36  1  0  0  0  0
M  CHG  1  20   1
M  END
$$$$

  -OEChem-02172215453D

 36 35  0     1  0  0  0  0  0999 V2000
   -4.0566   -2.0172    1.1149 H   0  0  0  0  0  0  0  0  0  0  0  0
   -4.0500   -1.0145    0.6773 C   0  0  0  0  0  0  0  0  0  0  0  0
   -4.8493   -0.4276    1.1356 H   0  0  0  0  0  0  0  0  0  0  0  0
   -4.2380   -1.1009   -0.3956 H   0  0  0  0  0  0  0  0  0  0  0  0
   -2.7088   -0.3491    0.9212 C   0  0  0  0  0  0  0  0  0  0  0  0
   -1.8625   -0.9253    1.5791 O   0  0  0  0  0  0  0  0  0  0  0  0
   -2.4636    0.9134    0.4087 N   0  0  0  0  0  0  0  0  0  0  0  0
   -3.1986    1.2993   -0.1783 H   0  0  0  0  0  0  0  0  0  0  0  0
   -1.1599    1.6198    0.4231 C   0  0  1  0  0  0  0  0  0  0  0  0
   -1.2021    2.4407   -0.2992 H   0  0  0  0  0  0  0  0  0  0  0  0
   -0.9455    2.2116    1.8382 C   0  0  0  0  0  0  0  0  0  0  0  0
   -1.0114    1.4098    2.5817 H   0  0  0  0  0  0  0  0  0  0  0  0
    0.0626    2.6343    1.9083 H   0  0  0  0  0  0  0  0  0  0  0  0
   -1.9352    3.3293    2.1842 C   0  0  0  0  0  0  0  0  0  0  0  0
   -1.8389    4.1479    1.4627 H   0  0  0  0  0  0  0  0  0  0  0  0
   -2.9607    2.9475    2.1426 H   0  0  0  0  0  0  0  0  0  0  0  0
   -1.6215    3.8263    3.5943 C   0  0  0  0  0  0  0  0  0  0  0  0
   -1.6939    2.9828    4.2903 H   0  0  0  0  0  0  0  0  0  0  0  0
   -0.5927    4.2036    3.6159 H   0  0  0  0  0  0  0  0  0  0  0  0
   -2.5578    4.8914    3.9966 N   0  3  0  0  0  0  0  0  0  0  0  0
   -3.2241    5.2165    3.2980 H   0  0  0  0  0  0  0  0  0  0  0  0
   -2.5426    5.4457    5.1749 C   0  0  0  0  0  0  0  0  0  0  0  0
   -1.6364    5.0695    6.1408 N   0  0  0  0  0  0  0  0  0  0  0  0
   -0.8750    4.4511    5.8665 H   0  0  0  0  0  0  0  0  0  0  0  0
   -1.4948    5.6772    6.9450 H   0  0  0  0  0  0  0  0  0  0  0  0
   -3.4454    6.4388    5.4722 N   0  0  0  0  0  0  0  0  0  0  0  0
   -4.2238    6.6017    4.8365 H   0  0  0  0  0  0  0  0  0  0  0  0
   -3.5577    6.7168    6.4457 H   0  0  0  0  0  0  0  0  0  0  0  0
    0.0742    0.7664    0.0065 C   0  0  0  0  0  0  0  0  0  0  0  0
    1.2026    1.1253    0.3198 O   0  0  0  0  0  0  0  0  0  0  0  0
   -0.0563   -0.2781   -0.8921 N   0  0  0  0  0  0  0  0  0  0  0  0
   -0.9934   -0.6455   -1.0170 H   0  0  0  0  0  0  0  0  0  0  0  0
    1.0686   -1.1140   -1.2994 C   0  0  0  0  0  0  0  0  0  0  0  0
    1.4928   -1.6333   -0.4334 H   0  0  0  0  0  0  0  0  0  0  0  0
    0.7411   -1.8632   -2.0268 H   0  0  0  0  0  0  0  0  0  0  0  0
    1.8528   -0.5059   -1.7631 H   0  0  0  0  0  0  0  0  0  0  0  0
  1  2  1  0  0  0  0
  2  3  1  0  0  0  0
  2  4  1  0  0  0  0
  2  5  1  0  0  0  0
  5  6  2  0  0  0  0
  5  7  1  0  0  0  0
  7  8  1  0  0  0  0
  7  9  1  0  0  0  0
  9 10  1  0  0  0  0
  9 11  1  0  0  0  0
  9 29  1  0  0  0  0
 11 12  1  0  0  0  0
 11 13  1  0  0  0  0
 11 14  1  0  0  0  0
 14 15  1  0  0  0  0
 14 16  1  0  0  0  0
 14 17  1  0  0  0  0
 17 18  1  0  0  0  0
 17 19  1  0  0  0  0
 17 20  1  0  0  0  0
 20 21  1  0  0  0  0
 20 22  2  0  0  0  0
 22 23  1  0  0  0  0
 22 26  1  0  0  0  0
 23 24  1  0  0  0  0
 23 25  1  0  0  0  0
 26 27  1  0  0  0  0
 26 28  1  0  0  0  0
 29 30  2  0  0  0  0
 29 31  1  0  0  0  0
 31 32  1  0  0  0  0
 31 33  1  0  0  0  0
 33 34  1  0  0  0  0
 33 35  1  0  0  0  0
 33 36  1  0  0  0  0
M  CHG  1  20   1
M  END
$$$$

  -OEChem-02172215453D

 36 35  0     1  0  0  0  0  0999 V2000
   -3.9812   -2.0448    1.0907 H   0  0  0  0  0  0  0  0  0  0  0  0
   -3.9873   -1.0439    0.6485 C   0  0  0  0  0  0  0  0  0  0  0  0
   -4.8083   -0.4723    1.0877 H   0  0  0  0  0  0  0  0  0  0  0  0
   -4.1511   -1.1393   -0.4275 H   0  0  0  0  0  0  0  0  0  0  0  0
   -2.6651   -0.3495    0.9155 C   0  0  0  0  0  0  0  0  0  0  0  0
   -1.8246   -0.9019    1.6007 O   0  0  0  0  0  0  0  0  0  0  0  0
   -2.4389    0.9168    0.4019 N   0  0  0  0  0  0  0  0  0  0  0  0
   -3.1745    1.2883   -0.1930 H   0  0  0  0  0  0  0  0  0  0  0  0
   -1.1448    1.6379    0.4265 C   0  0  1  0  0  0  0  0  0  0  0  0
   -1.1844    2.4571   -0.2977 H   0  0  0  0  0  0  0  0  0  0  0  0
   -0.9380    2.2351    1.8401 C   0  0  0  0  0  0  0  0  0  0  0  0
   -0.9943    1.4339    2.5853 H   0  0  0  0  0  0  0  0  0  0  0  0
    0.0661    2.6682    1.9056 H   0  0  0  0  0  0  0  0  0  0  0  0
   -1.9366    3.3435    2.1867 C   0  0  0  0  0  0  0  0  0  0  0  0
   -1.8496    4.1629    1.4655 H   0  0  0  0  0  0  0  0  0  0  0  0
   -2.9584    2.9520    2.1473 H   0  0  0  0  0  0  0  0  0  0  0  0
   -1.6230    3.8415    3.5969 C   0  0  0  0  0  0  0  0  0  0  0  0
   -1.6869    2.9960    4.2916 H   0  0  0  0  0  0  0  0  0  0  0  0
   -0.5968    4.2258    3.6166 H   0  0  0  0  0  0  0  0  0  0  0  0
   -2.5657    4.8987    4.0050 N   0  3  0  0  0  0  0  0  0  0  0  0
   -3.2383    5.2188    3.3102 H   0  0  0  0  0  0  0  0  0  0  0  0
   -2.5496    5.4504    5.1845 C   0  0  0  0  0  0  0  0  0  0  0  0
   -1.6367    5.0786    6.1453 N   0  0  0  0  0  0  0  0  0  0  0  0
   -0.8731    4.4650    5.8659 H   0  0  0  0  0  0  0  0  0  0  0  0
   -1.4931    5.6878    6.9480 H   0  0  0  0  0  0  0  0  0  0  0  0
   -3.4585    6.4359    5.4880 N   0  0  0  0  0  0  0  0  0  0  0  0
   -4.2406    6.5942    4.8557 H   0  0  0  0  0  0  0  0  0  0  0  0
   -3.5702    6.7083    6.4631 H   0  0  0  0  0  0  0  0  0  0  0  0
    0.0793    0.7687    0.0152 C   0  0  0  0  0  0  0  0  0  0  0  0
    1.1769    0.9349    0.5331 O   0  0  0  0  0  0  0  0  0  0  0  0
   -0.0056   -0.0564   -1.0929 N   0  0  0  0  0  0  0  0  0  0  0  0
   -0.9348   -0.2460   -1.4527 H   0  0  0  0  0  0  0  0  0  0  0  0
    1.0960   -0.9084   -1.5301 C   0  0  0  0  0  0  0  0  0  0  0  0
    1.3644   -1.6197   -0.7414 H   0  0  0  0  0  0  0  0  0  0  0  0
    0.8093   -1.4727   -2.4229 H   0  0  0  0  0  0  0  0  0  0  0  0
    1.9770   -0.3048   -1.7736 H   0  0  0  0  0  0  0  0  0  0  0  0
  1  2  1  0  0  0  0
  2  3  1  0  0  0  0
  2  4  1  0  0  0  0
  2  5  1  0  0  0  0
  5  6  2  0  0  0  0
  5  7  1  0  0  0  0
  7  8  1  0  0  0  0
  7  9  1  0  0  0  0
  9 10  1  0  0  0  0
  9 11  1  0  0  0  0
  9 29  1  0  0  0  0
 11 12  1  0  0  0  0
 11 13  1  0  0  0  0
 11 14  1  0  0  0  0
 14 15  1  0  0  0  0
 14 16  1  0  0  0  0
 14 17  1  0  0  0  0
 17 18  1  0  0  0  0
 17 19  1  0  0  0  0
 17 20  1  0  0  0  0
 20 21  1  0  0  0  0
 20 22  2  0  0  0  0
 22 23  1  0  0  0  0
 22 26  1  0  0  0  0
 23 24  1  0  0  0  0
 23 25  1  0  0  0  0
 26 27  1  0  0  0  0
 26 28  1  0  0  0  0
 29 30  2  0  0  0  0
 29 31  1  0  0  0  0
 31 32  1  0  0  0  0
 31 33  1  0  0  0  0
 33 34  1  0  0  0  0
 33 35  1  0  0  0  0
 33 36  1  0  0  0  0
M  CHG  1  20   1
M  END
$$$$

  -OEChem-02172215453D

 36 35  0     1  0  0  0  0  0999 V2000
   -3.9601   -2.0628    1.0754 H   0  0  0  0  0  0  0  0  0  0  0  0
   -3.9676   -1.0631    0.6309 C   0  0  0  0  0  0  0  0  0  0  0  0
   -4.8023   -0.4985    1.0527 H   0  0  0  0  0  0  0  0  0  0  0  0
   -4.1095   -1.1627   -0.4477 H   0  0  0  0  0  0  0  0  0  0  0  0
   -2.6583   -0.3544    0.9223 C   0  0  0  0  0  0  0  0  0  0  0  0
   -1.8355   -0.8897    1.6411 O   0  0  0  0  0  0  0  0  0  0  0  0
   -2.4338    0.9102    0.4034 N   0  0  0  0  0  0  0  0  0  0  0  0
   -3.1590    1.2639   -0.2142 H   0  0  0  0  0  0  0  0  0  0  0  0
   -1.1431    1.6357    0.4329 C   0  0  1  0  0  0  0  0  0  0  0  0
   -1.1782    2.4529   -0.2934 H   0  0  0  0  0  0  0  0  0  0  0  0
   -0.9411    2.2402    1.8433 C   0  0  0  0  0  0  0  0  0  0  0  0
   -0.9959    1.4433    2.5931 H   0  0  0  0  0  0  0  0  0  0  0  0
    0.0634    2.6735    1.9043 H   0  0  0  0  0  0  0  0  0  0  0  0
   -1.9419    3.3479    2.1849 C   0  0  0  0  0  0  0  0  0  0  0  0
   -1.8576    4.1656    1.4612 H   0  0  0  0  0  0  0  0  0  0  0  0
   -2.9627    2.9533    2.1480 H   0  0  0  0  0  0  0  0  0  0  0  0
   -1.6273    3.8486    3.5934 C   0  0  0  0  0  0  0  0  0  0  0  0
   -1.6892    3.0036    4.2886 H   0  0  0  0  0  0  0  0  0  0  0  0
   -0.6012    4.2329    3.6106 H   0  0  0  0  0  0  0  0  0  0  0  0
   -2.5684    4.9061    4.0046 N   0  3  0  0  0  0  0  0  0  0  0  0
   -3.2448    5.2261    3.3135 H   0  0  0  0  0  0  0  0  0  0  0  0
   -2.5465    5.4561    5.1848 C   0  0  0  0  0  0  0  0  0  0  0  0
   -1.6290    5.0809    6.1402 N   0  0  0  0  0  0  0  0  0  0  0  0
   -0.8721    4.4600    5.8588 H   0  0  0  0  0  0  0  0  0  0  0  0
   -1.4806    5.6859    6.9452 H   0  0  0  0  0  0  0  0  0  0  0  0
   -3.4526    6.4423    5.4945 N   0  0  0  0  0  0  0  0  0  0  0  0
   -4.2383    6.6019    4.8672 H   0  0  0  0  0  0  0  0  0  0  0  0
   -3.5578    6.7145    6.4703 H   0  0  0  0  0  0  0  0  0  0  0  0
    0.0770    0.7563    0.0329 C   0  0  0  0  0  0  0  0  0  0  0  0
    1.1012    0.7343    0.7046 O   0  0  0  0  0  0  0  0  0  0  0  0
    0.1050    0.1743   -1.2226 N   0  0  0  0  0  0  0  0  0  0  0  0
   -0.7631    0.1569   -1.7473 H   0  0  0  0  0  0  0  0  0  0  0  0
    1.2250   -0.6316   -1.6993 C   0  0  0  0  0  0  0  0  0  0  0  0
    1.3754   -1.5003   -1.0492 H   0  0  0  0  0  0  0  0  0  0  0  0
    1.0320   -0.9886   -2.7155 H   0  0  0  0  0  0  0  0  0  0  0  0
    2.1468   -0.0398   -1.7129 H   0  0  0  0  0  0  0  0  0  0  0  0
  1  2  1  0  0  0  0
  2  3  1  0  0  0  0
  2  4  1  0  0  0  0
  2  5  1  0  0  0  0
  5  6  2  0  0  0  0
  5  7  1  0  0  0  0
  7  8  1  0  0  0  0
  7  9  1  0  0  0  0
  9 10  1  0  0  0  0
  9 11  1  0  0  0  0
  9 29  1  0  0  0  0
 11 12  1  0  0  0  0
 11 13  1  0  0  0  0
 11 14  1  0  0  0  0
 14 15  1  0  0  0  0
 14 16  1  0  0  0  0
 14 17  1  0  0  0  0
 17 18  1  0  0  0  0
 17 19  1  0  0  0  0
 17 20  1  0  0  0  0
 20 21  1  0  0  0  0
 20 22  2  0  0  0  0
 22 23  1  0  0  0  0
 22 26  1  0  0  0  0
 23 24  1  0  0  0  0
 23 25  1  0  0  0  0
 26 27  1  0  0  0  0
 26 28  1  0  0  0  0
 29 30  2  0  0  0  0
 29 31  1  0  0  0  0
 31 32  1  0  0  0  0
 31 33  1  0  0  0  0
 33 34  1  0  0  0  0
 33 35  1  0  0  0  0
 33 36  1  0  0  0  0
M  CHG  1  20   1
M  END
$$$$

  -OEChem-02172215453D

 36 35  0     1  0  0  0  0  0999 V2000
   -3.9270   -2.0884    1.0924 H   0  0  0  0  0  0  0  0  0  0  0  0
   -3.9460   -1.0899    0.6461 C   0  0  0  0  0  0  0  0  0  0  0  0
   -4.7945   -0.5377    1.0567 H   0  0  0  0  0  0  0  0  0  0  0  0
   -4.0729   -1.1941   -0.4339 H   0  0  0  0  0  0  0  0  0  0  0  0
   -2.6527   -0.3589    0.9519 C   0  0  0  0  0  0  0  0  0  0  0  0
   -1.8453   -0.8653    1.7075 O   0  0  0  0  0  0  0  0  0  0  0  0
   -2.4393    0.9002    0.4155 N   0  0  0  0  0  0  0  0  0  0  0  0
   -3.1557    1.2199   -0.2302 H   0  0  0  0  0  0  0  0  0  0  0  0
   -1.1541    1.6351    0.4248 C   0  0  1  0  0  0  0  0  0  0  0  0
   -1.2024    2.4478   -0.3060 H   0  0  0  0  0  0  0  0  0  0  0  0
   -0.9376    2.2496    1.8282 C   0  0  0  0  0  0  0  0  0  0  0  0
   -0.9786    1.4582    2.5847 H   0  0  0  0  0  0  0  0  0  0  0  0
    0.0671    2.6854    1.8708 H   0  0  0  0  0  0  0  0  0  0  0  0
   -1.9417    3.3518    2.1763 C   0  0  0  0  0  0  0  0  0  0  0  0
   -1.8738    4.1656    1.4469 H   0  0  0  0  0  0  0  0  0  0  0  0
   -2.9599    2.9494    2.1551 H   0  0  0  0  0  0  0  0  0  0  0  0
   -1.6114    3.8629    3.5772 C   0  0  0  0  0  0  0  0  0  0  0  0
   -1.6581    3.0213    4.2777 H   0  0  0  0  0  0  0  0  0  0  0  0
   -0.5886    4.2565    3.5799 H   0  0  0  0  0  0  0  0  0  0  0  0
   -2.5552    4.9151    3.9934 N   0  3  0  0  0  0  0  0  0  0  0  0
   -3.2436    5.2238    3.3091 H   0  0  0  0  0  0  0  0  0  0  0  0
   -2.5227    5.4738    5.1693 C   0  0  0  0  0  0  0  0  0  0  0  0
   -1.5892    5.1125    6.1153 N   0  0  0  0  0  0  0  0  0  0  0  0
   -0.9858    4.3120    5.9340 H   0  0  0  0  0  0  0  0  0  0  0  0
   -1.6511    5.4813    7.0619 H   0  0  0  0  0  0  0  0  0  0  0  0
   -3.4316    6.4579    5.4795 N   0  0  0  0  0  0  0  0  0  0  0  0
   -4.1872    6.6779    4.8336 H   0  0  0  0  0  0  0  0  0  0  0  0
   -3.4530    6.8506    6.4187 H   0  0  0  0  0  0  0  0  0  0  0  0
    0.0687    0.7593    0.0259 C   0  0  0  0  0  0  0  0  0  0  0  0
    0.9982    0.5574    0.7974 O   0  0  0  0  0  0  0  0  0  0  0  0
    0.2446    0.4235   -1.3054 N   0  0  0  0  0  0  0  0  0  0  0  0
   -0.5365    0.5736   -1.9356 H   0  0  0  0  0  0  0  0  0  0  0  0
    1.3997   -0.3267   -1.7893 C   0  0  0  0  0  0  0  0  0  0  0  0
    1.4414   -1.3132   -1.3152 H   0  0  0  0  0  0  0  0  0  0  0  0
    1.3373   -0.4650   -2.8730 H   0  0  0  0  0  0  0  0  0  0  0  0
    2.3279    0.2097   -1.5647 H   0  0  0  0  0  0  0  0  0  0  0  0
  1  2  1  0  0  0  0
  2  3  1  0  0  0  0
  2  4  1  0  0  0  0
  2  5  1  0  0  0  0
  5  6  2  0  0  0  0
  5  7  1  0  0  0  0
  7  8  1  0  0  0  0
  7  9  1  0  0  0  0
  9 10  1  0  0  0  0
  9 11  1  0  0  0  0
  9 29  1  0  0  0  0
 11 12  1  0  0  0  0
 11 13  1  0  0  0  0
 11 14  1  0  0  0  0
 14 15  1  0  0  0  0
 14 16  1  0  0  0  0
 14 17  1  0  0  0  0
 17 18  1  0  0  0  0
 17 19  1  0  0  0  0
 17 20  1  0  0  0  0
 20 21  1  0  0  0  0
 20 22  2  0  0  0  0
 22 23  1  0  0  0  0
 22 26  1  0  0  0  0
 23 24  1  0  0  0  0
 23 25  1  0  0  0  0
 26 27  1  0  0  0  0
 26 28  1  0  0  0  0
 29 30  2  0  0  0  0
 29 31  1  0  0  0  0
 31 32  1  0  0  0  0
 31 33  1  0  0  0  0
 33 34  1  0  0  0  0
 33 35  1  0  0  0  0
 33 36  1  0  0  0  0
M  CHG  1  20   1
M  END
$$$$

  -OEChem-02172215453D

 36 35  0     1  0  0  0  0  0999 V2000
   -3.9058   -2.1201    1.1120 H   0  0  0  0  0  0  0  0  0  0  0  0
   -3.8937   -1.1666    0.5758 C   0  0  0  0  0  0  0  0  0  0  0  0
   -4.8028   -0.6138    0.8227 H   0  0  0  0  0  0  0  0  0  0  0  0
   -3.8772   -1.3712   -0.4973 H   0  0  0  0  0  0  0  0  0  0  0  0
   -2.6690   -0.3632    0.9712 C   0  0  0  0  0  0  0  0  0  0  0  0
   -1.9121   -0.8110    1.8109 O   0  0  0  0  0  0  0  0  0  0  0  0
   -2.4708    0.8921    0.4186 N   0  0  0  0  0  0  0  0  0  0  0  0
   -3.1504    1.1475   -0.2923 H   0  0  0  0  0  0  0  0  0  0  0  0
   -1.1936    1.6419    0.4204 C   0  0  1  0  0  0  0  0  0  0  0  0
   -1.2549    2.4521   -0.3118 H   0  0  0  0  0  0  0  0  0  0  0  0
   -0.9710    2.2649    1.8186 C   0  0  0  0  0  0  0  0  0  0  0  0
   -0.9990    1.4783    2.5806 H   0  0  0  0  0  0  0  0  0  0  0  0
    0.0326    2.7047    1.8471 H   0  0  0  0  0  0  0  0  0  0  0  0
   -1.9788    3.3600    2.1782 C   0  0  0  0  0  0  0  0  0  0  0  0
   -1.9267    4.1750    1.4488 H   0  0  0  0  0  0  0  0  0  0  0  0
   -2.9942    2.9502    2.1714 H   0  0  0  0  0  0  0  0  0  0  0  0
   -1.6272    3.8682    3.5750 C   0  0  0  0  0  0  0  0  0  0  0  0
   -1.6564    3.0225    4.2712 H   0  0  0  0  0  0  0  0  0  0  0  0
   -0.6059    4.2653    3.5602 H   0  0  0  0  0  0  0  0  0  0  0  0
   -2.5661    4.9150    4.0157 N   0  3  0  0  0  0  0  0  0  0  0  0
   -3.2951    5.1964    3.3621 H   0  0  0  0  0  0  0  0  0  0  0  0
   -2.5099    5.4652    5.1948 C   0  0  0  0  0  0  0  0  0  0  0  0
   -1.5562    5.0998    6.1183 N   0  0  0  0  0  0  0  0  0  0  0  0
   -0.9909    4.2760    5.9191 H   0  0  0  0  0  0  0  0  0  0  0  0
   -1.6894    5.3646    7.0921 H   0  0  0  0  0  0  0  0  0  0  0  0
   -3.4211    6.4344    5.5411 N   0  0  0  0  0  0  0  0  0  0  0  0
   -4.0079    6.8389    4.8145 H   0  0  0  0  0  0  0  0  0  0  0  0
   -3.2443    6.9895    6.3764 H   0  0  0  0  0  0  0  0  0  0  0  0
    0.0421    0.7789    0.0338 C   0  0  0  0  0  0  0  0  0  0  0  0
    0.8455    0.3858    0.8696 O   0  0  0  0  0  0  0  0  0  0  0  0
    0.4058    0.6893   -1.2992 N   0  0  0  0  0  0  0  0  0  0  0  0
   -0.2568    1.0179   -1.9943 H   0  0  0  0  0  0  0  0  0  0  0  0
    1.5981   -0.0219   -1.7526 C   0  0  0  0  0  0  0  0  0  0  0  0
    1.5831   -1.0592   -1.4002 H   0  0  0  0  0  0  0  0  0  0  0  0
    1.6433   -0.0301   -2.8460 H   0  0  0  0  0  0  0  0  0  0  0  0
    2.5033    0.4644   -1.3732 H   0  0  0  0  0  0  0  0  0  0  0  0
  1  2  1  0  0  0  0
  2  3  1  0  0  0  0
  2  4  1  0  0  0  0
  2  5  1  0  0  0  0
  5  6  2  0  0  0  0
  5  7  1  0  0  0  0
  7  8  1  0  0  0  0
  7  9  1  0  0  0  0
  9 10  1  0  0  0  0
  9 11  1  0  0  0  0
  9 29  1  0  0  0  0
 11 12  1  0  0  0  0
 11 13  1  0  0  0  0
 11 14  1  0  0  0  0
 14 15  1  0  0  0  0
 14 16  1  0  0  0  0
 14 17  1  0  0  0  0
 17 18  1  0  0  0  0
 17 19  1  0  0  0  0
 17 20  1  0  0  0  0
 20 21  1  0  0  0  0
 20 22  2  0  0  0  0
 22 23  1  0  0  0  0
 22 26  1  0  0  0  0
 23 24  1  0  0  0  0
 23 25  1  0  0  0  0
 26 27  1  0  0  0  0
 26 28  1  0  0  0  0
 29 30  2  0  0  0  0
 29 31  1  0  0  0  0
 31 32  1  0  0  0  0
 31 33  1  0  0  0  0
 33 34  1  0  0  0  0
 33 35  1  0  0  0  0
 33 36  1  0  0  0  0
M  CHG  1  20   1
M  END
$$$$

  -OEChem-02172215453D

 36 35  0     1  0  0  0  0  0999 V2000
   -3.8981   -2.1515    1.0807 H   0  0  0  0  0  0  0  0  0  0  0  0
   -3.8643   -1.2118    0.5211 C   0  0  0  0  0  0  0  0  0  0  0  0
   -4.8053   -0.6785    0.6730 H   0  0  0  0  0  0  0  0  0  0  0  0
   -3.7484   -1.4424   -0.5406 H   0  0  0  0  0  0  0  0  0  0  0  0
   -2.6996   -0.3645    0.9978 C   0  0  0  0  0  0  0  0  0  0  0  0
   -2.0265   -0.7575    1.9311 O   0  0  0  0  0  0  0  0  0  0  0  0
   -2.4989    0.8878    0.4389 N   0  0  0  0  0  0  0  0  0  0  0  0
   -3.1411    1.0977   -0.3200 H   0  0  0  0  0  0  0  0  0  0  0  0
   -1.2170    1.6309    0.4281 C   0  0  1  0  0  0  0  0  0  0  0  0
   -1.2890    2.4433   -0.3006 H   0  0  0  0  0  0  0  0  0  0  0  0
   -0.9706    2.2502    1.8233 C   0  0  0  0  0  0  0  0  0  0  0  0
   -0.9938    1.4663    2.5877 H   0  0  0  0  0  0  0  0  0  0  0  0
    0.0371    2.6808    1.8388 H   0  0  0  0  0  0  0  0  0  0  0  0
   -1.9705    3.3503    2.1905 C   0  0  0  0  0  0  0  0  0  0  0  0
   -1.9227    4.1627    1.4578 H   0  0  0  0  0  0  0  0  0  0  0  0
   -2.9873    2.9431    2.1927 H   0  0  0  0  0  0  0  0  0  0  0  0
   -1.6109    3.8665    3.5821 C   0  0  0  0  0  0  0  0  0  0  0  0
   -1.6400    3.0254    4.2841 H   0  0  0  0  0  0  0  0  0  0  0  0
   -0.5894    4.2623    3.5612 H   0  0  0  0  0  0  0  0  0  0  0  0
   -2.5480    4.9172    4.0181 N   0  3  0  0  0  0  0  0  0  0  0  0
   -3.2816    5.1901    3.3659 H   0  0  0  0  0  0  0  0  0  0  0  0
   -2.4891    5.4775    5.1923 C   0  0  0  0  0  0  0  0  0  0  0  0
   -1.5334    5.1203    6.1166 N   0  0  0  0  0  0  0  0  0  0  0  0
   -0.9764    4.2894    5.9251 H   0  0  0  0  0  0  0  0  0  0  0  0
   -1.6668    5.3921    7.0885 H   0  0  0  0  0  0  0  0  0  0  0  0
   -3.3976    6.4518    5.5311 N   0  0  0  0  0  0  0  0  0  0  0  0
   -3.9905    6.8447    4.8029 H   0  0  0  0  0  0  0  0  0  0  0  0
   -3.2130    7.0207    6.3555 H   0  0  0  0  0  0  0  0  0  0  0  0
    0.0222    0.7763    0.0359 C   0  0  0  0  0  0  0  0  0  0  0  0
    0.6739    0.1555    0.8634 O   0  0  0  0  0  0  0  0  0  0  0  0
    0.5700    0.9310   -1.2268 N   0  0  0  0  0  0  0  0  0  0  0  0
    0.0434    1.4618   -1.9133 H   0  0  0  0  0  0  0  0  0  0  0  0
    1.7988    0.2660   -1.6524 C   0  0  0  0  0  0  0  0  0  0  0  0
    1.7010   -0.8210   -1.5569 H   0  0  0  0  0  0  0  0  0  0  0  0
    2.0158    0.5015   -2.6988 H   0  0  0  0  0  0  0  0  0  0  0  0
    2.6457    0.5968   -1.0419 H   0  0  0  0  0  0  0  0  0  0  0  0
  1  2  1  0  0  0  0
  2  3  1  0  0  0  0
  2  4  1  0  0  0  0
  2  5  1  0  0  0  0
  5  6  2  0  0  0  0
  5  7  1  0  0  0  0
  7  8  1  0  0  0  0
  7  9  1  0  0  0  0
  9 10  1  0  0  0  0
  9 11  1  0  0  0  0
  9 29  1  0  0  0  0
 11 12  1  0  0  0  0
 11 13  1  0  0  0  0
 11 14  1  0  0  0  0
 14 15  1  0  0  0  0
 14 16  1  0  0  0  0
 14 17  1  0  0  0  0
 17 18  1  0  0  0  0
 17 19  1  0  0  0  0
 17 20  1  0  0  0  0
 20 21  1  0  0  0  0
 20 22  2  0  0  0  0
 22 23  1  0  0  0  0
 22 26  1  0  0  0  0
 23 24  1  0  0  0  0
 23 25  1  0  0  0  0
 26 27  1  0  0  0  0
 26 28  1  0  0  0  0
 29 30  2  0  0  0  0
 29 31  1  0  0  0  0
 31 32  1  0  0  0  0
 31 33  1  0  0  0  0
 33 34  1  0  0  0  0
 33 35  1  0  0  0  0
 33 36  1  0  0  0  0
M  CHG  1  20   1
M  END
$$$$

  -OEChem-02172215453D

 36 35  0     1  0  0  0  0  0999 V2000
   -3.7317   -2.2312    0.9484 H   0  0  0  0  0  0  0  0  0  0  0  0
   -3.7604   -1.2698    0.4272 C   0  0  0  0  0  0  0  0  0  0  0  0
   -4.7633   -0.8475    0.5218 H   0  0  0  0  0  0  0  0  0  0  0  0
   -3.5390   -1.4403   -0.6290 H   0  0  0  0  0  0  0  0  0  0  0  0
   -2.7367   -0.3248    1.0272 C   0  0  0  0  0  0  0  0  0  0  0  0
   -2.2395   -0.5984    2.1046 O   0  0  0  0  0  0  0  0  0  0  0  0
   -2.5386    0.9190    0.4474 N   0  0  0  0  0  0  0  0  0  0  0  0
   -3.1101    1.0476   -0.3827 H   0  0  0  0  0  0  0  0  0  0  0  0
   -1.2501    1.6526    0.4294 C   0  0  1  0  0  0  0  0  0  0  0  0
   -1.3226    2.4624   -0.3020 H   0  0  0  0  0  0  0  0  0  0  0  0
   -0.9740    2.2678    1.8190 C   0  0  0  0  0  0  0  0  0  0  0  0
   -0.9825    1.4893    2.5882 H   0  0  0  0  0  0  0  0  0  0  0  0
    0.0353    2.6943    1.8148 H   0  0  0  0  0  0  0  0  0  0  0  0
   -1.9619    3.3752    2.1938 C   0  0  0  0  0  0  0  0  0  0  0  0
   -1.9207    4.1835    1.4564 H   0  0  0  0  0  0  0  0  0  0  0  0
   -2.9803    2.9718    2.2107 H   0  0  0  0  0  0  0  0  0  0  0  0
   -1.5843    3.8956    3.5784 C   0  0  0  0  0  0  0  0  0  0  0  0
   -1.6102    3.0581    4.2852 H   0  0  0  0  0  0  0  0  0  0  0  0
   -0.5610    4.2871    3.5450 H   0  0  0  0  0  0  0  0  0  0  0  0
   -2.5127    4.9528    4.0164 N   0  3  0  0  0  0  0  0  0  0  0  0
   -3.2315    5.2469    3.3574 H   0  0  0  0  0  0  0  0  0  0  0  0
   -2.4409    5.5200    5.1862 C   0  0  0  0  0  0  0  0  0  0  0  0
   -1.4771    5.1622    6.1023 N   0  0  0  0  0  0  0  0  0  0  0  0
   -0.9177    4.3314    5.9171 H   0  0  0  0  0  0  0  0  0  0  0  0
   -1.5420    5.5022    7.0593 H   0  0  0  0  0  0  0  0  0  0  0  0
   -3.3394    6.5053    5.5204 N   0  0  0  0  0  0  0  0  0  0  0  0
   -4.1317    6.6983    4.9110 H   0  0  0  0  0  0  0  0  0  0  0  0
   -3.3333    6.8964    6.4606 H   0  0  0  0  0  0  0  0  0  0  0  0
   -0.0127    0.7916    0.0507 C   0  0  0  0  0  0  0  0  0  0  0  0
    0.3999   -0.1120    0.7608 O   0  0  0  0  0  0  0  0  0  0  0  0
    0.7357    1.1321   -1.0636 N   0  0  0  0  0  0  0  0  0  0  0  0
    0.4030    1.8886   -1.6534 H   0  0  0  0  0  0  0  0  0  0  0  0
    1.9519    0.4238   -1.4539 C   0  0  0  0  0  0  0  0  0  0  0  0
    1.7413   -0.6379   -1.6221 H   0  0  0  0  0  0  0  0  0  0  0  0
    2.3574    0.8447   -2.3789 H   0  0  0  0  0  0  0  0  0  0  0  0
    2.7141    0.5105   -0.6720 H   0  0  0  0  0  0  0  0  0  0  0  0
  1  2  1  0  0  0  0
  2  3  1  0  0  0  0
  2  4  1  0  0  0  0
  2  5  1  0  0  0  0
  5  6  2  0  0  0  0
  5  7  1  0  0  0  0
  7  8  1  0  0  0  0
  7  9  1  0  0  0  0
  9 10  1  0  0  0  0
  9 11  1  0  0  0  0
  9 29  1  0  0  0  0
 11 12  1  0  0  0  0
 11 13  1  0  0  0  0
 11 14  1  0  0  0  0
 14 15  1  0  0  0  0
 14 16  1  0  0  0  0
 14 17  1  0  0  0  0
 17 18  1  0  0  0  0
 17 19  1  0  0  0  0
 17 20  1  0  0  0  0
 20 21  1  0  0  0  0
 20 22  2  0  0  0  0
 22 23  1  0  0  0  0
 22 26  1  0  0  0  0
 23 24  1  0  0  0  0
 23 25  1  0  0  0  0
 26 27  1  0  0  0  0
 26 28  1  0  0  0  0
 29 30  2  0  0  0  0
 29 31  1  0  0  0  0
 31 32  1  0  0  0  0
 31 33  1  0  0  0  0
 33 34  1  0  0  0  0
 33 35  1  0  0  0  0
 33 36  1  0  0  0  0
M  CHG  1  20   1
M  END
$$$$

  -OEChem-02172215453D

 36 35  0     1  0  0  0  0  0999 V2000
   -3.6346   -2.2546    0.9338 H   0  0  0  0  0  0  0  0  0  0  0  0
   -3.6688   -1.3039    0.3939 C   0  0  0  0  0  0  0  0  0  0  0  0
   -4.6945   -0.9283    0.4047 H   0  0  0  0  0  0  0  0  0  0  0  0
   -3.3589   -1.4796   -0.6389 H   0  0  0  0  0  0  0  0  0  0  0  0
   -2.7373   -0.3037    1.0508 C   0  0  0  0  0  0  0  0  0  0  0  0
   -2.3343   -0.5186    2.1815 O   0  0  0  0  0  0  0  0  0  0  0  0
   -2.5416    0.9391    0.4673 N   0  0  0  0  0  0  0  0  0  0  0  0
   -3.0710    1.0290   -0.3954 H   0  0  0  0  0  0  0  0  0  0  0  0
   -1.2440    1.6594    0.4523 C   0  0  1  0  0  0  0  0  0  0  0  0
   -1.3123    2.4695   -0.2795 H   0  0  0  0  0  0  0  0  0  0  0  0
   -0.9615    2.2649    1.8453 C   0  0  0  0  0  0  0  0  0  0  0  0
   -0.9723    1.4848    2.6122 H   0  0  0  0  0  0  0  0  0  0  0  0
    0.0496    2.6868    1.8423 H   0  0  0  0  0  0  0  0  0  0  0  0
   -1.9427    3.3800    2.2192 C   0  0  0  0  0  0  0  0  0  0  0  0
   -1.8932    4.1876    1.4818 H   0  0  0  0  0  0  0  0  0  0  0  0
   -2.9636    2.9823    2.2304 H   0  0  0  0  0  0  0  0  0  0  0  0
   -1.5755    3.9031    3.6061 C   0  0  0  0  0  0  0  0  0  0  0  0
   -1.6120    3.0693    4.3162 H   0  0  0  0  0  0  0  0  0  0  0  0
   -0.5515    4.2926    3.5815 H   0  0  0  0  0  0  0  0  0  0  0  0
   -2.5065    4.9651    4.0273 N   0  3  0  0  0  0  0  0  0  0  0  0
   -3.2192    5.2530    3.3587 H   0  0  0  0  0  0  0  0  0  0  0  0
   -2.4508    5.5410    5.1939 C   0  0  0  0  0  0  0  0  0  0  0  0
   -1.5014    5.1901    6.1276 N   0  0  0  0  0  0  0  0  0  0  0  0
   -0.9480    4.3516    5.9604 H   0  0  0  0  0  0  0  0  0  0  0  0
   -1.5912    5.5289    7.0832 H   0  0  0  0  0  0  0  0  0  0  0  0
   -3.3540    6.5291    5.5075 N   0  0  0  0  0  0  0  0  0  0  0  0
   -4.1325    6.7260    4.8816 H   0  0  0  0  0  0  0  0  0  0  0  0
   -3.3513    6.9415    6.4384 H   0  0  0  0  0  0  0  0  0  0  0  0
   -0.0046    0.7978    0.0748 C   0  0  0  0  0  0  0  0  0  0  0  0
    0.1659   -0.3367    0.4928 O   0  0  0  0  0  0  0  0  0  0  0  0
    0.9223    1.3005   -0.8232 N   0  0  0  0  0  0  0  0  0  0  0  0
    0.7640    2.2258   -1.2095 H   0  0  0  0  0  0  0  0  0  0  0  0
    2.0839    0.5417   -1.2801 C   0  0  0  0  0  0  0  0  0  0  0  0
    1.7673   -0.3731   -1.7929 H   0  0  0  0  0  0  0  0  0  0  0  0
    2.6790    1.1397   -1.9771 H   0  0  0  0  0  0  0  0  0  0  0  0
    2.7202    0.2655   -0.4322 H   0  0  0  0  0  0  0  0  0  0  0  0
  1  2  1  0  0  0  0
  2  3  1  0  0  0  0
  2  4  1  0  0  0  0
  2  5  1  0  0  0  0
  5  6  2  0  0  0  0
  5  7  1  0  0  0  0
  7  8  1  0  0  0  0
  7  9  1  0  0  0  0
  9 10  1  0  0  0  0
  9 11  1  0  0  0  0
  9 29  1  0  0  0  0
 11 12  1  0  0  0  0
 11 13  1  0  0  0  0
 11 14  1  0  0  0  0
 14 15  1  0  0  0  0
 14 16  1  0  0  0  0
 14 17  1  0  0  0  0
 17 18  1  0  0  0  0
 17 19  1  0  0  0  0
 17 20  1  0  0  0  0
 20 21  1  0  0  0  0
 20 22  2  0  0  0  0
 22 23  1  0  0  0  0
 22 26  1  0  0  0  0
 23 24  1  0  0  0  0
 23 25  1  0  0  0  0
 26 27  1  0  0  0  0
 26 28  1  0  0  0  0
 29 30  2  0  0  0  0
 29 31  1  0  0  0  0
 31 32  1  0  0  0  0
 31 33  1  0  0  0  0
 33 34  1  0  0  0  0
 33 35  1  0  0  0  0
 33 36  1  0  0  0  0
M  CHG  1  20   1
M  END
$$$$

  -OEChem-02172215453D

 36 35  0     1  0  0  0  0  0999 V2000
   -3.7169   -2.2312    0.9855 H   0  0  0  0  0  0  0  0  0  0  0  0
   -3.6706   -1.3079    0.4009 C   0  0  0  0  0  0  0  0  0  0  0  0
   -4.6739   -0.8821    0.3306 H   0  0  0  0  0  0  0  0  0  0  0  0
   -3.3088   -1.5484   -0.6019 H   0  0  0  0  0  0  0  0  0  0  0  0
   -2.7283   -0.3220    1.0629 C   0  0  0  0  0  0  0  0  0  0  0  0
   -2.2804   -0.5660    2.1717 O   0  0  0  0  0  0  0  0  0  0  0  0
   -2.5290    0.9265    0.4932 N   0  0  0  0  0  0  0  0  0  0  0  0
   -3.0479    1.0203   -0.3755 H   0  0  0  0  0  0  0  0  0  0  0  0
   -1.2232    1.6319    0.4907 C   0  0  1  0  0  0  0  0  0  0  0  0
   -1.2834    2.4409   -0.2429 H   0  0  0  0  0  0  0  0  0  0  0  0
   -0.9501    2.2400    1.8843 C   0  0  0  0  0  0  0  0  0  0  0  0
   -0.9829    1.4643    2.6546 H   0  0  0  0  0  0  0  0  0  0  0  0
    0.0655    2.6508    1.8948 H   0  0  0  0  0  0  0  0  0  0  0  0
   -1.9249    3.3681    2.2380 C   0  0  0  0  0  0  0  0  0  0  0  0
   -1.8568    4.1700    1.4957 H   0  0  0  0  0  0  0  0  0  0  0  0
   -2.9502    2.9814    2.2363 H   0  0  0  0  0  0  0  0  0  0  0  0
   -1.5741    3.8985    3.6267 C   0  0  0  0  0  0  0  0  0  0  0  0
   -1.6321    3.0708    4.3426 H   0  0  0  0  0  0  0  0  0  0  0  0
   -0.5455    4.2765    3.6163 H   0  0  0  0  0  0  0  0  0  0  0  0
   -2.5024    4.9724    4.0235 N   0  3  0  0  0  0  0  0  0  0  0  0
   -3.2036    5.2582    3.3420 H   0  0  0  0  0  0  0  0  0  0  0  0
   -2.4619    5.5588    5.1856 C   0  0  0  0  0  0  0  0  0  0  0  0
   -1.5321    5.2095    6.1396 N   0  0  0  0  0  0  0  0  0  0  0  0
   -0.9789    4.3679    5.9894 H   0  0  0  0  0  0  0  0  0  0  0  0
   -1.6359    5.5586    7.0900 H   0  0  0  0  0  0  0  0  0  0  0  0
   -3.3635    6.5561    5.4740 N   0  0  0  0  0  0  0  0  0  0  0  0
   -4.1155    6.7701    4.8219 H   0  0  0  0  0  0  0  0  0  0  0  0
   -3.3731    6.9816    6.3991 H   0  0  0  0  0  0  0  0  0  0  0  0
    0.0162    0.7715    0.1052 C   0  0  0  0  0  0  0  0  0  0  0  0
    0.0038   -0.4504    0.1201 O   0  0  0  0  0  0  0  0  0  0  0  0
    1.0904    1.3876   -0.5157 N   0  0  0  0  0  0  0  0  0  0  0  0
    1.0746    2.3983   -0.6088 H   0  0  0  0  0  0  0  0  0  0  0  0
    2.2306    0.6539   -1.0594 C   0  0  0  0  0  0  0  0  0  0  0  0
    1.9101   -0.0060   -1.8728 H   0  0  0  0  0  0  0  0  0  0  0  0
    2.9777    1.3496   -1.4533 H   0  0  0  0  0  0  0  0  0  0  0  0
    2.7041    0.0452   -0.2814 H   0  0  0  0  0  0  0  0  0  0  0  0
  1  2  1  0  0  0  0
  2  3  1  0  0  0  0
  2  4  1  0  0  0  0
  2  5  1  0  0  0  0
  5  6  2  0  0  0  0
  5  7  1  0  0  0  0
  7  8  1  0  0  0  0
  7  9  1  0  0  0  0
  9 10  1  0  0  0  0
  9 11  1  0  0  0  0
  9 29  1  0  0  0  0
 11 12  1  0  0  0  0
 11 13  1  0  0  0  0
 11 14  1  0  0  0  0
 14 15  1  0  0  0  0
 14 16  1  0  0  0  0
 14 17  1  0  0  0  0
 17 18  1  0  0  0  0
 17 19  1  0  0  0  0
 17 20  1  0  0  0  0
 20 21  1  0  0  0  0
 20 22  2  0  0  0  0
 22 23  1  0  0  0  0
 22 26  1  0  0  0  0
 23 24  1  0  0  0  0
 23 25  1  0  0  0  0
 26 27  1  0  0  0  0
 26 28  1  0  0  0  0
 29 30  2  0  0  0  0
 29 31  1  0  0  0  0
 31 32  1  0  0  0  0
 31 33  1  0  0  0  0
 33 34  1  0  0  0  0
 33 35  1  0  0  0  0
 33 36  1  0  0  0  0
M  CHG  1  20   1
M  END
$$$$

  -OEChem-02172215453D

 36 35  0     1  0  0  0  0  0999 V2000
   -3.8112   -2.1804    1.0637 H   0  0  0  0  0  0  0  0  0  0  0  0
   -3.6836   -1.2998    0.4276 C   0  0  0  0  0  0  0  0  0  0  0  0
   -4.6524   -0.8120    0.3018 H   0  0  0  0  0  0  0  0  0  0  0  0
   -3.3131   -1.6240   -0.5483 H   0  0  0  0  0  0  0  0  0  0  0  0
   -2.6914   -0.3423    1.0582 C   0  0  0  0  0  0  0  0  0  0  0  0
   -2.1518   -0.6384    2.1125 O   0  0  0  0  0  0  0  0  0  0  0  0
   -2.5076    0.9188    0.5105 N   0  0  0  0  0  0  0  0  0  0  0  0
   -3.0394    1.0332   -0.3481 H   0  0  0  0  0  0  0  0  0  0  0  0
   -1.2026    1.6238    0.5161 C   0  0  1  0  0  0  0  0  0  0  0  0
   -1.2582    2.4389   -0.2116 H   0  0  0  0  0  0  0  0  0  0  0  0
   -0.9390    2.2256    1.9163 C   0  0  0  0  0  0  0  0  0  0  0  0
   -0.9806    1.4474    2.6836 H   0  0  0  0  0  0  0  0  0  0  0  0
    0.0749    2.6381    1.9417 H   0  0  0  0  0  0  0  0  0  0  0  0
   -1.9201    3.3507    2.2624 C   0  0  0  0  0  0  0  0  0  0  0  0
   -1.8464    4.1537    1.5216 H   0  0  0  0  0  0  0  0  0  0  0  0
   -2.9445    2.9620    2.2492 H   0  0  0  0  0  0  0  0  0  0  0  0
   -1.5879    3.8822    3.6550 C   0  0  0  0  0  0  0  0  0  0  0  0
   -1.6501    3.0548    4.3712 H   0  0  0  0  0  0  0  0  0  0  0  0
   -0.5615    4.2651    3.6567 H   0  0  0  0  0  0  0  0  0  0  0  0
   -2.5266    4.9526    4.0368 N   0  3  0  0  0  0  0  0  0  0  0  0
   -3.2382    5.2127    3.3554 H   0  0  0  0  0  0  0  0  0  0  0  0
   -2.5064    5.5421    5.1976 C   0  0  0  0  0  0  0  0  0  0  0  0
   -1.5904    5.2013    6.1673 N   0  0  0  0  0  0  0  0  0  0  0  0
   -1.0488    4.3503    6.0278 H   0  0  0  0  0  0  0  0  0  0  0  0
   -1.7550    5.5095    7.1235 H   0  0  0  0  0  0  0  0  0  0  0  0
   -3.4197    6.5319    5.4726 N   0  0  0  0  0  0  0  0  0  0  0  0
   -3.9792    6.9099    4.7105 H   0  0  0  0  0  0  0  0  0  0  0  0
   -3.2718    7.1168    6.2933 H   0  0  0  0  0  0  0  0  0  0  0  0
    0.0251    0.7589    0.1050 C   0  0  0  0  0  0  0  0  0  0  0  0
   -0.0947   -0.4120   -0.2291 O   0  0  0  0  0  0  0  0  0  0  0  0
    1.2167    1.3886   -0.2178 N   0  0  0  0  0  0  0  0  0  0  0  0
    1.2932    2.3850   -0.0423 H   0  0  0  0  0  0  0  0  0  0  0  0
    2.3595    0.6919   -0.8028 C   0  0  0  0  0  0  0  0  0  0  0  0
    2.1004    0.2915   -1.7891 H   0  0  0  0  0  0  0  0  0  0  0  0
    3.2047    1.3770   -0.9191 H   0  0  0  0  0  0  0  0  0  0  0  0
    2.6749   -0.1372   -0.1597 H   0  0  0  0  0  0  0  0  0  0  0  0
  1  2  1  0  0  0  0
  2  3  1  0  0  0  0
  2  4  1  0  0  0  0
  2  5  1  0  0  0  0
  5  6  2  0  0  0  0
  5  7  1  0  0  0  0
  7  8  1  0  0  0  0
  7  9  1  0  0  0  0
  9 10  1  0  0  0  0
  9 11  1  0  0  0  0
  9 29  1  0  0  0  0
 11 12  1  0  0  0  0
 11 13  1  0  0  0  0
 11 14  1  0  0  0  0
 14 15  1  0  0  0  0
 14 16  1  0  0  0  0
 14 17  1  0  0  0  0
 17 18  1  0  0  0  0
 17 19  1  0  0  0  0
 17 20  1  0  0  0  0
 20 21  1  0  0  0  0
 20 22  2  0  0  0  0
 22 23  1  0  0  0  0
 22 26  1  0  0  0  0
 23 24  1  0  0  0  0
 23 25  1  0  0  0  0
 26 27  1  0  0  0  0
 26 28  1  0  0  0  0
 29 30  2  0  0  0  0
 29 31  1  0  0  0  0
 31 32  1  0  0  0  0
 31 33  1  0  0  0  0
 33 34  1  0  0  0  0
 33 35  1  0  0  0  0
 33 36  1  0  0  0  0
M  CHG  1  20   1
M  END
$$$$

  -OEChem-02172215453D

 36 35  0     1  0  0  0  0  0999 V2000
   -3.7470   -2.2194    0.7704 H   0  0  0  0  0  0  0  0  0  0  0  0
   -3.7588   -1.2091    0.3518 C   0  0  0  0  0  0  0  0  0  0  0  0
   -4.7287   -0.7515    0.5589 H   0  0  0  0  0  0  0  0  0  0  0  0
   -3.6171   -1.2795   -0.7297 H   0  0  0  0  0  0  0  0  0  0  0  0
   -2.6468   -0.3778    0.9621 C   0  0  0  0  0  0  0  0  0  0  0  0
   -1.9822   -0.8463    1.8721 O   0  0  0  0  0  0  0  0  0  0  0  0
   -2.4489    0.9179    0.5091 N   0  0  0  0  0  0  0  0  0  0  0  0
   -3.0136    1.1239   -0.3113 H   0  0  0  0  0  0  0  0  0  0  0  0
   -1.1505    1.6314    0.5597 C   0  0  1  0  0  0  0  0  0  0  0  0
   -1.2837    2.5994    0.0674 H   0  0  0  0  0  0  0  0  0  0  0  0
   -0.6834    1.9015    2.0123 C   0  0  0  0  0  0  0  0  0  0  0  0
   -0.6045    0.9767    2.5879 H   0  0  0  0  0  0  0  0  0  0  0  0
    0.3206    2.3365    1.9880 H   0  0  0  0  0  0  0  0  0  0  0  0
   -1.6079    2.8955    2.7241 C   0  0  0  0  0  0  0  0  0  0  0  0
   -1.6314    3.8426    2.1747 H   0  0  0  0  0  0  0  0  0  0  0  0
   -2.6254    2.4899    2.7531 H   0  0  0  0  0  0  0  0  0  0  0  0
   -1.1056    3.1248    4.1479 C   0  0  0  0  0  0  0  0  0  0  0  0
   -1.0761    2.1625    4.6715 H   0  0  0  0  0  0  0  0  0  0  0  0
   -0.0885    3.5308    4.1100 H   0  0  0  0  0  0  0  0  0  0  0  0
   -1.9983    4.0607    4.8558 N   0  3  0  0  0  0  0  0  0  0  0  0
   -2.7657    4.4653    4.3212 H   0  0  0  0  0  0  0  0  0  0  0  0
   -1.8460    4.3947    6.1049 C   0  0  0  0  0  0  0  0  0  0  0  0
   -0.8194    3.8880    6.8694 N   0  0  0  0  0  0  0  0  0  0  0  0
   -0.2809    3.1084    6.4967 H   0  0  0  0  0  0  0  0  0  0  0  0
   -0.8355    4.0267    7.8776 H   0  0  0  0  0  0  0  0  0  0  0  0
   -2.7247    5.2816    6.6811 N   0  0  0  0  0  0  0  0  0  0  0  0
   -3.5499    5.5885    6.1697 H   0  0  0  0  0  0  0  0  0  0  0  0
   -2.6449    5.5049    7.6715 H   0  0  0  0  0  0  0  0  0  0  0  0
   -0.0525    0.8918   -0.2552 C   0  0  0  0  0  0  0  0  0  0  0  0
   -0.3541   -0.0230   -1.0120 O   0  0  0  0  0  0  0  0  0  0  0  0
    1.2345    1.3975   -0.3319 N   0  0  0  0  0  0  0  0  0  0  0  0
    1.4755    2.1823    0.2638 H   0  0  0  0  0  0  0  0  0  0  0  0
    2.2736    0.8114   -1.1741 C   0  0  0  0  0  0  0  0  0  0  0  0
    1.9757    0.8400   -2.2278 H   0  0  0  0  0  0  0  0  0  0  0  0
    3.2102    1.3670   -1.0658 H   0  0  0  0  0  0  0  0  0  0  0  0
    2.4553   -0.2307   -0.8901 H   0  0  0  0  0  0  0  0  0  0  0  0
  1  2  1  0  0  0  0
  2  3  1  0  0  0  0
  2  4  1  0  0  0  0
  2  5  1  0  0  0  0
  5  6  2  0  0  0  0
  5  7  1  0  0  0  0
  7  8  1  0  0  0  0
  7  9  1  0  0  0  0
  9 10  1  0  0  0  0
  9 11  1  0  0  0  0
  9 29  1  0  0  0  0
 11 12  1  0  0  0  0
 11 13  1  0  0  0  0
 11 14  1  0  0  0  0
 14 15  1  0  0  0  0
 14 16  1  0  0  0  0
 14 17  1  0  0  0  0
 17 18  1  0  0  0  0
 17 19  1  0  0  0  0
 17 20  1  0  0  0  0
 20 21  1  0  0  0  0
 20 22  2  0  0  0  0
 22 23  1  0  0  0  0
 22 26  1  0  0  0  0
 23 24  1  0  0  0  0
 23 25  1  0  0  0  0
 26 27  1  0  0  0  0
 26 28  1  0  0  0  0
 29 30  2  0  0  0  0
 29 31  1  0  0  0  0
 31 32  1  0  0  0  0
 31 33  1  0  0  0  0
 33 34  1  0  0  0  0
 33 35  1  0  0  0  0
 33 36  1  0  0  0  0
M  CHG  1  20   1
M  END
$$$$

  -OEChem-02172215453D

 36 35  0     1  0  0  0  0  0999 V2000
   -3.7712   -2.1979    0.8455 H   0  0  0  0  0  0  0  0  0  0  0  0
   -3.7131   -1.2300    0.3394 C   0  0  0  0  0  0  0  0  0  0  0  0
   -4.6736   -0.7205    0.4418 H   0  0  0  0  0  0  0  0  0  0  0  0
   -3.5074   -1.4014   -0.7206 H   0  0  0  0  0  0  0  0  0  0  0  0
   -2.6055   -0.3893    0.9445 C   0  0  0  0  0  0  0  0  0  0  0  0
   -1.8965   -0.8708    1.8133 O   0  0  0  0  0  0  0  0  0  0  0  0
   -2.4364    0.9175    0.5136 N   0  0  0  0  0  0  0  0  0  0  0  0
   -3.0070    1.1304   -0.3013 H   0  0  0  0  0  0  0  0  0  0  0  0
   -1.1488    1.6473    0.5755 C   0  0  1  0  0  0  0  0  0  0  0  0
   -1.2896    2.6173    0.0889 H   0  0  0  0  0  0  0  0  0  0  0  0
   -0.6934    1.9194    2.0324 C   0  0  0  0  0  0  0  0  0  0  0  0
   -0.6079    0.9936    2.6057 H   0  0  0  0  0  0  0  0  0  0  0  0
    0.3032    2.3708    2.0167 H   0  0  0  0  0  0  0  0  0  0  0  0
   -1.6333    2.8991    2.7435 C   0  0  0  0  0  0  0  0  0  0  0  0
   -1.6664    3.8482    2.1977 H   0  0  0  0  0  0  0  0  0  0  0  0
   -2.6457    2.4807    2.7677 H   0  0  0  0  0  0  0  0  0  0  0  0
   -1.1359    3.1267    4.1697 C   0  0  0  0  0  0  0  0  0  0  0  0
   -1.0967    2.1615    4.6875 H   0  0  0  0  0  0  0  0  0  0  0  0
   -0.1232    3.5439    4.1346 H   0  0  0  0  0  0  0  0  0  0  0  0
   -2.0370    4.0481    4.8853 N   0  3  0  0  0  0  0  0  0  0  0  0
   -2.8297    4.4215    4.3649 H   0  0  0  0  0  0  0  0  0  0  0  0
   -1.8845    4.3734    6.1367 C   0  0  0  0  0  0  0  0  0  0  0  0
   -0.8517    3.8717    6.8963 N   0  0  0  0  0  0  0  0  0  0  0  0
   -0.3162    3.0948    6.5135 H   0  0  0  0  0  0  0  0  0  0  0  0
   -0.9062    3.9589    7.9092 H   0  0  0  0  0  0  0  0  0  0  0  0
   -2.7718    5.2426    6.7251 N   0  0  0  0  0  0  0  0  0  0  0  0
   -3.4285    5.7495    6.1347 H   0  0  0  0  0  0  0  0  0  0  0  0
   -2.5304    5.6467    7.6282 H   0  0  0  0  0  0  0  0  0  0  0  0
   -0.0592    0.9192   -0.2614 C   0  0  0  0  0  0  0  0  0  0  0  0
   -0.3983    0.1944   -1.1892 O   0  0  0  0  0  0  0  0  0  0  0  0
    1.2865    1.2166   -0.1245 N   0  0  0  0  0  0  0  0  0  0  0  0
    1.5650    1.8112    0.6485 H   0  0  0  0  0  0  0  0  0  0  0  0
    2.3269    0.5945   -0.9381 C   0  0  0  0  0  0  0  0  0  0  0  0
    2.1760    0.8263   -1.9978 H   0  0  0  0  0  0  0  0  0  0  0  0
    3.3134    0.9643   -0.6423 H   0  0  0  0  0  0  0  0  0  0  0  0
    2.3139   -0.4935   -0.8118 H   0  0  0  0  0  0  0  0  0  0  0  0
  1  2  1  0  0  0  0
  2  3  1  0  0  0  0
  2  4  1  0  0  0  0
  2  5  1  0  0  0  0
  5  6  2  0  0  0  0
  5  7  1  0  0  0  0
  7  8  1  0  0  0  0
  7  9  1  0  0  0  0
  9 10  1  0  0  0  0
  9 11  1  0  0  0  0
  9 29  1  0  0  0  0
 11 12  1  0  0  0  0
 11 13  1  0  0  0  0
 11 14  1  0  0  0  0
 14 15  1  0  0  0  0
 14 16  1  0  0  0  0
 14 17  1  0  0  0  0
 17 18  1  0  0  0  0
 17 19  1  0  0  0  0
 17 20  1  0  0  0  0
 20 21  1  0  0  0  0
 20 22  2  0  0  0  0
 22 23  1  0  0  0  0
 22 26  1  0  0  0  0
 23 24  1  0  0  0  0
 23 25  1  0  0  0  0
 26 27  1  0  0  0  0
 26 28  1  0  0  0  0
 29 30  2  0  0  0  0
 29 31  1  0  0  0  0
 31 32  1  0  0  0  0
 31 33  1  0  0  0  0
 33 34  1  0  0  0  0
 33 35  1  0  0  0  0
 33 36  1  0  0  0  0
M  CHG  1  20   1
M  END
$$$$

  -OEChem-02172215453D

 36 35  0     1  0  0  0  0  0999 V2000
   -3.6875   -2.2187    0.7894 H   0  0  0  0  0  0  0  0  0  0  0  0
   -3.7099   -1.2055    0.3777 C   0  0  0  0  0  0  0  0  0  0  0  0
   -4.6625   -0.7394    0.6391 H   0  0  0  0  0  0  0  0  0  0  0  0
   -3.6271   -1.2692   -0.7104 H   0  0  0  0  0  0  0  0  0  0  0  0
   -2.5586   -0.3897    0.9334 C   0  0  0  0  0  0  0  0  0  0  0  0
   -1.7976   -0.8996    1.7399 O   0  0  0  0  0  0  0  0  0  0  0  0
   -2.4000    0.9249    0.5250 N   0  0  0  0  0  0  0  0  0  0  0  0
   -2.9918    1.1643   -0.2675 H   0  0  0  0  0  0  0  0  0  0  0  0
   -1.1160    1.6577    0.5922 C   0  0  1  0  0  0  0  0  0  0  0  0
   -1.2586    2.6318    0.1149 H   0  0  0  0  0  0  0  0  0  0  0  0
   -0.6659    1.9242    2.0511 C   0  0  0  0  0  0  0  0  0  0  0  0
   -0.5839    0.9958    2.6215 H   0  0  0  0  0  0  0  0  0  0  0  0
    0.3287    2.3804    2.0395 H   0  0  0  0  0  0  0  0  0  0  0  0
   -1.6160    2.8989    2.7572 C   0  0  0  0  0  0  0  0  0  0  0  0
   -1.6484    3.8478    2.2113 H   0  0  0  0  0  0  0  0  0  0  0  0
   -2.6268    2.4766    2.7711 H   0  0  0  0  0  0  0  0  0  0  0  0
   -1.1380    3.1323    4.1888 C   0  0  0  0  0  0  0  0  0  0  0  0
   -1.0996    2.1691    4.7100 H   0  0  0  0  0  0  0  0  0  0  0  0
   -0.1280    3.5564    4.1665 H   0  0  0  0  0  0  0  0  0  0  0  0
   -2.0564    4.0497    4.8880 N   0  3  0  0  0  0  0  0  0  0  0  0
   -2.8418    4.4180    4.3531 H   0  0  0  0  0  0  0  0  0  0  0  0
   -1.9260    4.3813    6.1404 C   0  0  0  0  0  0  0  0  0  0  0  0
   -0.9015    3.8902    6.9175 N   0  0  0  0  0  0  0  0  0  0  0  0
   -0.3519    3.1185    6.5446 H   0  0  0  0  0  0  0  0  0  0  0  0
   -0.9730    3.9787    7.9291 H   0  0  0  0  0  0  0  0  0  0  0  0
   -2.8285    5.2459    6.7127 N   0  0  0  0  0  0  0  0  0  0  0  0
   -3.4783    5.7478    6.1106 H   0  0  0  0  0  0  0  0  0  0  0  0
   -2.6028    5.6550    7.6177 H   0  0  0  0  0  0  0  0  0  0  0  0
   -0.0407    0.9385   -0.2672 C   0  0  0  0  0  0  0  0  0  0  0  0
   -0.3840    0.4302   -1.3275 O   0  0  0  0  0  0  0  0  0  0  0  0
    1.3089    0.9805    0.0395 N   0  0  0  0  0  0  0  0  0  0  0  0
    1.5672    1.3153    0.9614 H   0  0  0  0  0  0  0  0  0  0  0  0
    2.3232    0.3014   -0.7616 C   0  0  0  0  0  0  0  0  0  0  0  0
    2.3142    0.6745   -1.7915 H   0  0  0  0  0  0  0  0  0  0  0  0
    3.3189    0.4764   -0.3427 H   0  0  0  0  0  0  0  0  0  0  0  0
    2.1388   -0.7782   -0.7779 H   0  0  0  0  0  0  0  0  0  0  0  0
  1  2  1  0  0  0  0
  2  3  1  0  0  0  0
  2  4  1  0  0  0  0
  2  5  1  0  0  0  0
  5  6  2  0  0  0  0
  5  7  1  0  0  0  0
  7  8  1  0  0  0  0
  7  9  1  0  0  0  0
  9 10  1  0  0  0  0
  9 11  1  0  0  0  0
  9 29  1  0  0  0  0
 11 12  1  0  0  0  0
 11 13  1  0  0  0  0
 11 14  1  0  0  0  0
 14 15  1  0  0  0  0
 14 16  1  0  0  0  0
 14 17  1  0  0  0  0
 17 18  1  0  0  0  0
 17 19  1  0  0  0  0
 17 20  1  0  0  0  0
 20 21  1  0  0  0  0
 20 22  2  0  0  0  0
 22 23  1  0  0  0  0
 22 26  1  0  0  0  0
 23 24  1  0  0  0  0
 23 25  1  0  0  0  0
 26 27  1  0  0  0  0
 26 28  1  0  0  0  0
 29 30  2  0  0  0  0
 29 31  1  0  0  0  0
 31 32  1  0  0  0  0
 31 33  1  0  0  0  0
 33 34  1  0  0  0  0
 33 35  1  0  0  0  0
 33 36  1  0  0  0  0
M  CHG  1  20   1
M  END
$$$$

  -OEChem-02172215453D

 36 35  0     1  0  0  0  0  0999 V2000
   -3.6703   -2.2171    0.7805 H   0  0  0  0  0  0  0  0  0  0  0  0
   -3.7138   -1.1917    0.4023 C   0  0  0  0  0  0  0  0  0  0  0  0
   -4.6504   -0.7340    0.7288 H   0  0  0  0  0  0  0  0  0  0  0  0
   -3.6906   -1.2210   -0.6901 H   0  0  0  0  0  0  0  0  0  0  0  0
   -2.5340   -0.3937    0.9219 C   0  0  0  0  0  0  0  0  0  0  0  0
   -1.7435   -0.9197    1.6891 O   0  0  0  0  0  0  0  0  0  0  0  0
   -2.3779    0.9244    0.5268 N   0  0  0  0  0  0  0  0  0  0  0  0
   -2.9829    1.1856   -0.2489 H   0  0  0  0  0  0  0  0  0  0  0  0
   -1.0964    1.6566    0.6051 C   0  0  1  0  0  0  0  0  0  0  0  0
   -1.2386    2.6328    0.1309 H   0  0  0  0  0  0  0  0  0  0  0  0
   -0.6506    1.9213    2.0649 C   0  0  0  0  0  0  0  0  0  0  0  0
   -0.5764    0.9918    2.6346 H   0  0  0  0  0  0  0  0  0  0  0  0
    0.3464    2.3738    2.0545 H   0  0  0  0  0  0  0  0  0  0  0  0
   -1.6035    2.8955    2.7673 C   0  0  0  0  0  0  0  0  0  0  0  0
   -1.6329    3.8442    2.2202 H   0  0  0  0  0  0  0  0  0  0  0  0
   -2.6143    2.4728    2.7753 H   0  0  0  0  0  0  0  0  0  0  0  0
   -1.1344    3.1319    4.2016 C   0  0  0  0  0  0  0  0  0  0  0  0
   -1.0977    2.1700    4.7252 H   0  0  0  0  0  0  0  0  0  0  0  0
   -0.1250    3.5581    4.1846 H   0  0  0  0  0  0  0  0  0  0  0  0
   -2.0620    4.0500    4.8886 N   0  3  0  0  0  0  0  0  0  0  0  0
   -2.8426    4.4140    4.3438 H   0  0  0  0  0  0  0  0  0  0  0  0
   -1.9471    4.3892    6.1405 C   0  0  0  0  0  0  0  0  0  0  0  0
   -0.9303    3.9065    6.9327 N   0  0  0  0  0  0  0  0  0  0  0  0
   -0.3735    3.1343    6.5720 H   0  0  0  0  0  0  0  0  0  0  0  0
   -1.0092    4.0070    7.9428 H   0  0  0  0  0  0  0  0  0  0  0  0
   -2.8592    5.2551    6.6957 N   0  0  0  0  0  0  0  0  0  0  0  0
   -3.5001    5.7533    6.0810 H   0  0  0  0  0  0  0  0  0  0  0  0
   -2.6456    5.6716    7.6003 H   0  0  0  0  0  0  0  0  0  0  0  0
   -0.0239    0.9441   -0.2582 C   0  0  0  0  0  0  0  0  0  0  0  0
   -0.3123    0.6591   -1.4133 O   0  0  0  0  0  0  0  0  0  0  0  0
    1.2660    0.7157    0.1886 N   0  0  0  0  0  0  0  0  0  0  0  0
    1.4237    0.7951    1.1880 H   0  0  0  0  0  0  0  0  0  0  0  0
    2.2572    0.0022   -0.6110 C   0  0  0  0  0  0  0  0  0  0  0  0
    2.4136    0.5074   -1.5702 H   0  0  0  0  0  0  0  0  0  0  0  0
    3.2156   -0.0355   -0.0840 H   0  0  0  0  0  0  0  0  0  0  0  0
    1.9269   -1.0240   -0.8048 H   0  0  0  0  0  0  0  0  0  0  0  0
  1  2  1  0  0  0  0
  2  3  1  0  0  0  0
  2  4  1  0  0  0  0
  2  5  1  0  0  0  0
  5  6  2  0  0  0  0
  5  7  1  0  0  0  0
  7  8  1  0  0  0  0
  7  9  1  0  0  0  0
  9 10  1  0  0  0  0
  9 11  1  0  0  0  0
  9 29  1  0  0  0  0
 11 12  1  0  0  0  0
 11 13  1  0  0  0  0
 11 14  1  0  0  0  0
 14 15  1  0  0  0  0
 14 16  1  0  0  0  0
 14 17  1  0  0  0  0
 17 18  1  0  0  0  0
 17 19  1  0  0  0  0
 17 20  1  0  0  0  0
 20 21  1  0  0  0  0
 20 22  2  0  0  0  0
 22 23  1  0  0  0  0
 22 26  1  0  0  0  0
 23 24  1  0  0  0  0
 23 25  1  0  0  0  0
 26 27  1  0  0  0  0
 26 28  1  0  0  0  0
 29 30  2  0  0  0  0
 29 31  1  0  0  0  0
 31 32  1  0  0  0  0
 31 33  1  0  0  0  0
 33 34  1  0  0  0  0
 33 35  1  0  0  0  0
 33 36  1  0  0  0  0
M  CHG  1  20   1
M  END
$$$$

  -OEChem-02172215453D

 36 35  0     1  0  0  0  0  0999 V2000
   -3.7016   -2.2074    0.8141 H   0  0  0  0  0  0  0  0  0  0  0  0
   -3.7396   -1.1820    0.4346 C   0  0  0  0  0  0  0  0  0  0  0  0
   -4.6567   -0.7082    0.7920 H   0  0  0  0  0  0  0  0  0  0  0  0
   -3.7546   -1.2142   -0.6578 H   0  0  0  0  0  0  0  0  0  0  0  0
   -2.5299   -0.4017    0.9118 C   0  0  0  0  0  0  0  0  0  0  0  0
   -1.7176   -0.9392    1.6479 O   0  0  0  0  0  0  0  0  0  0  0  0
   -2.3674    0.9152    0.5159 N   0  0  0  0  0  0  0  0  0  0  0  0
   -2.9890    1.1979   -0.2390 H   0  0  0  0  0  0  0  0  0  0  0  0
   -1.0874    1.6472    0.6045 C   0  0  1  0  0  0  0  0  0  0  0  0
   -1.2262    2.6229    0.1281 H   0  0  0  0  0  0  0  0  0  0  0  0
   -0.6502    1.9162    2.0648 C   0  0  0  0  0  0  0  0  0  0  0  0
   -0.5839    0.9873    2.6373 H   0  0  0  0  0  0  0  0  0  0  0  0
    0.3498    2.3637    2.0552 H   0  0  0  0  0  0  0  0  0  0  0  0
   -1.6051    2.8927    2.7603 C   0  0  0  0  0  0  0  0  0  0  0  0
   -1.6313    3.8398    2.2108 H   0  0  0  0  0  0  0  0  0  0  0  0
   -2.6164    2.4715    2.7657 H   0  0  0  0  0  0  0  0  0  0  0  0
   -1.1395    3.1302    4.1951 C   0  0  0  0  0  0  0  0  0  0  0  0
   -1.1055    2.1691    4.7200 H   0  0  0  0  0  0  0  0  0  0  0  0
   -0.1294    3.5548    4.1794 H   0  0  0  0  0  0  0  0  0  0  0  0
   -2.0653    4.0501    4.8810 N   0  3  0  0  0  0  0  0  0  0  0  0
   -2.8439    4.4171    4.3353 H   0  0  0  0  0  0  0  0  0  0  0  0
   -1.9493    4.3883    6.1330 C   0  0  0  0  0  0  0  0  0  0  0  0
   -0.9339    3.9034    6.9254 N   0  0  0  0  0  0  0  0  0  0  0  0
   -0.3779    3.1305    6.5651 H   0  0  0  0  0  0  0  0  0  0  0  0
   -1.0107    4.0070    7.9353 H   0  0  0  0  0  0  0  0  0  0  0  0
   -2.8575    5.2575    6.6887 N   0  0  0  0  0  0  0  0  0  0  0  0
   -3.4931    5.7611    6.0731 H   0  0  0  0  0  0  0  0  0  0  0  0
   -2.6393    5.6754    7.5915 H   0  0  0  0  0  0  0  0  0  0  0  0
   -0.0040    0.9384   -0.2441 C   0  0  0  0  0  0  0  0  0  0  0  0
   -0.1767    0.8721   -1.4534 O   0  0  0  0  0  0  0  0  0  0  0  0
    1.1667    0.4463    0.3053 N   0  0  0  0  0  0  0  0  0  0  0  0
    1.1609    0.3025    1.3110 H   0  0  0  0  0  0  0  0  0  0  0  0
    2.1519   -0.2847   -0.4852 C   0  0  0  0  0  0  0  0  0  0  0  0
    2.5041    0.3269   -1.3229 H   0  0  0  0  0  0  0  0  0  0  0  0
    3.0158   -0.5474    0.1330 H   0  0  0  0  0  0  0  0  0  0  0  0
    1.7156   -1.2067   -0.8839 H   0  0  0  0  0  0  0  0  0  0  0  0
  1  2  1  0  0  0  0
  2  3  1  0  0  0  0
  2  4  1  0  0  0  0
  2  5  1  0  0  0  0
  5  6  2  0  0  0  0
  5  7  1  0  0  0  0
  7  8  1  0  0  0  0
  7  9  1  0  0  0  0
  9 10  1  0  0  0  0
  9 11  1  0  0  0  0
  9 29  1  0  0  0  0
 11 12  1  0  0  0  0
 11 13  1  0  0  0  0
 11 14  1  0  0  0  0
 14 15  1  0  0  0  0
 14 16  1  0  0  0  0
 14 17  1  0  0  0  0
 17 18  1  0  0  0  0
 17 19  1  0  0  0  0
 17 20  1  0  0  0  0
 20 21  1  0  0  0  0
 20 22  2  0  0  0  0
 22 23  1  0  0  0  0
 22 26  1  0  0  0  0
 23 24  1  0  0  0  0
 23 25  1  0  0  0  0
 26 27  1  0  0  0  0
 26 28  1  0  0  0  0
 29 30  2  0  0  0  0
 29 31  1  0  0  0  0
 31 32  1  0  0  0  0
 31 33  1  0  0  0  0
 33 34  1  0  0  0  0
 33 35  1  0  0  0  0
 33 36  1  0  0  0  0
M  CHG  1  20   1
M  END
$$$$

  -OEChem-02172215453D

 36 35  0     1  0  0  0  0  0999 V2000
   -3.7290   -2.2058    0.8335 H   0  0  0  0  0  0  0  0  0  0  0  0
   -3.7595   -1.1851    0.4412 C   0  0  0  0  0  0  0  0  0  0  0  0
   -4.6701   -0.6983    0.7977 H   0  0  0  0  0  0  0  0  0  0  0  0
   -3.7820   -1.2313   -0.6505 H   0  0  0  0  0  0  0  0  0  0  0  0
   -2.5386   -0.4125    0.9031 C   0  0  0  0  0  0  0  0  0  0  0  0
   -1.7142   -0.9573    1.6211 O   0  0  0  0  0  0  0  0  0  0  0  0
   -2.3693    0.9025    0.5041 N   0  0  0  0  0  0  0  0  0  0  0  0
   -3.0032    1.2018   -0.2337 H   0  0  0  0  0  0  0  0  0  0  0  0
   -1.0904    1.6337    0.6030 C   0  0  1  0  0  0  0  0  0  0  0  0
   -1.2280    2.6083    0.1232 H   0  0  0  0  0  0  0  0  0  0  0  0
   -0.6585    1.9106    2.0622 C   0  0  0  0  0  0  0  0  0  0  0  0
   -0.6006    0.9837    2.6387 H   0  0  0  0  0  0  0  0  0  0  0  0
    0.3461    2.3483    2.0519 H   0  0  0  0  0  0  0  0  0  0  0  0
   -1.6113    2.8925    2.7541 C   0  0  0  0  0  0  0  0  0  0  0  0
   -1.6335    3.8391    2.2031 H   0  0  0  0  0  0  0  0  0  0  0  0
   -2.6247    2.4763    2.7608 H   0  0  0  0  0  0  0  0  0  0  0  0
   -1.1410    3.1305    4.1874 C   0  0  0  0  0  0  0  0  0  0  0  0
   -1.1092    2.1697    4.7134 H   0  0  0  0  0  0  0  0  0  0  0  0
   -0.1285    3.5495    4.1683 H   0  0  0  0  0  0  0  0  0  0  0  0
   -2.0598    4.0550    4.8766 N   0  3  0  0  0  0  0  0  0  0  0  0
   -2.8347    4.4319    4.3325 H   0  0  0  0  0  0  0  0  0  0  0  0
   -1.9359    4.3925    6.1280 C   0  0  0  0  0  0  0  0  0  0  0  0
   -0.9181    3.9014    6.9140 N   0  0  0  0  0  0  0  0  0  0  0  0
   -0.3534    3.1401    6.5426 H   0  0  0  0  0  0  0  0  0  0  0  0
   -0.9898    3.9964    7.9251 H   0  0  0  0  0  0  0  0  0  0  0  0
   -2.8411    5.2614    6.6896 N   0  0  0  0  0  0  0  0  0  0  0  0
   -3.4831    5.7641    6.0798 H   0  0  0  0  0  0  0  0  0  0  0  0
   -2.6216    5.6737    7.5946 H   0  0  0  0  0  0  0  0  0  0  0  0
    0.0059    0.9276   -0.2277 C   0  0  0  0  0  0  0  0  0  0  0  0
   -0.0023    1.0776   -1.4412 O   0  0  0  0  0  0  0  0  0  0  0  0
    1.0077    0.1833    0.3682 N   0  0  0  0  0  0  0  0  0  0  0  0
    0.8001   -0.1479    1.3079 H   0  0  0  0  0  0  0  0  0  0  0  0
    1.9893   -0.5621   -0.4126 C   0  0  0  0  0  0  0  0  0  0  0  0
    2.5373    0.1091   -1.0826 H   0  0  0  0  0  0  0  0  0  0  0  0
    2.7114   -1.0484    0.2506 H   0  0  0  0  0  0  0  0  0  0  0  0
    1.4959   -1.3325   -1.0146 H   0  0  0  0  0  0  0  0  0  0  0  0
  1  2  1  0  0  0  0
  2  3  1  0  0  0  0
  2  4  1  0  0  0  0
  2  5  1  0  0  0  0
  5  6  2  0  0  0  0
  5  7  1  0  0  0  0
  7  8  1  0  0  0  0
  7  9  1  0  0  0  0
  9 10  1  0  0  0  0
  9 11  1  0  0  0  0
  9 29  1  0  0  0  0
 11 12  1  0  0  0  0
 11 13  1  0  0  0  0
 11 14  1  0  0  0  0
 14 15  1  0  0  0  0
 14 16  1  0  0  0  0
 14 17  1  0  0  0  0
 17 18  1  0  0  0  0
 17 19  1  0  0  0  0
 17 20  1  0  0  0  0
 20 21  1  0  0  0  0
 20 22  2  0  0  0  0
 22 23  1  0  0  0  0
 22 26  1  0  0  0  0
 23 24  1  0  0  0  0
 23 25  1  0  0  0  0
 26 27  1  0  0  0  0
 26 28  1  0  0  0  0
 29 30  2  0  0  0  0
 29 31  1  0  0  0  0
 31 32  1  0  0  0  0
 31 33  1  0  0  0  0
 33 34  1  0  0  0  0
 33 35  1  0  0  0  0
 33 36  1  0  0  0  0
M  CHG  1  20   1
M  END
$$$$

  -OEChem-02172215453D

 36 35  0     1  0  0  0  0  0999 V2000
   -3.7953   -2.1861    0.8757 H   0  0  0  0  0  0  0  0  0  0  0  0
   -3.8123   -1.1687    0.4743 C   0  0  0  0  0  0  0  0  0  0  0  0
   -4.7032   -0.6585    0.8472 H   0  0  0  0  0  0  0  0  0  0  0  0
   -3.8613   -1.2241   -0.6160 H   0  0  0  0  0  0  0  0  0  0  0  0
   -2.5652   -0.4183    0.9006 C   0  0  0  0  0  0  0  0  0  0  0  0
   -1.7393   -0.9717    1.6110 O   0  0  0  0  0  0  0  0  0  0  0  0
   -2.3773    0.8888    0.4838 N   0  0  0  0  0  0  0  0  0  0  0  0
   -3.0300    1.2069   -0.2297 H   0  0  0  0  0  0  0  0  0  0  0  0
   -1.0987    1.6222    0.5818 C   0  0  1  0  0  0  0  0  0  0  0  0
   -1.2369    2.5937    0.0949 H   0  0  0  0  0  0  0  0  0  0  0  0
   -0.6671    1.9026    2.0395 C   0  0  0  0  0  0  0  0  0  0  0  0
   -0.6064    0.9762    2.6167 H   0  0  0  0  0  0  0  0  0  0  0  0
    0.3376    2.3397    2.0261 H   0  0  0  0  0  0  0  0  0  0  0  0
   -1.6169    2.8834    2.7344 C   0  0  0  0  0  0  0  0  0  0  0  0
   -1.6402    3.8303    2.1845 H   0  0  0  0  0  0  0  0  0  0  0  0
   -2.6303    2.4677    2.7447 H   0  0  0  0  0  0  0  0  0  0  0  0
   -1.1383    3.1185    4.1656 C   0  0  0  0  0  0  0  0  0  0  0  0
   -1.1026    2.1564    4.6890 H   0  0  0  0  0  0  0  0  0  0  0  0
   -0.1260    3.5378    4.1409 H   0  0  0  0  0  0  0  0  0  0  0  0
   -2.0520    4.0419    4.8628 N   0  3  0  0  0  0  0  0  0  0  0  0
   -2.8312    4.4192    4.3252 H   0  0  0  0  0  0  0  0  0  0  0  0
   -1.9194    4.3760    6.1142 C   0  0  0  0  0  0  0  0  0  0  0  0
   -0.8966    3.8825    6.8925 N   0  0  0  0  0  0  0  0  0  0  0  0
   -0.3296    3.1259    6.5145 H   0  0  0  0  0  0  0  0  0  0  0  0
   -0.9598    3.9763    7.9042 H   0  0  0  0  0  0  0  0  0  0  0  0
   -2.8215    5.2425    6.6845 N   0  0  0  0  0  0  0  0  0  0  0  0
   -3.4682    5.7462    6.0803 H   0  0  0  0  0  0  0  0  0  0  0  0
   -2.5976    5.6510    7.5902 H   0  0  0  0  0  0  0  0  0  0  0  0
    0.0168    0.9143   -0.2206 C   0  0  0  0  0  0  0  0  0  0  0  0
    0.2124    1.2546   -1.3784 O   0  0  0  0  0  0  0  0  0  0  0  0
    0.8197   -0.0466    0.3654 N   0  0  0  0  0  0  0  0  0  0  0  0
    0.4226   -0.4844    1.1975 H   0  0  0  0  0  0  0  0  0  0  0  0
    1.8128   -0.8000   -0.3920 C   0  0  0  0  0  0  0  0  0  0  0  0
    2.5429   -0.1233   -0.8485 H   0  0  0  0  0  0  0  0  0  0  0  0
    2.3496   -1.4882    0.2680 H   0  0  0  0  0  0  0  0  0  0  0  0
    1.3308   -1.3823   -1.1843 H   0  0  0  0  0  0  0  0  0  0  0  0
  1  2  1  0  0  0  0
  2  3  1  0  0  0  0
  2  4  1  0  0  0  0
  2  5  1  0  0  0  0
  5  6  2  0  0  0  0
  5  7  1  0  0  0  0
  7  8  1  0  0  0  0
  7  9  1  0  0  0  0
  9 10  1  0  0  0  0
  9 11  1  0  0  0  0
  9 29  1  0  0  0  0
 11 12  1  0  0  0  0
 11 13  1  0  0  0  0
 11 14  1  0  0  0  0
 14 15  1  0  0  0  0
 14 16  1  0  0  0  0
 14 17  1  0  0  0  0
 17 18  1  0  0  0  0
 17 19  1  0  0  0  0
 17 20  1  0  0  0  0
 20 21  1  0  0  0  0
 20 22  2  0  0  0  0
 22 23  1  0  0  0  0
 22 26  1  0  0  0  0
 23 24  1  0  0  0  0
 23 25  1  0  0  0  0
 26 27  1  0  0  0  0
 26 28  1  0  0  0  0
 29 30  2  0  0  0  0
 29 31  1  0  0  0  0
 31 32  1  0  0  0  0
 31 33  1  0  0  0  0
 33 34  1  0  0  0  0
 33 35  1  0  0  0  0
 33 36  1  0  0  0  0
M  CHG  1  20   1
M  END
$$$$

  -OEChem-02172215453D

 36 35  0     1  0  0  0  0  0999 V2000
   -3.8928   -2.1620    0.9115 H   0  0  0  0  0  0  0  0  0  0  0  0
   -3.8896   -1.1465    0.5051 C   0  0  0  0  0  0  0  0  0  0  0  0
   -4.7637   -0.6129    0.8854 H   0  0  0  0  0  0  0  0  0  0  0  0
   -3.9527   -1.2064   -0.5843 H   0  0  0  0  0  0  0  0  0  0  0  0
   -2.6195   -0.4250    0.9128 C   0  0  0  0  0  0  0  0  0  0  0  0
   -1.8077   -0.9929    1.6271 O   0  0  0  0  0  0  0  0  0  0  0  0
   -2.3993    0.8709    0.4777 N   0  0  0  0  0  0  0  0  0  0  0  0
   -3.0651    1.2065   -0.2151 H   0  0  0  0  0  0  0  0  0  0  0  0
   -1.1155    1.6002    0.5626 C   0  0  1  0  0  0  0  0  0  0  0  0
   -1.2557    2.5687    0.0704 H   0  0  0  0  0  0  0  0  0  0  0  0
   -0.6829    1.8818    2.0189 C   0  0  0  0  0  0  0  0  0  0  0  0
   -0.6246    0.9544    2.5954 H   0  0  0  0  0  0  0  0  0  0  0  0
    0.3245    2.3132    2.0043 H   0  0  0  0  0  0  0  0  0  0  0  0
   -1.6257    2.8679    2.7159 C   0  0  0  0  0  0  0  0  0  0  0  0
   -1.6445    3.8151    2.1660 H   0  0  0  0  0  0  0  0  0  0  0  0
   -2.6414    2.4584    2.7301 H   0  0  0  0  0  0  0  0  0  0  0  0
   -1.1399    3.0984    4.1449 C   0  0  0  0  0  0  0  0  0  0  0  0
   -1.1096    2.1355    4.6673 H   0  0  0  0  0  0  0  0  0  0  0  0
   -0.1245    3.5101    4.1164 H   0  0  0  0  0  0  0  0  0  0  0  0
   -2.0438    4.0268    4.8475 N   0  3  0  0  0  0  0  0  0  0  0  0
   -2.8219    4.4113    4.3135 H   0  0  0  0  0  0  0  0  0  0  0  0
   -1.9024    4.3576    6.0987 C   0  0  0  0  0  0  0  0  0  0  0  0
   -0.8793    3.8555    6.8708 N   0  0  0  0  0  0  0  0  0  0  0  0
   -0.3241    3.0918    6.4894 H   0  0  0  0  0  0  0  0  0  0  0  0
   -0.9403    3.9446    7.8831 H   0  0  0  0  0  0  0  0  0  0  0  0
   -2.7913    5.2346    6.6727 N   0  0  0  0  0  0  0  0  0  0  0  0
   -3.4330    5.7457    6.0697 H   0  0  0  0  0  0  0  0  0  0  0  0
   -2.5516    5.6480    7.5720 H   0  0  0  0  0  0  0  0  0  0  0  0
    0.0225    0.8991   -0.2143 C   0  0  0  0  0  0  0  0  0  0  0  0
    0.4174    1.3985   -1.2577 O   0  0  0  0  0  0  0  0  0  0  0  0
    0.6298   -0.2406    0.2774 N   0  0  0  0  0  0  0  0  0  0  0  0
    0.1177   -0.7240    1.0188 H   0  0  0  0  0  0  0  0  0  0  0  0
    1.6436   -0.9821   -0.4638 C   0  0  0  0  0  0  0  0  0  0  0  0
    2.5023   -0.3406   -0.6881 H   0  0  0  0  0  0  0  0  0  0  0  0
    1.9966   -1.8334    0.1265 H   0  0  0  0  0  0  0  0  0  0  0  0
    1.2323   -1.3590   -1.4060 H   0  0  0  0  0  0  0  0  0  0  0  0
  1  2  1  0  0  0  0
  2  3  1  0  0  0  0
  2  4  1  0  0  0  0
  2  5  1  0  0  0  0
  5  6  2  0  0  0  0
  5  7  1  0  0  0  0
  7  8  1  0  0  0  0
  7  9  1  0  0  0  0
  9 10  1  0  0  0  0
  9 11  1  0  0  0  0
  9 29  1  0  0  0  0
 11 12  1  0  0  0  0
 11 13  1  0  0  0  0
 11 14  1  0  0  0  0
 14 15  1  0  0  0  0
 14 16  1  0  0  0  0
 14 17  1  0  0  0  0
 17 18  1  0  0  0  0
 17 19  1  0  0  0  0
 17 20  1  0  0  0  0
 20 21  1  0  0  0  0
 20 22  2  0  0  0  0
 22 23  1  0  0  0  0
 22 26  1  0  0  0  0
 23 24  1  0  0  0  0
 23 25  1  0  0  0  0
 26 27  1  0  0  0  0
 26 28  1  0  0  0  0
 29 30  2  0  0  0  0
 29 31  1  0  0  0  0
 31 32  1  0  0  0  0
 31 33  1  0  0  0  0
 33 34  1  0  0  0  0
 33 35  1  0  0  0  0
 33 36  1  0  0  0  0
M  CHG  1  20   1
M  END
$$$$

  -OEChem-02172215453D

 36 35  0     1  0  0  0  0  0999 V2000
   -4.0163   -2.1294    0.9521 H   0  0  0  0  0  0  0  0  0  0  0  0
   -3.9841   -1.1186    0.5350 C   0  0  0  0  0  0  0  0  0  0  0  0
   -4.8353   -0.5525    0.9205 H   0  0  0  0  0  0  0  0  0  0  0  0
   -4.0626   -1.1871   -0.5529 H   0  0  0  0  0  0  0  0  0  0  0  0
   -2.6857   -0.4357    0.9199 C   0  0  0  0  0  0  0  0  0  0  0  0
   -1.8852   -1.0242    1.6293 O   0  0  0  0  0  0  0  0  0  0  0  0
   -2.4336    0.8504    0.4736 N   0  0  0  0  0  0  0  0  0  0  0  0
   -3.1107    1.2064   -0.1977 H   0  0  0  0  0  0  0  0  0  0  0  0
   -1.1414    1.5704    0.5462 C   0  0  1  0  0  0  0  0  0  0  0  0
   -1.2811    2.5374    0.0510 H   0  0  0  0  0  0  0  0  0  0  0  0
   -0.7053    1.8532    1.9998 C   0  0  0  0  0  0  0  0  0  0  0  0
   -0.6530    0.9248    2.5755 H   0  0  0  0  0  0  0  0  0  0  0  0
    0.3054    2.2766    1.9833 H   0  0  0  0  0  0  0  0  0  0  0  0
   -1.6374    2.8496    2.6968 C   0  0  0  0  0  0  0  0  0  0  0  0
   -1.6472    3.7957    2.1447 H   0  0  0  0  0  0  0  0  0  0  0  0
   -2.6571    2.4498    2.7142 H   0  0  0  0  0  0  0  0  0  0  0  0
   -1.1449    3.0786    4.1239 C   0  0  0  0  0  0  0  0  0  0  0  0
   -1.1206    2.1162    4.6472 H   0  0  0  0  0  0  0  0  0  0  0  0
   -0.1260    3.4810    4.0904 H   0  0  0  0  0  0  0  0  0  0  0  0
   -2.0355    4.0167    4.8313 N   0  3  0  0  0  0  0  0  0  0  0  0
   -2.8097    4.4130    4.3005 H   0  0  0  0  0  0  0  0  0  0  0  0
   -1.8826    4.3458    6.0820 C   0  0  0  0  0  0  0  0  0  0  0  0
   -0.8596    3.8321    6.8464 N   0  0  0  0  0  0  0  0  0  0  0  0
   -0.3195    3.0590    6.4624 H   0  0  0  0  0  0  0  0  0  0  0  0
   -0.9069    3.9281    7.8589 H   0  0  0  0  0  0  0  0  0  0  0  0
   -2.7571    5.2324    6.6642 N   0  0  0  0  0  0  0  0  0  0  0  0
   -3.3971    5.7529    6.0674 H   0  0  0  0  0  0  0  0  0  0  0  0
   -2.5080    5.6388    7.5644 H   0  0  0  0  0  0  0  0  0  0  0  0
    0.0150    0.8782   -0.2134 C   0  0  0  0  0  0  0  0  0  0  0  0
    0.5957    1.5044   -1.0879 O   0  0  0  0  0  0  0  0  0  0  0  0
    0.4387   -0.3973    0.1052 N   0  0  0  0  0  0  0  0  0  0  0  0
   -0.1266   -0.9089    0.7871 H   0  0  0  0  0  0  0  0  0  0  0  0
    1.4928   -1.1021   -0.6149 C   0  0  0  0  0  0  0  0  0  0  0  0
    2.4303   -0.5378   -0.5716 H   0  0  0  0  0  0  0  0  0  0  0  0
    1.6628   -2.0869   -0.1686 H   0  0  0  0  0  0  0  0  0  0  0  0
    1.2137   -1.2406   -1.6648 H   0  0  0  0  0  0  0  0  0  0  0  0
  1  2  1  0  0  0  0
  2  3  1  0  0  0  0
  2  4  1  0  0  0  0
  2  5  1  0  0  0  0
  5  6  2  0  0  0  0
  5  7  1  0  0  0  0
  7  8  1  0  0  0  0
  7  9  1  0  0  0  0
  9 10  1  0  0  0  0
  9 11  1  0  0  0  0
  9 29  1  0  0  0  0
 11 12  1  0  0  0  0
 11 13  1  0  0  0  0
 11 14  1  0  0  0  0
 14 15  1  0  0  0  0
 14 16  1  0  0  0  0
 14 17  1  0  0  0  0
 17 18  1  0  0  0  0
 17 19  1  0  0  0  0
 17 20  1  0  0  0  0
 20 21  1  0  0  0  0
 20 22  2  0  0  0  0
 22 23  1  0  0  0  0
 22 26  1  0  0  0  0
 23 24  1  0  0  0  0
 23 25  1  0  0  0  0
 26 27  1  0  0  0  0
 26 28  1  0  0  0  0
 29 30  2  0  0  0  0
 29 31  1  0  0  0  0
 31 32  1  0  0  0  0
 31 33  1  0  0  0  0
 33 34  1  0  0  0  0
 33 35  1  0  0  0  0
 33 36  1  0  0  0  0
M  CHG  1  20   1
M  END
$$$$

  -OEChem-02172215453D

 36 35  0     1  0  0  0  0  0999 V2000
   -4.1159   -2.0997    0.9937 H   0  0  0  0  0  0  0  0  0  0  0  0
   -4.0672   -1.0961    0.5612 C   0  0  0  0  0  0  0  0  0  0  0  0
   -4.9014   -0.5061    0.9477 H   0  0  0  0  0  0  0  0  0  0  0  0
   -4.1603   -1.1794   -0.5246 H   0  0  0  0  0  0  0  0  0  0  0  0
   -2.7502   -0.4354    0.9212 C   0  0  0  0  0  0  0  0  0  0  0  0
   -1.9456   -1.0380    1.6131 O   0  0  0  0  0  0  0  0  0  0  0  0
   -2.4807    0.8423    0.4617 N   0  0  0  0  0  0  0  0  0  0  0  0
   -3.1704    1.2119   -0.1886 H   0  0  0  0  0  0  0  0  0  0  0  0
   -1.1831    1.5572    0.5169 C   0  0  1  0  0  0  0  0  0  0  0  0
   -1.3242    2.5225    0.0186 H   0  0  0  0  0  0  0  0  0  0  0  0
   -0.7357    1.8389    1.9668 C   0  0  0  0  0  0  0  0  0  0  0  0
   -0.6832    0.9092    2.5406 H   0  0  0  0  0  0  0  0  0  0  0  0
    0.2772    2.2570    1.9434 H   0  0  0  0  0  0  0  0  0  0  0  0
   -1.6554    2.8392    2.6742 C   0  0  0  0  0  0  0  0  0  0  0  0
   -1.6665    3.7867    2.1243 H   0  0  0  0  0  0  0  0  0  0  0  0
   -2.6767    2.4448    2.7031 H   0  0  0  0  0  0  0  0  0  0  0  0
   -1.1447    3.0610    4.0962 C   0  0  0  0  0  0  0  0  0  0  0  0
   -1.1205    2.0970    4.6165 H   0  0  0  0  0  0  0  0  0  0  0  0
   -0.1236    3.4568    4.0512 H   0  0  0  0  0  0  0  0  0  0  0  0
   -2.0209    4.0023    4.8167 N   0  3  0  0  0  0  0  0  0  0  0  0
   -2.8001    4.4036    4.2971 H   0  0  0  0  0  0  0  0  0  0  0  0
   -1.8512    4.3266    6.0662 C   0  0  0  0  0  0  0  0  0  0  0  0
   -0.8227    3.8046    6.8174 N   0  0  0  0  0  0  0  0  0  0  0  0
   -0.2854    3.0360    6.4209 H   0  0  0  0  0  0  0  0  0  0  0  0
   -0.8638    3.8883    7.8311 H   0  0  0  0  0  0  0  0  0  0  0  0
   -2.7153    5.2144    6.6612 N   0  0  0  0  0  0  0  0  0  0  0  0
   -3.3569    5.7415    6.0722 H   0  0  0  0  0  0  0  0  0  0  0  0
   -2.4521    5.6179    7.5585 H   0  0  0  0  0  0  0  0  0  0  0  0
   -0.0181    0.8688   -0.2356 C   0  0  0  0  0  0  0  0  0  0  0  0
    0.7231    1.5651   -0.9144 O   0  0  0  0  0  0  0  0  0  0  0  0
    0.2328   -0.4858   -0.1330 N   0  0  0  0  0  0  0  0  0  0  0  0
   -0.3537   -1.0132    0.5180 H   0  0  0  0  0  0  0  0  0  0  0  0
    1.3492   -1.1574   -0.7883 C   0  0  0  0  0  0  0  0  0  0  0  0
    2.3031   -0.7534   -0.4331 H   0  0  0  0  0  0  0  0  0  0  0  0
    1.3252   -2.2299   -0.5715 H   0  0  0  0  0  0  0  0  0  0  0  0
    1.2931   -1.0244   -1.8740 H   0  0  0  0  0  0  0  0  0  0  0  0
  1  2  1  0  0  0  0
  2  3  1  0  0  0  0
  2  4  1  0  0  0  0
  2  5  1  0  0  0  0
  5  6  2  0  0  0  0
  5  7  1  0  0  0  0
  7  8  1  0  0  0  0
  7  9  1  0  0  0  0
  9 10  1  0  0  0  0
  9 11  1  0  0  0  0
  9 29  1  0  0  0  0
 11 12  1  0  0  0  0
 11 13  1  0  0  0  0
 11 14  1  0  0  0  0
 14 15  1  0  0  0  0
 14 16  1  0  0  0  0
 14 17  1  0  0  0  0
 17 18  1  0  0  0  0
 17 19  1  0  0  0  0
 17 20  1  0  0  0  0
 20 21  1  0  0  0  0
 20 22  2  0  0  0  0
 22 23  1  0  0  0  0
 22 26  1  0  0  0  0
 23 24  1  0  0  0  0
 23 25  1  0  0  0  0
 26 27  1  0  0  0  0
 26 28  1  0  0  0  0
 29 30  2  0  0  0  0
 29 31  1  0  0  0  0
 31 32  1  0  0  0  0
 31 33  1  0  0  0  0
 33 34  1  0  0  0  0
 33 35  1  0  0  0  0
 33 36  1  0  0  0  0
M  CHG  1  20   1
M  END
$$$$

  -OEChem-02172215453D

 36 35  0     1  0  0  0  0  0999 V2000
   -4.1900   -2.0489    1.0406 H   0  0  0  0  0  0  0  0  0  0  0  0
   -4.1343   -1.0430    0.6146 C   0  0  0  0  0  0  0  0  0  0  0  0
   -4.9328   -0.4350    1.0459 H   0  0  0  0  0  0  0  0  0  0  0  0
   -4.2814   -1.1124   -0.4661 H   0  0  0  0  0  0  0  0  0  0  0  0
   -2.7834   -0.4224    0.9154 C   0  0  0  0  0  0  0  0  0  0  0  0
   -1.9594   -1.0556    1.5541 O   0  0  0  0  0  0  0  0  0  0  0  0
   -2.4972    0.8481    0.4475 N   0  0  0  0  0  0  0  0  0  0  0  0
   -3.2062    1.2473   -0.1634 H   0  0  0  0  0  0  0  0  0  0  0  0
   -1.1912    1.5498    0.4909 C   0  0  1  0  0  0  0  0  0  0  0  0
   -1.3246    2.5136   -0.0118 H   0  0  0  0  0  0  0  0  0  0  0  0
   -0.7423    1.8287    1.9420 C   0  0  0  0  0  0  0  0  0  0  0  0
   -0.6998    0.8969    2.5139 H   0  0  0  0  0  0  0  0  0  0  0  0
    0.2747    2.2373    1.9219 H   0  0  0  0  0  0  0  0  0  0  0  0
   -1.6505    2.8391    2.6502 C   0  0  0  0  0  0  0  0  0  0  0  0
   -1.6509    3.7863    2.1002 H   0  0  0  0  0  0  0  0  0  0  0  0
   -2.6761    2.4563    2.6794 H   0  0  0  0  0  0  0  0  0  0  0  0
   -1.1370    3.0556    4.0721 C   0  0  0  0  0  0  0  0  0  0  0  0
   -1.1215    2.0920    4.5935 H   0  0  0  0  0  0  0  0  0  0  0  0
   -0.1123    3.4417    4.0267 H   0  0  0  0  0  0  0  0  0  0  0  0
   -2.0025    4.0066    4.7929 N   0  3  0  0  0  0  0  0  0  0  0  0
   -2.7545    4.4453    4.2638 H   0  0  0  0  0  0  0  0  0  0  0  0
   -1.8285    4.3289    6.0426 C   0  0  0  0  0  0  0  0  0  0  0  0
   -0.8043    3.7937    6.7912 N   0  0  0  0  0  0  0  0  0  0  0  0
   -0.2190    3.0657    6.3860 H   0  0  0  0  0  0  0  0  0  0  0  0
   -0.7312    3.9977    7.7857 H   0  0  0  0  0  0  0  0  0  0  0  0
   -2.6777    5.2347    6.6339 N   0  0  0  0  0  0  0  0  0  0  0  0
   -3.4980    5.5672    6.1309 H   0  0  0  0  0  0  0  0  0  0  0  0
   -2.5950    5.4317    7.6296 H   0  0  0  0  0  0  0  0  0  0  0  0
   -0.0254    0.8564   -0.2581 C   0  0  0  0  0  0  0  0  0  0  0  0
    0.8480    1.5647   -0.7391 O   0  0  0  0  0  0  0  0  0  0  0  0
    0.0609   -0.5150   -0.4037 N   0  0  0  0  0  0  0  0  0  0  0  0
   -0.5653   -1.0671    0.1856 H   0  0  0  0  0  0  0  0  0  0  0  0
    1.1911   -1.1829   -1.0390 C   0  0  0  0  0  0  0  0  0  0  0  0
    2.1135   -0.9947   -0.4795 H   0  0  0  0  0  0  0  0  0  0  0  0
    1.0213   -2.2635   -1.0749 H   0  0  0  0  0  0  0  0  0  0  0  0
    1.3221   -0.8219   -2.0648 H   0  0  0  0  0  0  0  0  0  0  0  0
  1  2  1  0  0  0  0
  2  3  1  0  0  0  0
  2  4  1  0  0  0  0
  2  5  1  0  0  0  0
  5  6  2  0  0  0  0
  5  7  1  0  0  0  0
  7  8  1  0  0  0  0
  7  9  1  0  0  0  0
  9 10  1  0  0  0  0
  9 11  1  0  0  0  0
  9 29  1  0  0  0  0
 11 12  1  0  0  0  0
 11 13  1  0  0  0  0
 11 14  1  0  0  0  0
 14 15  1  0  0  0  0
 14 16  1  0  0  0  0
 14 17  1  0  0  0  0
 17 18  1  0  0  0  0
 17 19  1  0  0  0  0
 17 20  1  0  0  0  0
 20 21  1  0  0  0  0
 20 22  2  0  0  0  0
 22 23  1  0  0  0  0
 22 26  1  0  0  0  0
 23 24  1  0  0  0  0
 23 25  1  0  0  0  0
 26 27  1  0  0  0  0
 26 28  1  0  0  0  0
 29 30  2  0  0  0  0
 29 31  1  0  0  0  0
 31 32  1  0  0  0  0
 31 33  1  0  0  0  0
 33 34  1  0  0  0  0
 33 35  1  0  0  0  0
 33 36  1  0  0  0  0
M  CHG  1  20   1
M  END
$$$$

  -OEChem-02172215453D

 36 35  0     1  0  0  0  0  0999 V2000
   -4.2280   -2.0112    1.0623 H   0  0  0  0  0  0  0  0  0  0  0  0
   -4.1686   -1.0065    0.6337 C   0  0  0  0  0  0  0  0  0  0  0  0
   -4.9389   -0.3832    1.0934 H   0  0  0  0  0  0  0  0  0  0  0  0
   -4.3562   -1.0737   -0.4409 H   0  0  0  0  0  0  0  0  0  0  0  0
   -2.7969   -0.4108    0.8861 C   0  0  0  0  0  0  0  0  0  0  0  0
   -1.9493   -1.0720    1.4608 O   0  0  0  0  0  0  0  0  0  0  0  0
   -2.5042    0.8575    0.4175 N   0  0  0  0  0  0  0  0  0  0  0  0
   -3.2292    1.2858   -0.1532 H   0  0  0  0  0  0  0  0  0  0  0  0
   -1.1958    1.5546    0.4710 C   0  0  1  0  0  0  0  0  0  0  0  0
   -1.3182    2.5180   -0.0347 H   0  0  0  0  0  0  0  0  0  0  0  0
   -0.7667    1.8306    1.9298 C   0  0  0  0  0  0  0  0  0  0  0  0
   -0.7405    0.8960    2.4982 H   0  0  0  0  0  0  0  0  0  0  0  0
    0.2532    2.2320    1.9284 H   0  0  0  0  0  0  0  0  0  0  0  0
   -1.6750    2.8430    2.6347 C   0  0  0  0  0  0  0  0  0  0  0  0
   -1.6632    3.7946    2.0922 H   0  0  0  0  0  0  0  0  0  0  0  0
   -2.7040    2.4691    2.6553 H   0  0  0  0  0  0  0  0  0  0  0  0
   -1.1630    3.0406    4.0604 C   0  0  0  0  0  0  0  0  0  0  0  0
   -1.1581    2.0710    4.5715 H   0  0  0  0  0  0  0  0  0  0  0  0
   -0.1340    3.4153    4.0185 H   0  0  0  0  0  0  0  0  0  0  0  0
   -2.0165    3.9913    4.7957 N   0  3  0  0  0  0  0  0  0  0  0  0
   -2.7658    4.4454    4.2753 H   0  0  0  0  0  0  0  0  0  0  0  0
   -1.8332    4.2923    6.0493 C   0  0  0  0  0  0  0  0  0  0  0  0
   -0.8127    3.7351    6.7863 N   0  0  0  0  0  0  0  0  0  0  0  0
   -0.1034    3.2002    6.2887 H   0  0  0  0  0  0  0  0  0  0  0  0
   -0.5533    4.1689    7.6700 H   0  0  0  0  0  0  0  0  0  0  0  0
   -2.6708    5.1926    6.6630 N   0  0  0  0  0  0  0  0  0  0  0  0
   -3.5275    5.4688    6.1876 H   0  0  0  0  0  0  0  0  0  0  0  0
   -2.6422    5.2680    7.6783 H   0  0  0  0  0  0  0  0  0  0  0  0
   -0.0215    0.8587   -0.2641 C   0  0  0  0  0  0  0  0  0  0  0  0
    0.9607    1.5330   -0.5440 O   0  0  0  0  0  0  0  0  0  0  0  0
   -0.0730   -0.4615   -0.6701 N   0  0  0  0  0  0  0  0  0  0  0  0
   -0.7635   -1.0351   -0.1852 H   0  0  0  0  0  0  0  0  0  0  0  0
    1.0566   -1.1370   -1.2988 C   0  0  0  0  0  0  0  0  0  0  0  0
    1.9103   -1.1764   -0.6140 H   0  0  0  0  0  0  0  0  0  0  0  0
    0.7816   -2.1607   -1.5709 H   0  0  0  0  0  0  0  0  0  0  0  0
    1.3605   -0.6099   -2.2095 H   0  0  0  0  0  0  0  0  0  0  0  0
  1  2  1  0  0  0  0
  2  3  1  0  0  0  0
  2  4  1  0  0  0  0
  2  5  1  0  0  0  0
  5  6  2  0  0  0  0
  5  7  1  0  0  0  0
  7  8  1  0  0  0  0
  7  9  1  0  0  0  0
  9 10  1  0  0  0  0
  9 11  1  0  0  0  0
  9 29  1  0  0  0  0
 11 12  1  0  0  0  0
 11 13  1  0  0  0  0
 11 14  1  0  0  0  0
 14 15  1  0  0  0  0
 14 16  1  0  0  0  0
 14 17  1  0  0  0  0
 17 18  1  0  0  0  0
 17 19  1  0  0  0  0
 17 20  1  0  0  0  0
 20 21  1  0  0  0  0
 20 22  2  0  0  0  0
 22 23  1  0  0  0  0
 22 26  1  0  0  0  0
 23 24  1  0  0  0  0
 23 25  1  0  0  0  0
 26 27  1  0  0  0  0
 26 28  1  0  0  0  0
 29 30  2  0  0  0  0
 29 31  1  0  0  0  0
 31 32  1  0  0  0  0
 31 33  1  0  0  0  0
 33 34  1  0  0  0  0
 33 35  1  0  0  0  0
 33 36  1  0  0  0  0
M  CHG  1  20   1
M  END
$$$$

  -OEChem-02172215453D

 36 35  0     1  0  0  0  0  0999 V2000
   -4.2093   -1.9912    1.1159 H   0  0  0  0  0  0  0  0  0  0  0  0
   -4.1602   -0.9821    0.6962 C   0  0  0  0  0  0  0  0  0  0  0  0
   -4.8949   -0.3543    1.2055 H   0  0  0  0  0  0  0  0  0  0  0  0
   -4.4082   -1.0320   -0.3671 H   0  0  0  0  0  0  0  0  0  0  0  0
   -2.7683   -0.4081    0.8792 C   0  0  0  0  0  0  0  0  0  0  0  0
   -1.8962   -1.0888    1.3886 O   0  0  0  0  0  0  0  0  0  0  0  0
   -2.4829    0.8621    0.4127 N   0  0  0  0  0  0  0  0  0  0  0  0
   -3.2299    1.3169   -0.1067 H   0  0  0  0  0  0  0  0  0  0  0  0
   -1.1741    1.5571    0.4657 C   0  0  1  0  0  0  0  0  0  0  0  0
   -1.2928    2.5210   -0.0393 H   0  0  0  0  0  0  0  0  0  0  0  0
   -0.7563    1.8297    1.9301 C   0  0  0  0  0  0  0  0  0  0  0  0
   -0.7353    0.8927    2.4950 H   0  0  0  0  0  0  0  0  0  0  0  0
    0.2633    2.2310    1.9418 H   0  0  0  0  0  0  0  0  0  0  0  0
   -1.6691    2.8419    2.6299 C   0  0  0  0  0  0  0  0  0  0  0  0
   -1.6520    3.7941    2.0888 H   0  0  0  0  0  0  0  0  0  0  0  0
   -2.6984    2.4683    2.6412 H   0  0  0  0  0  0  0  0  0  0  0  0
   -1.1696    3.0366    4.0604 C   0  0  0  0  0  0  0  0  0  0  0  0
   -1.1686    2.0660    4.5694 H   0  0  0  0  0  0  0  0  0  0  0  0
   -0.1400    3.4106    4.0276 H   0  0  0  0  0  0  0  0  0  0  0  0
   -2.0279    3.9869    4.7907 N   0  3  0  0  0  0  0  0  0  0  0  0
   -2.7695    4.4464    4.2647 H   0  0  0  0  0  0  0  0  0  0  0  0
   -1.8544    4.2847    6.0464 C   0  0  0  0  0  0  0  0  0  0  0  0
   -0.8405    3.7231    6.7895 N   0  0  0  0  0  0  0  0  0  0  0  0
   -0.1347    3.1776    6.2983 H   0  0  0  0  0  0  0  0  0  0  0  0
   -0.5833    4.1544    7.6750 H   0  0  0  0  0  0  0  0  0  0  0  0
   -2.6928    5.1889    6.6541 N   0  0  0  0  0  0  0  0  0  0  0  0
   -3.5422    5.4742    6.1708 H   0  0  0  0  0  0  0  0  0  0  0  0
   -2.6734    5.2630    7.6697 H   0  0  0  0  0  0  0  0  0  0  0  0
   -0.0053    0.8571   -0.2770 C   0  0  0  0  0  0  0  0  0  0  0  0
    1.0576    1.4556   -0.3808 O   0  0  0  0  0  0  0  0  0  0  0  0
   -0.1685   -0.3419   -0.9459 N   0  0  0  0  0  0  0  0  0  0  0  0
   -0.9397   -0.9167   -0.6128 H   0  0  0  0  0  0  0  0  0  0  0  0
    0.9293   -1.0096   -1.6373 C   0  0  0  0  0  0  0  0  0  0  0  0
    1.7228   -1.2756   -0.9310 H   0  0  0  0  0  0  0  0  0  0  0  0
    0.5727   -1.9241   -2.1213 H   0  0  0  0  0  0  0  0  0  0  0  0
    1.3509   -0.3563   -2.4088 H   0  0  0  0  0  0  0  0  0  0  0  0
  1  2  1  0  0  0  0
  2  3  1  0  0  0  0
  2  4  1  0  0  0  0
  2  5  1  0  0  0  0
  5  6  2  0  0  0  0
  5  7  1  0  0  0  0
  7  8  1  0  0  0  0
  7  9  1  0  0  0  0
  9 10  1  0  0  0  0
  9 11  1  0  0  0  0
  9 29  1  0  0  0  0
 11 12  1  0  0  0  0
 11 13  1  0  0  0  0
 11 14  1  0  0  0  0
 14 15  1  0  0  0  0
 14 16  1  0  0  0  0
 14 17  1  0  0  0  0
 17 18  1  0  0  0  0
 17 19  1  0  0  0  0
 17 20  1  0  0  0  0
 20 21  1  0  0  0  0
 20 22  2  0  0  0  0
 22 23  1  0  0  0  0
 22 26  1  0  0  0  0
 23 24  1  0  0  0  0
 23 25  1  0  0  0  0
 26 27  1  0  0  0  0
 26 28  1  0  0  0  0
 29 30  2  0  0  0  0
 29 31  1  0  0  0  0
 31 32  1  0  0  0  0
 31 33  1  0  0  0  0
 33 34  1  0  0  0  0
 33 35  1  0  0  0  0
 33 36  1  0  0  0  0
M  CHG  1  20   1
M  END
$$$$

  -OEChem-02172215453D

 36 35  0     1  0  0  0  0  0999 V2000
   -4.1319   -2.0166    1.0860 H   0  0  0  0  0  0  0  0  0  0  0  0
   -4.1041   -1.0045    0.6714 C   0  0  0  0  0  0  0  0  0  0  0  0
   -4.8592   -0.3976    1.1763 H   0  0  0  0  0  0  0  0  0  0  0  0
   -4.3403   -1.0570   -0.3944 H   0  0  0  0  0  0  0  0  0  0  0  0
   -2.7290   -0.3967    0.8708 C   0  0  0  0  0  0  0  0  0  0  0  0
   -1.8547   -1.0489    1.4108 O   0  0  0  0  0  0  0  0  0  0  0  0
   -2.4680    0.8770    0.3973 N   0  0  0  0  0  0  0  0  0  0  0  0
   -3.2229    1.3185   -0.1224 H   0  0  0  0  0  0  0  0  0  0  0  0
   -1.1689    1.5897    0.4521 C   0  0  1  0  0  0  0  0  0  0  0  0
   -1.2910    2.5508   -0.0572 H   0  0  0  0  0  0  0  0  0  0  0  0
   -0.7582    1.8687    1.9196 C   0  0  0  0  0  0  0  0  0  0  0  0
   -0.7198    0.9320    2.4838 H   0  0  0  0  0  0  0  0  0  0  0  0
    0.2537    2.2887    1.9350 H   0  0  0  0  0  0  0  0  0  0  0  0
   -1.6818    2.8665    2.6249 C   0  0  0  0  0  0  0  0  0  0  0  0
   -1.6775    3.8222    2.0892 H   0  0  0  0  0  0  0  0  0  0  0  0
   -2.7066    2.4813    2.6387 H   0  0  0  0  0  0  0  0  0  0  0  0
   -1.1747    3.0563    4.0538 C   0  0  0  0  0  0  0  0  0  0  0  0
   -1.1587    2.0817    4.5551 H   0  0  0  0  0  0  0  0  0  0  0  0
   -0.1494    3.4414    4.0158 H   0  0  0  0  0  0  0  0  0  0  0  0
   -2.0352    3.9909    4.8015 N   0  3  0  0  0  0  0  0  0  0  0  0
   -2.7908    4.4426    4.2888 H   0  0  0  0  0  0  0  0  0  0  0  0
   -1.8509    4.2776    6.0585 C   0  0  0  0  0  0  0  0  0  0  0  0
   -0.8240    3.7196    6.7862 N   0  0  0  0  0  0  0  0  0  0  0  0
   -0.1094    3.1991    6.2805 H   0  0  0  0  0  0  0  0  0  0  0  0
   -0.5701    4.1396    7.6780 H   0  0  0  0  0  0  0  0  0  0  0  0
   -2.6969    5.1597    6.6875 N   0  0  0  0  0  0  0  0  0  0  0  0
   -3.5585    5.4321    6.2185 H   0  0  0  0  0  0  0  0  0  0  0  0
   -2.6671    5.2188    7.7040 H   0  0  0  0  0  0  0  0  0  0  0  0
   -0.0084    0.8762   -0.2945 C   0  0  0  0  0  0  0  0  0  0  0  0
    1.1272    1.3259   -0.2069 O   0  0  0  0  0  0  0  0  0  0  0  0
   -0.2488   -0.1485   -1.1925 N   0  0  0  0  0  0  0  0  0  0  0  0
   -1.1472   -0.6123   -1.1028 H   0  0  0  0  0  0  0  0  0  0  0  0
    0.8240   -0.8589   -1.8816 C   0  0  0  0  0  0  0  0  0  0  0  0
    1.4861   -1.3486   -1.1594 H   0  0  0  0  0  0  0  0  0  0  0  0
    0.4075   -1.6239   -2.5441 H   0  0  0  0  0  0  0  0  0  0  0  0
    1.4171   -0.1662   -2.4882 H   0  0  0  0  0  0  0  0  0  0  0  0
  1  2  1  0  0  0  0
  2  3  1  0  0  0  0
  2  4  1  0  0  0  0
  2  5  1  0  0  0  0
  5  6  2  0  0  0  0
  5  7  1  0  0  0  0
  7  8  1  0  0  0  0
  7  9  1  0  0  0  0
  9 10  1  0  0  0  0
  9 11  1  0  0  0  0
  9 29  1  0  0  0  0
 11 12  1  0  0  0  0
 11 13  1  0  0  0  0
 11 14  1  0  0  0  0
 14 15  1  0  0  0  0
 14 16  1  0  0  0  0
 14 17  1  0  0  0  0
 17 18  1  0  0  0  0
 17 19  1  0  0  0  0
 17 20  1  0  0  0  0
 20 21  1  0  0  0  0
 20 22  2  0  0  0  0
 22 23  1  0  0  0  0
 22 26  1  0  0  0  0
 23 24  1  0  0  0  0
 23 25  1  0  0  0  0
 26 27  1  0  0  0  0
 26 28  1  0  0  0  0
 29 30  2  0  0  0  0
 29 31  1  0  0  0  0
 31 32  1  0  0  0  0
 31 33  1  0  0  0  0
 33 34  1  0  0  0  0
 33 35  1  0  0  0  0
 33 36  1  0  0  0  0
M  CHG  1  20   1
M  END
$$$$

  -OEChem-02172215453D

 36 35  0     1  0  0  0  0  0999 V2000
   -4.0164   -2.0819    1.0957 H   0  0  0  0  0  0  0  0  0  0  0  0
   -4.0200   -1.0684    0.6832 C   0  0  0  0  0  0  0  0  0  0  0  0
   -4.7896   -0.4847    1.1934 H   0  0  0  0  0  0  0  0  0  0  0  0
   -4.2602   -1.1255   -0.3812 H   0  0  0  0  0  0  0  0  0  0  0  0
   -2.6614   -0.4222    0.8767 C   0  0  0  0  0  0  0  0  0  0  0  0
   -1.7752   -1.0438    1.4332 O   0  0  0  0  0  0  0  0  0  0  0  0
   -2.4403    0.8611    0.4056 N   0  0  0  0  0  0  0  0  0  0  0  0
   -3.2143    1.2914   -0.0947 H   0  0  0  0  0  0  0  0  0  0  0  0
   -1.1571    1.6010    0.4588 C   0  0  1  0  0  0  0  0  0  0  0  0
   -1.2958    2.5590   -0.0513 H   0  0  0  0  0  0  0  0  0  0  0  0
   -0.7504    1.8936    1.9253 C   0  0  0  0  0  0  0  0  0  0  0  0
   -0.6886    0.9602    2.4930 H   0  0  0  0  0  0  0  0  0  0  0  0
    0.2504    2.3389    1.9372 H   0  0  0  0  0  0  0  0  0  0  0  0
   -1.6933    2.8735    2.6286 C   0  0  0  0  0  0  0  0  0  0  0  0
   -1.7099    3.8277    2.0913 H   0  0  0  0  0  0  0  0  0  0  0  0
   -2.7096    2.4668    2.6461 H   0  0  0  0  0  0  0  0  0  0  0  0
   -1.1839    3.0743    4.0547 C   0  0  0  0  0  0  0  0  0  0  0  0
   -1.1470    2.0998    4.5545 H   0  0  0  0  0  0  0  0  0  0  0  0
   -0.1658    3.4784    4.0132 H   0  0  0  0  0  0  0  0  0  0  0  0
   -2.0575    3.9922    4.8076 N   0  3  0  0  0  0  0  0  0  0  0  0
   -2.8422    4.4072    4.3079 H   0  0  0  0  0  0  0  0  0  0  0  0
   -1.8698    4.2807    6.0636 C   0  0  0  0  0  0  0  0  0  0  0  0
   -0.8273    3.7398    6.7818 N   0  0  0  0  0  0  0  0  0  0  0  0
   -0.2916    2.9871    6.3529 H   0  0  0  0  0  0  0  0  0  0  0  0
   -0.8492    3.7944    7.7981 H   0  0  0  0  0  0  0  0  0  0  0  0
   -2.7234    5.1500    6.6998 N   0  0  0  0  0  0  0  0  0  0  0  0
   -3.3738    5.6958    6.1384 H   0  0  0  0  0  0  0  0  0  0  0  0
   -2.4447    5.5250    7.6050 H   0  0  0  0  0  0  0  0  0  0  0  0
   -0.0032    0.8936   -0.3044 C   0  0  0  0  0  0  0  0  0  0  0  0
    1.1643    1.1588   -0.0472 O   0  0  0  0  0  0  0  0  0  0  0  0
   -0.2729    0.1005   -1.4056 N   0  0  0  0  0  0  0  0  0  0  0  0
   -1.2359   -0.1937   -1.5282 H   0  0  0  0  0  0  0  0  0  0  0  0
    0.7684   -0.5951   -2.1553 C   0  0  0  0  0  0  0  0  0  0  0  0
    1.2908   -1.3107   -1.5112 H   0  0  0  0  0  0  0  0  0  0  0  0
    0.3306   -1.1406   -2.9968 H   0  0  0  0  0  0  0  0  0  0  0  0
    1.4988    0.1182   -2.5526 H   0  0  0  0  0  0  0  0  0  0  0  0
  1  2  1  0  0  0  0
  2  3  1  0  0  0  0
  2  4  1  0  0  0  0
  2  5  1  0  0  0  0
  5  6  2  0  0  0  0
  5  7  1  0  0  0  0
  7  8  1  0  0  0  0
  7  9  1  0  0  0  0
  9 10  1  0  0  0  0
  9 11  1  0  0  0  0
  9 29  1  0  0  0  0
 11 12  1  0  0  0  0
 11 13  1  0  0  0  0
 11 14  1  0  0  0  0
 14 15  1  0  0  0  0
 14 16  1  0  0  0  0
 14 17  1  0  0  0  0
 17 18  1  0  0  0  0
 17 19  1  0  0  0  0
 17 20  1  0  0  0  0
 20 21  1  0  0  0  0
 20 22  2  0  0  0  0
 22 23  1  0  0  0  0
 22 26  1  0  0  0  0
 23 24  1  0  0  0  0
 23 25  1  0  0  0  0
 26 27  1  0  0  0  0
 26 28  1  0  0  0  0
 29 30  2  0  0  0  0
 29 31  1  0  0  0  0
 31 32  1  0  0  0  0
 31 33  1  0  0  0  0
 33 34  1  0  0  0  0
 33 35  1  0  0  0  0
 33 36  1  0  0  0  0
M  CHG  1  20   1
M  END
$$$$

  -OEChem-02172215453D

 36 35  0     1  0  0  0  0  0999 V2000
   -3.9747   -2.0812    1.0944 H   0  0  0  0  0  0  0  0  0  0  0  0
   -3.9803   -1.0693    0.6786 C   0  0  0  0  0  0  0  0  0  0  0  0
   -4.7532   -0.4865    1.1847 H   0  0  0  0  0  0  0  0  0  0  0  0
   -4.2171   -1.1307   -0.3862 H   0  0  0  0  0  0  0  0  0  0  0  0
   -2.6242   -0.4185    0.8742 C   0  0  0  0  0  0  0  0  0  0  0  0
   -1.7426   -1.0330    1.4453 O   0  0  0  0  0  0  0  0  0  0  0  0
   -2.4102    0.8672    0.4060 N   0  0  0  0  0  0  0  0  0  0  0  0
   -3.1885    1.2949   -0.0887 H   0  0  0  0  0  0  0  0  0  0  0  0
   -1.1316    1.6130    0.4613 C   0  0  1  0  0  0  0  0  0  0  0  0
   -1.2690    2.5724   -0.0461 H   0  0  0  0  0  0  0  0  0  0  0  0
   -0.7258    1.9021    1.9284 C   0  0  0  0  0  0  0  0  0  0  0  0
   -0.6559    0.9683    2.4942 H   0  0  0  0  0  0  0  0  0  0  0  0
    0.2719    2.3545    1.9381 H   0  0  0  0  0  0  0  0  0  0  0  0
   -1.6757    2.8740    2.6329 C   0  0  0  0  0  0  0  0  0  0  0  0
   -1.6981    3.8292    2.0977 H   0  0  0  0  0  0  0  0  0  0  0  0
   -2.6888    2.4592    2.6474 H   0  0  0  0  0  0  0  0  0  0  0  0
   -1.1738    3.0772    4.0607 C   0  0  0  0  0  0  0  0  0  0  0  0
   -1.1328    2.1025    4.5598 H   0  0  0  0  0  0  0  0  0  0  0  0
   -0.1588    3.4888    4.0252 H   0  0  0  0  0  0  0  0  0  0  0  0
   -2.0601    3.9882    4.8068 N   0  3  0  0  0  0  0  0  0  0  0  0
   -2.8490    4.3898    4.3027 H   0  0  0  0  0  0  0  0  0  0  0  0
   -1.8845    4.2803    6.0636 C   0  0  0  0  0  0  0  0  0  0  0  0
   -0.8428    3.7498    6.7909 N   0  0  0  0  0  0  0  0  0  0  0  0
   -0.2924    3.0062    6.3647 H   0  0  0  0  0  0  0  0  0  0  0  0
   -0.8765    3.7999    7.8070 H   0  0  0  0  0  0  0  0  0  0  0  0
   -2.7563    5.1373    6.6923 N   0  0  0  0  0  0  0  0  0  0  0  0
   -3.4084    5.6756    6.1250 H   0  0  0  0  0  0  0  0  0  0  0  0
   -2.4940    5.5120    7.6025 H   0  0  0  0  0  0  0  0  0  0  0  0
    0.0079    0.8921   -0.3100 C   0  0  0  0  0  0  0  0  0  0  0  0
    1.1658    0.9323    0.0865 O   0  0  0  0  0  0  0  0  0  0  0  0
   -0.2418    0.3660   -1.5655 N   0  0  0  0  0  0  0  0  0  0  0  0
   -1.2138    0.2718   -1.8400 H   0  0  0  0  0  0  0  0  0  0  0  0
    0.7749   -0.3261   -2.3513 C   0  0  0  0  0  0  0  0  0  0  0  0
    1.1216   -1.2211   -1.8238 H   0  0  0  0  0  0  0  0  0  0  0  0
    0.3663   -0.6305   -3.3196 H   0  0  0  0  0  0  0  0  0  0  0  0
    1.6336    0.3292   -2.5327 H   0  0  0  0  0  0  0  0  0  0  0  0
  1  2  1  0  0  0  0
  2  3  1  0  0  0  0
  2  4  1  0  0  0  0
  2  5  1  0  0  0  0
  5  6  2  0  0  0  0
  5  7  1  0  0  0  0
  7  8  1  0  0  0  0
  7  9  1  0  0  0  0
  9 10  1  0  0  0  0
  9 11  1  0  0  0  0
  9 29  1  0  0  0  0
 11 12  1  0  0  0  0
 11 13  1  0  0  0  0
 11 14  1  0  0  0  0
 14 15  1  0  0  0  0
 14 16  1  0  0  0  0
 14 17  1  0  0  0  0
 17 18  1  0  0  0  0
 17 19  1  0  0  0  0
 17 20  1  0  0  0  0
 20 21  1  0  0  0  0
 20 22  2  0  0  0  0
 22 23  1  0  0  0  0
 22 26  1  0  0  0  0
 23 24  1  0  0  0  0
 23 25  1  0  0  0  0
 26 27  1  0  0  0  0
 26 28  1  0  0  0  0
 29 30  2  0  0  0  0
 29 31  1  0  0  0  0
 31 32  1  0  0  0  0
 31 33  1  0  0  0  0
 33 34  1  0  0  0  0
 33 35  1  0  0  0  0
 33 36  1  0  0  0  0
M  CHG  1  20   1
M  END
$$$$

  -OEChem-02172215453D

 36 35  0     1  0  0  0  0  0999 V2000
   -3.9657   -2.1201    1.0325 H   0  0  0  0  0  0  0  0  0  0  0  0
   -3.9729   -1.1057    0.6227 C   0  0  0  0  0  0  0  0  0  0  0  0
   -4.7780   -0.5412    1.0984 H   0  0  0  0  0  0  0  0  0  0  0  0
   -4.1620   -1.1655   -0.4518 H   0  0  0  0  0  0  0  0  0  0  0  0
   -2.6390   -0.4300    0.8799 C   0  0  0  0  0  0  0  0  0  0  0  0
   -1.7820   -1.0237    1.5072 O   0  0  0  0  0  0  0  0  0  0  0  0
   -2.4236    0.8541    0.4065 N   0  0  0  0  0  0  0  0  0  0  0  0
   -3.1841    1.2561   -0.1348 H   0  0  0  0  0  0  0  0  0  0  0  0
   -1.1482    1.6039    0.4684 C   0  0  1  0  0  0  0  0  0  0  0  0
   -1.2842    2.5608   -0.0436 H   0  0  0  0  0  0  0  0  0  0  0  0
   -0.7449    1.9067    1.9328 C   0  0  0  0  0  0  0  0  0  0  0  0
   -0.6719    0.9777    2.5062 H   0  0  0  0  0  0  0  0  0  0  0  0
    0.2528    2.3600    1.9340 H   0  0  0  0  0  0  0  0  0  0  0  0
   -1.6936    2.8814    2.6346 C   0  0  0  0  0  0  0  0  0  0  0  0
   -1.7203    3.8343    2.0959 H   0  0  0  0  0  0  0  0  0  0  0  0
   -2.7063    2.4654    2.6566 H   0  0  0  0  0  0  0  0  0  0  0  0
   -1.1796    3.0869    4.0579 C   0  0  0  0  0  0  0  0  0  0  0  0
   -1.1347    2.1125    4.5575 H   0  0  0  0  0  0  0  0  0  0  0  0
   -0.1644    3.4972    4.0119 H   0  0  0  0  0  0  0  0  0  0  0  0
   -2.0556    3.9997    4.8134 N   0  3  0  0  0  0  0  0  0  0  0  0
   -2.8494    4.4036    4.3189 H   0  0  0  0  0  0  0  0  0  0  0  0
   -1.8639    4.2903    6.0681 C   0  0  0  0  0  0  0  0  0  0  0  0
   -0.8144    3.7562    6.7814 N   0  0  0  0  0  0  0  0  0  0  0  0
   -0.2768    3.0067    6.3493 H   0  0  0  0  0  0  0  0  0  0  0  0
   -0.8330    3.8088    7.7979 H   0  0  0  0  0  0  0  0  0  0  0  0
   -2.7235    5.1520    6.7068 N   0  0  0  0  0  0  0  0  0  0  0  0
   -3.3807    5.6923    6.1476 H   0  0  0  0  0  0  0  0  0  0  0  0
   -2.4498    5.5252    7.6142 H   0  0  0  0  0  0  0  0  0  0  0  0
   -0.0044    0.8772   -0.2907 C   0  0  0  0  0  0  0  0  0  0  0  0
    1.0919    0.6953    0.2234 O   0  0  0  0  0  0  0  0  0  0  0  0
   -0.1443    0.6230   -1.6440 N   0  0  0  0  0  0  0  0  0  0  0  0
   -1.0674    0.7371   -2.0491 H   0  0  0  0  0  0  0  0  0  0  0  0
    0.9010   -0.0041   -2.4473 C   0  0  0  0  0  0  0  0  0  0  0  0
    1.1178   -1.0111   -2.0747 H   0  0  0  0  0  0  0  0  0  0  0  0
    0.5835   -0.0810   -3.4919 H   0  0  0  0  0  0  0  0  0  0  0  0
    1.8216    0.5887   -2.4112 H   0  0  0  0  0  0  0  0  0  0  0  0
  1  2  1  0  0  0  0
  2  3  1  0  0  0  0
  2  4  1  0  0  0  0
  2  5  1  0  0  0  0
  5  6  2  0  0  0  0
  5  7  1  0  0  0  0
  7  8  1  0  0  0  0
  7  9  1  0  0  0  0
  9 10  1  0  0  0  0
  9 11  1  0  0  0  0
  9 29  1  0  0  0  0
 11 12  1  0  0  0  0
 11 13  1  0  0  0  0
 11 14  1  0  0  0  0
 14 15  1  0  0  0  0
 14 16  1  0  0  0  0
 14 17  1  0  0  0  0
 17 18  1  0  0  0  0
 17 19  1  0  0  0  0
 17 20  1  0  0  0  0
 20 21  1  0  0  0  0
 20 22  2  0  0  0  0
 22 23  1  0  0  0  0
 22 26  1  0  0  0  0
 23 24  1  0  0  0  0
 23 25  1  0  0  0  0
 26 27  1  0  0  0  0
 26 28  1  0  0  0  0
 29 30  2  0  0  0  0
 29 31  1  0  0  0  0
 31 32  1  0  0  0  0
 31 33  1  0  0  0  0
 33 34  1  0  0  0  0
 33 35  1  0  0  0  0
 33 36  1  0  0  0  0
M  CHG  1  20   1
M  END
$$$$

  -OEChem-02172215453D

 36 35  0     1  0  0  0  0  0999 V2000
   -3.9550   -2.1333    1.0023 H   0  0  0  0  0  0  0  0  0  0  0  0
   -3.9612   -1.1194    0.5911 C   0  0  0  0  0  0  0  0  0  0  0  0
   -4.7884   -0.5642    1.0389 H   0  0  0  0  0  0  0  0  0  0  0  0
   -4.1133   -1.1825   -0.4890 H   0  0  0  0  0  0  0  0  0  0  0  0
   -2.6456   -0.4274    0.8924 C   0  0  0  0  0  0  0  0  0  0  0  0
   -1.8162   -1.0024    1.5717 O   0  0  0  0  0  0  0  0  0  0  0  0
   -2.4299    0.8551    0.4137 N   0  0  0  0  0  0  0  0  0  0  0  0
   -3.1687    1.2246   -0.1782 H   0  0  0  0  0  0  0  0  0  0  0  0
   -1.1559    1.6079    0.4685 C   0  0  1  0  0  0  0  0  0  0  0  0
   -1.2969    2.5664   -0.0395 H   0  0  0  0  0  0  0  0  0  0  0  0
   -0.7408    1.9088    1.9293 C   0  0  0  0  0  0  0  0  0  0  0  0
   -0.6617    0.9812    2.5037 H   0  0  0  0  0  0  0  0  0  0  0  0
    0.2579    2.3603    1.9184 H   0  0  0  0  0  0  0  0  0  0  0  0
   -1.6874    2.8799    2.6381 C   0  0  0  0  0  0  0  0  0  0  0  0
   -1.7206    3.8325    2.0994 H   0  0  0  0  0  0  0  0  0  0  0  0
   -2.6981    2.4596    2.6661 H   0  0  0  0  0  0  0  0  0  0  0  0
   -1.1677    3.0883    4.0588 C   0  0  0  0  0  0  0  0  0  0  0  0
   -1.1181    2.1145    4.5593 H   0  0  0  0  0  0  0  0  0  0  0  0
   -0.1542    3.5026    4.0089 H   0  0  0  0  0  0  0  0  0  0  0  0
   -2.0465    3.9983    4.8142 N   0  3  0  0  0  0  0  0  0  0  0  0
   -2.8455    4.3932    4.3210 H   0  0  0  0  0  0  0  0  0  0  0  0
   -1.8551    4.2937    6.0678 C   0  0  0  0  0  0  0  0  0  0  0  0
   -0.8024    3.7677    6.7824 N   0  0  0  0  0  0  0  0  0  0  0  0
   -0.2646    3.0164    6.3536 H   0  0  0  0  0  0  0  0  0  0  0  0
   -0.8231    3.8219    7.7987 H   0  0  0  0  0  0  0  0  0  0  0  0
   -2.7218    5.1491    6.7053 N   0  0  0  0  0  0  0  0  0  0  0  0
   -3.3870    5.6792    6.1464 H   0  0  0  0  0  0  0  0  0  0  0  0
   -2.4513    5.5274    7.6114 H   0  0  0  0  0  0  0  0  0  0  0  0
   -0.0143    0.8793   -0.2914 C   0  0  0  0  0  0  0  0  0  0  0  0
    0.9823    0.4665    0.2871 O   0  0  0  0  0  0  0  0  0  0  0  0
   -0.0085    0.8937   -1.6756 N   0  0  0  0  0  0  0  0  0  0  0  0
   -0.8445    1.2215   -2.1484 H   0  0  0  0  0  0  0  0  0  0  0  0
    1.0589    0.2975   -2.4735 C   0  0  0  0  0  0  0  0  0  0  0  0
    1.1256   -0.7786   -2.2802 H   0  0  0  0  0  0  0  0  0  0  0  0
    0.8656    0.4471   -3.5403 H   0  0  0  0  0  0  0  0  0  0  0  0
    2.0231    0.7576   -2.2315 H   0  0  0  0  0  0  0  0  0  0  0  0
  1  2  1  0  0  0  0
  2  3  1  0  0  0  0
  2  4  1  0  0  0  0
  2  5  1  0  0  0  0
  5  6  2  0  0  0  0
  5  7  1  0  0  0  0
  7  8  1  0  0  0  0
  7  9  1  0  0  0  0
  9 10  1  0  0  0  0
  9 11  1  0  0  0  0
  9 29  1  0  0  0  0
 11 12  1  0  0  0  0
 11 13  1  0  0  0  0
 11 14  1  0  0  0  0
 14 15  1  0  0  0  0
 14 16  1  0  0  0  0
 14 17  1  0  0  0  0
 17 18  1  0  0  0  0
 17 19  1  0  0  0  0
 17 20  1  0  0  0  0
 20 21  1  0  0  0  0
 20 22  2  0  0  0  0
 22 23  1  0  0  0  0
 22 26  1  0  0  0  0
 23 24  1  0  0  0  0
 23 25  1  0  0  0  0
 26 27  1  0  0  0  0
 26 28  1  0  0  0  0
 29 30  2  0  0  0  0
 29 31  1  0  0  0  0
 31 32  1  0  0  0  0
 31 33  1  0  0  0  0
 33 34  1  0  0  0  0
 33 35  1  0  0  0  0
 33 36  1  0  0  0  0
M  CHG  1  20   1
M  END
$$$$

  -OEChem-02172215453D

 36 35  0     1  0  0  0  0  0999 V2000
   -3.9334   -2.1701    0.9306 H   0  0  0  0  0  0  0  0  0  0  0  0
   -3.9259   -1.1689    0.4897 C   0  0  0  0  0  0  0  0  0  0  0  0
   -4.8140   -0.6297    0.8272 H   0  0  0  0  0  0  0  0  0  0  0  0
   -3.9564   -1.2671   -0.5981 H   0  0  0  0  0  0  0  0  0  0  0  0
   -2.6727   -0.4244    0.9092 C   0  0  0  0  0  0  0  0  0  0  0  0
   -1.9152   -0.9475    1.7046 O   0  0  0  0  0  0  0  0  0  0  0  0
   -2.4585    0.8559    0.4225 N   0  0  0  0  0  0  0  0  0  0  0  0
   -3.1447    1.1597   -0.2629 H   0  0  0  0  0  0  0  0  0  0  0  0
   -1.1877    1.6148    0.4734 C   0  0  1  0  0  0  0  0  0  0  0  0
   -1.3375    2.5723   -0.0338 H   0  0  0  0  0  0  0  0  0  0  0  0
   -0.7567    1.9203    1.9285 C   0  0  0  0  0  0  0  0  0  0  0  0
   -0.6631    0.9968    2.5068 H   0  0  0  0  0  0  0  0  0  0  0  0
    0.2406    2.3739    1.9005 H   0  0  0  0  0  0  0  0  0  0  0  0
   -1.6995    2.8886    2.6474 C   0  0  0  0  0  0  0  0  0  0  0  0
   -1.7460    3.8399    2.1074 H   0  0  0  0  0  0  0  0  0  0  0  0
   -2.7072    2.4612    2.6880 H   0  0  0  0  0  0  0  0  0  0  0  0
   -1.1647    3.1025    4.0619 C   0  0  0  0  0  0  0  0  0  0  0  0
   -1.1048    2.1296    4.5628 H   0  0  0  0  0  0  0  0  0  0  0  0
   -0.1538    3.5205    3.9994 H   0  0  0  0  0  0  0  0  0  0  0  0
   -2.0365    4.0098    4.8294 N   0  3  0  0  0  0  0  0  0  0  0  0
   -2.8457    4.3994    4.3486 H   0  0  0  0  0  0  0  0  0  0  0  0
   -1.8276    4.3055    6.0804 C   0  0  0  0  0  0  0  0  0  0  0  0
   -0.7625    3.7825    6.7790 N   0  0  0  0  0  0  0  0  0  0  0  0
   -0.2356    3.0268    6.3443 H   0  0  0  0  0  0  0  0  0  0  0  0
   -0.7722    3.8337    7.7957 H   0  0  0  0  0  0  0  0  0  0  0  0
   -2.6836    5.1617    6.7315 N   0  0  0  0  0  0  0  0  0  0  0  0
   -3.3551    5.6944    6.1820 H   0  0  0  0  0  0  0  0  0  0  0  0
   -2.3956    5.5416    7.6317 H   0  0  0  0  0  0  0  0  0  0  0  0
   -0.0413    0.8887   -0.2803 C   0  0  0  0  0  0  0  0  0  0  0  0
    0.8080    0.2368    0.3110 O   0  0  0  0  0  0  0  0  0  0  0  0
    0.1533    1.1465   -1.6266 N   0  0  0  0  0  0  0  0  0  0  0  0
   -0.5466    1.6973   -2.1134 H   0  0  0  0  0  0  0  0  0  0  0  0
    1.2482    0.5658   -2.3985 C   0  0  0  0  0  0  0  0  0  0  0  0
    1.1992   -0.5281   -2.3700 H   0  0  0  0  0  0  0  0  0  0  0  0
    1.1901    0.8867   -3.4431 H   0  0  0  0  0  0  0  0  0  0  0  0
    2.2148    0.8842   -1.9935 H   0  0  0  0  0  0  0  0  0  0  0  0
  1  2  1  0  0  0  0
  2  3  1  0  0  0  0
  2  4  1  0  0  0  0
  2  5  1  0  0  0  0
  5  6  2  0  0  0  0
  5  7  1  0  0  0  0
  7  8  1  0  0  0  0
  7  9  1  0  0  0  0
  9 10  1  0  0  0  0
  9 11  1  0  0  0  0
  9 29  1  0  0  0  0
 11 12  1  0  0  0  0
 11 13  1  0  0  0  0
 11 14  1  0  0  0  0
 14 15  1  0  0  0  0
 14 16  1  0  0  0  0
 14 17  1  0  0  0  0
 17 18  1  0  0  0  0
 17 19  1  0  0  0  0
 17 20  1  0  0  0  0
 20 21  1  0  0  0  0
 20 22  2  0  0  0  0
 22 23  1  0  0  0  0
 22 26  1  0  0  0  0
 23 24  1  0  0  0  0
 23 25  1  0  0  0  0
 26 27  1  0  0  0  0
 26 28  1  0  0  0  0
 29 30  2  0  0  0  0
 29 31  1  0  0  0  0
 31 32  1  0  0  0  0
 31 33  1  0  0  0  0
 33 34  1  0  0  0  0
 33 35  1  0  0  0  0
 33 36  1  0  0  0  0
M  CHG  1  20   1
M  END
$$$$

  -OEChem-02172215453D

 36 35  0     1  0  0  0  0  0999 V2000
   -3.8612   -2.2152    0.8421 H   0  0  0  0  0  0  0  0  0  0  0  0
   -3.8575   -1.2225    0.3821 C   0  0  0  0  0  0  0  0  0  0  0  0
   -4.8093   -0.7313    0.5976 H   0  0  0  0  0  0  0  0  0  0  0  0
   -3.7503   -1.3414   -0.6988 H   0  0  0  0  0  0  0  0  0  0  0  0
   -2.7076   -0.3989    0.9313 C   0  0  0  0  0  0  0  0  0  0  0  0
   -2.0680   -0.8387    1.8688 O   0  0  0  0  0  0  0  0  0  0  0  0
   -2.4972    0.8778    0.4312 N   0  0  0  0  0  0  0  0  0  0  0  0
   -3.1210    1.1110   -0.3364 H   0  0  0  0  0  0  0  0  0  0  0  0
   -1.2259    1.6391    0.4782 C   0  0  1  0  0  0  0  0  0  0  0  0
   -1.3816    2.5965   -0.0272 H   0  0  0  0  0  0  0  0  0  0  0  0
   -0.7674    1.9392    1.9251 C   0  0  0  0  0  0  0  0  0  0  0  0
   -0.6540    1.0167    2.5006 H   0  0  0  0  0  0  0  0  0  0  0  0
    0.2268    2.3972    1.8783 H   0  0  0  0  0  0  0  0  0  0  0  0
   -1.7014    2.9021    2.6613 C   0  0  0  0  0  0  0  0  0  0  0  0
   -1.7621    3.8540    2.1239 H   0  0  0  0  0  0  0  0  0  0  0  0
   -2.7063    2.4694    2.7167 H   0  0  0  0  0  0  0  0  0  0  0  0
   -1.1468    3.1167    4.0677 C   0  0  0  0  0  0  0  0  0  0  0  0
   -1.0758    2.1437    4.5672 H   0  0  0  0  0  0  0  0  0  0  0  0
   -0.1390    3.5402    3.9924 H   0  0  0  0  0  0  0  0  0  0  0  0
   -2.0159    4.0192    4.8429 N   0  3  0  0  0  0  0  0  0  0  0  0
   -2.8400    4.3910    4.3735 H   0  0  0  0  0  0  0  0  0  0  0  0
   -1.7966    4.3188    6.0908 C   0  0  0  0  0  0  0  0  0  0  0  0
   -0.7211    3.8046    6.7794 N   0  0  0  0  0  0  0  0  0  0  0  0
   -0.1939    3.0528    6.3386 H   0  0  0  0  0  0  0  0  0  0  0  0
   -0.7260    3.8509    7.7962 H   0  0  0  0  0  0  0  0  0  0  0  0
   -2.6579    5.1625    6.7508 N   0  0  0  0  0  0  0  0  0  0  0  0
   -3.3445    5.6837    6.2095 H   0  0  0  0  0  0  0  0  0  0  0  0
   -2.3687    5.5445    7.6494 H   0  0  0  0  0  0  0  0  0  0  0  0
   -0.0764    0.9098   -0.2663 C   0  0  0  0  0  0  0  0  0  0  0  0
    0.5587    0.0064    0.2569 O   0  0  0  0  0  0  0  0  0  0  0  0
    0.3337    1.3660   -1.5075 N   0  0  0  0  0  0  0  0  0  0  0  0
   -0.1908    2.1206   -1.9390 H   0  0  0  0  0  0  0  0  0  0  0  0
    1.4405    0.7687   -2.2497 C   0  0  0  0  0  0  0  0  0  0  0  0
    1.2460   -0.2924   -2.4410 H   0  0  0  0  0  0  0  0  0  0  0  0
    1.5710    1.2743   -3.2116 H   0  0  0  0  0  0  0  0  0  0  0  0
    2.3743    0.8577   -1.6837 H   0  0  0  0  0  0  0  0  0  0  0  0
  1  2  1  0  0  0  0
  2  3  1  0  0  0  0
  2  4  1  0  0  0  0
  2  5  1  0  0  0  0
  5  6  2  0  0  0  0
  5  7  1  0  0  0  0
  7  8  1  0  0  0  0
  7  9  1  0  0  0  0
  9 10  1  0  0  0  0
  9 11  1  0  0  0  0
  9 29  1  0  0  0  0
 11 12  1  0  0  0  0
 11 13  1  0  0  0  0
 11 14  1  0  0  0  0
 14 15  1  0  0  0  0
 14 16  1  0  0  0  0
 14 17  1  0  0  0  0
 17 18  1  0  0  0  0
 17 19  1  0  0  0  0
 17 20  1  0  0  0  0
 20 21  1  0  0  0  0
 20 22  2  0  0  0  0
 22 23  1  0  0  0  0
 22 26  1  0  0  0  0
 23 24  1  0  0  0  0
 23 25  1  0  0  0  0
 26 27  1  0  0  0  0
 26 28  1  0  0  0  0
 29 30  2  0  0  0  0
 29 31  1  0  0  0  0
 31 32  1  0  0  0  0
 31 33  1  0  0  0  0
 33 34  1  0  0  0  0
 33 35  1  0  0  0  0
 33 36  1  0  0  0  0
M  CHG  1  20   1
M  END
$$$$

  -OEChem-02172215453D

 36 35  0     1  0  0  0  0  0999 V2000
   -3.7531   -2.2395    0.7934 H   0  0  0  0  0  0  0  0  0  0  0  0
   -3.7436   -1.2638    0.2988 C   0  0  0  0  0  0  0  0  0  0  0  0
   -4.7401   -0.8223    0.3698 H   0  0  0  0  0  0  0  0  0  0  0  0
   -3.4884   -1.4107   -0.7534 H   0  0  0  0  0  0  0  0  0  0  0  0
   -2.7227   -0.3565    0.9585 C   0  0  0  0  0  0  0  0  0  0  0  0
   -2.2219   -0.7047    2.0137 O   0  0  0  0  0  0  0  0  0  0  0  0
   -2.5204    0.9158    0.4428 N   0  0  0  0  0  0  0  0  0  0  0  0
   -3.0776    1.0790   -0.3913 H   0  0  0  0  0  0  0  0  0  0  0  0
   -1.2446    1.6715    0.4883 C   0  0  1  0  0  0  0  0  0  0  0  0
   -1.3982    2.6293   -0.0168 H   0  0  0  0  0  0  0  0  0  0  0  0
   -0.7675    1.9580    1.9301 C   0  0  0  0  0  0  0  0  0  0  0  0
   -0.6417    1.0329    2.4980 H   0  0  0  0  0  0  0  0  0  0  0  0
    0.2251    2.4185    1.8745 H   0  0  0  0  0  0  0  0  0  0  0  0
   -1.6957    2.9190    2.6766 C   0  0  0  0  0  0  0  0  0  0  0  0
   -1.7622    3.8726    2.1427 H   0  0  0  0  0  0  0  0  0  0  0  0
   -2.6999    2.4844    2.7363 H   0  0  0  0  0  0  0  0  0  0  0  0
   -1.1373    3.1308    4.0812 C   0  0  0  0  0  0  0  0  0  0  0  0
   -1.0656    2.1570    4.5790 H   0  0  0  0  0  0  0  0  0  0  0  0
   -0.1300    3.5554    4.0051 H   0  0  0  0  0  0  0  0  0  0  0  0
   -2.0061    4.0317    4.8590 N   0  3  0  0  0  0  0  0  0  0  0  0
   -2.8323    4.4014    4.3916 H   0  0  0  0  0  0  0  0  0  0  0  0
   -1.7856    4.3300    6.1070 C   0  0  0  0  0  0  0  0  0  0  0  0
   -0.7085    3.8155    6.7927 N   0  0  0  0  0  0  0  0  0  0  0  0
   -0.1881    3.0587    6.3523 H   0  0  0  0  0  0  0  0  0  0  0  0
   -0.7132    3.8595    7.8097 H   0  0  0  0  0  0  0  0  0  0  0  0
   -2.6480    5.1705    6.7698 N   0  0  0  0  0  0  0  0  0  0  0  0
   -3.3454    5.6838    6.2342 H   0  0  0  0  0  0  0  0  0  0  0  0
   -2.3655    5.5458    7.6736 H   0  0  0  0  0  0  0  0  0  0  0  0
   -0.0973    0.9306   -0.2471 C   0  0  0  0  0  0  0  0  0  0  0  0
    0.2678   -0.1842    0.0938 O   0  0  0  0  0  0  0  0  0  0  0  0
    0.5351    1.5315   -1.3222 N   0  0  0  0  0  0  0  0  0  0  0  0
    0.2160    2.4493   -1.6168 H   0  0  0  0  0  0  0  0  0  0  0  0
    1.6053    0.8867   -2.0785 C   0  0  0  0  0  0  0  0  0  0  0  0
    1.2516   -0.0514   -2.5200 H   0  0  0  0  0  0  0  0  0  0  0  0
    1.9486    1.5397   -2.8869 H   0  0  0  0  0  0  0  0  0  0  0  0
    2.4581    0.6675   -1.4269 H   0  0  0  0  0  0  0  0  0  0  0  0
  1  2  1  0  0  0  0
  2  3  1  0  0  0  0
  2  4  1  0  0  0  0
  2  5  1  0  0  0  0
  5  6  2  0  0  0  0
  5  7  1  0  0  0  0
  7  8  1  0  0  0  0
  7  9  1  0  0  0  0
  9 10  1  0  0  0  0
  9 11  1  0  0  0  0
  9 29  1  0  0  0  0
 11 12  1  0  0  0  0
 11 13  1  0  0  0  0
 11 14  1  0  0  0  0
 14 15  1  0  0  0  0
 14 16  1  0  0  0  0
 14 17  1  0  0  0  0
 17 18  1  0  0  0  0
 17 19  1  0  0  0  0
 17 20  1  0  0  0  0
 20 21  1  0  0  0  0
 20 22  2  0  0  0  0
 22 23  1  0  0  0  0
 22 26  1  0  0  0  0
 23 24  1  0  0  0  0
 23 25  1  0  0  0  0
 26 27  1  0  0  0  0
 26 28  1  0  0  0  0
 29 30  2  0  0  0  0
 29 31  1  0  0  0  0
 31 32  1  0  0  0  0
 31 33  1  0  0  0  0
 33 34  1  0  0  0  0
 33 35  1  0  0  0  0
 33 36  1  0  0  0  0
M  CHG  1  20   1
M  END
$$$$

  -OEChem-02172215453D

 36 35  0     1  0  0  0  0  0999 V2000
   -3.7541   -2.2282    0.7914 H   0  0  0  0  0  0  0  0  0  0  0  0
   -3.7108   -1.2673    0.2705 C   0  0  0  0  0  0  0  0  0  0  0  0
   -4.7113   -0.8295    0.2521 H   0  0  0  0  0  0  0  0  0  0  0  0
   -3.3741   -1.4425   -0.7543 H   0  0  0  0  0  0  0  0  0  0  0  0
   -2.7448   -0.3357    0.9767 C   0  0  0  0  0  0  0  0  0  0  0  0
   -2.2956   -0.6589    2.0640 O   0  0  0  0  0  0  0  0  0  0  0  0
   -2.5314    0.9332    0.4577 N   0  0  0  0  0  0  0  0  0  0  0  0
   -3.0570    1.0748   -0.4007 H   0  0  0  0  0  0  0  0  0  0  0  0
   -1.2408    1.6648    0.5017 C   0  0  1  0  0  0  0  0  0  0  0  0
   -1.3835    2.6226   -0.0070 H   0  0  0  0  0  0  0  0  0  0  0  0
   -0.7545    1.9456    1.9411 C   0  0  0  0  0  0  0  0  0  0  0  0
   -0.6430    1.0197    2.5107 H   0  0  0  0  0  0  0  0  0  0  0  0
    0.2449    2.3908    1.8841 H   0  0  0  0  0  0  0  0  0  0  0  0
   -1.6666    2.9262    2.6823 C   0  0  0  0  0  0  0  0  0  0  0  0
   -1.7162    3.8771    2.1419 H   0  0  0  0  0  0  0  0  0  0  0  0
   -2.6781    2.5087    2.7420 H   0  0  0  0  0  0  0  0  0  0  0  0
   -1.1123    3.1410    4.0882 C   0  0  0  0  0  0  0  0  0  0  0  0
   -1.0591    2.1709    4.5957 H   0  0  0  0  0  0  0  0  0  0  0  0
   -0.0985    3.5500    4.0153 H   0  0  0  0  0  0  0  0  0  0  0  0
   -1.9750    4.0621    4.8496 N   0  3  0  0  0  0  0  0  0  0  0  0
   -2.7688    4.4704    4.3587 H   0  0  0  0  0  0  0  0  0  0  0  0
   -1.7637    4.3728    6.0963 C   0  0  0  0  0  0  0  0  0  0  0  0
   -0.7003    3.8530    6.8002 N   0  0  0  0  0  0  0  0  0  0  0  0
   -0.1718    3.0883    6.3840 H   0  0  0  0  0  0  0  0  0  0  0  0
   -0.6548    3.9836    7.8085 H   0  0  0  0  0  0  0  0  0  0  0  0
   -2.6158    5.2449    6.7319 N   0  0  0  0  0  0  0  0  0  0  0  0
   -3.4865    5.5174    6.2799 H   0  0  0  0  0  0  0  0  0  0  0  0
   -2.5109    5.4091    7.7313 H   0  0  0  0  0  0  0  0  0  0  0  0
   -0.0978    0.9151   -0.2334 C   0  0  0  0  0  0  0  0  0  0  0  0
    0.0310   -0.2977   -0.1567 O   0  0  0  0  0  0  0  0  0  0  0  0
    0.7447    1.6121   -1.0823 N   0  0  0  0  0  0  0  0  0  0  0  0
    0.6070    2.6134   -1.1799 H   0  0  0  0  0  0  0  0  0  0  0  0
    1.7981    0.9704   -1.8644 C   0  0  0  0  0  0  0  0  0  0  0  0
    1.3694    0.2441   -2.5635 H   0  0  0  0  0  0  0  0  0  0  0  0
    2.3535    1.7175   -2.4399 H   0  0  0  0  0  0  0  0  0  0  0  0
    2.5019    0.4490   -1.2066 H   0  0  0  0  0  0  0  0  0  0  0  0
  1  2  1  0  0  0  0
  2  3  1  0  0  0  0
  2  4  1  0  0  0  0
  2  5  1  0  0  0  0
  5  6  2  0  0  0  0
  5  7  1  0  0  0  0
  7  8  1  0  0  0  0
  7  9  1  0  0  0  0
  9 10  1  0  0  0  0
  9 11  1  0  0  0  0
  9 29  1  0  0  0  0
 11 12  1  0  0  0  0
 11 13  1  0  0  0  0
 11 14  1  0  0  0  0
 14 15  1  0  0  0  0
 14 16  1  0  0  0  0
 14 17  1  0  0  0  0
 17 18  1  0  0  0  0
 17 19  1  0  0  0  0
 17 20  1  0  0  0  0
 20 21  1  0  0  0  0
 20 22  2  0  0  0  0
 22 23  1  0  0  0  0
 22 26  1  0  0  0  0
 23 24  1  0  0  0  0
 23 25  1  0  0  0  0
 26 27  1  0  0  0  0
 26 28  1  0  0  0  0
 29 30  2  0  0  0  0
 29 31  1  0  0  0  0
 31 32  1  0  0  0  0
 31 33  1  0  0  0  0
 33 34  1  0  0  0  0
 33 35  1  0  0  0  0
 33 36  1  0  0  0  0
M  CHG  1  20   1
M  END
$$$$

  -OEChem-02172215453D

 36 35  0     1  0  0  0  0  0999 V2000
   -3.7823   -2.2247    0.8064 H   0  0  0  0  0  0  0  0  0  0  0  0
   -3.7356   -1.2591    0.2953 C   0  0  0  0  0  0  0  0  0  0  0  0
   -4.7262   -0.7996    0.3162 H   0  0  0  0  0  0  0  0  0  0  0  0
   -3.4388   -1.4299   -0.7426 H   0  0  0  0  0  0  0  0  0  0  0  0
   -2.7243   -0.3572    0.9766 C   0  0  0  0  0  0  0  0  0  0  0  0
   -2.2134   -0.7215    2.0232 O   0  0  0  0  0  0  0  0  0  0  0  0
   -2.5077    0.9179    0.4736 N   0  0  0  0  0  0  0  0  0  0  0  0
   -3.0379    1.0750   -0.3792 H   0  0  0  0  0  0  0  0  0  0  0  0
   -1.2111    1.6389    0.5216 C   0  0  1  0  0  0  0  0  0  0  0  0
   -1.3499    2.5981    0.0141 H   0  0  0  0  0  0  0  0  0  0  0  0
   -0.7324    1.9195    1.9646 C   0  0  0  0  0  0  0  0  0  0  0  0
   -0.6341    0.9962    2.5398 H   0  0  0  0  0  0  0  0  0  0  0  0
    0.2709    2.3568    1.9164 H   0  0  0  0  0  0  0  0  0  0  0  0
   -1.6458    2.9109    2.6914 C   0  0  0  0  0  0  0  0  0  0  0  0
   -1.6814    3.8587    2.1444 H   0  0  0  0  0  0  0  0  0  0  0  0
   -2.6613    2.5018    2.7406 H   0  0  0  0  0  0  0  0  0  0  0  0
   -1.1090    3.1326    4.1037 C   0  0  0  0  0  0  0  0  0  0  0  0
   -1.0675    2.1662    4.6191 H   0  0  0  0  0  0  0  0  0  0  0  0
   -0.0923    3.5363    4.0415 H   0  0  0  0  0  0  0  0  0  0  0  0
   -1.9768    4.0645    4.8462 N   0  3  0  0  0  0  0  0  0  0  0  0
   -2.7611    4.4737    4.3409 H   0  0  0  0  0  0  0  0  0  0  0  0
   -1.7821    4.3838    6.0933 C   0  0  0  0  0  0  0  0  0  0  0  0
   -0.7323    3.8631    6.8164 N   0  0  0  0  0  0  0  0  0  0  0  0
   -0.2052    3.0904    6.4138 H   0  0  0  0  0  0  0  0  0  0  0  0
   -0.7075    3.9940    7.8254 H   0  0  0  0  0  0  0  0  0  0  0  0
   -2.6364    5.2677    6.7093 N   0  0  0  0  0  0  0  0  0  0  0  0
   -3.4887    5.5621    6.2367 H   0  0  0  0  0  0  0  0  0  0  0  0
   -2.5375    5.4526    7.7058 H   0  0  0  0  0  0  0  0  0  0  0  0
   -0.0712    0.8963   -0.2280 C   0  0  0  0  0  0  0  0  0  0  0  0
   -0.1349   -0.3000   -0.4743 O   0  0  0  0  0  0  0  0  0  0  0  0
    0.9518    1.6257   -0.8106 N   0  0  0  0  0  0  0  0  0  0  0  0
    0.9657    2.6306   -0.6681 H   0  0  0  0  0  0  0  0  0  0  0  0
    1.9920    1.0224   -1.6395 C   0  0  0  0  0  0  0  0  0  0  0  0
    1.5541    0.5683   -2.5350 H   0  0  0  0  0  0  0  0  0  0  0  0
    2.7149    1.7808   -1.9555 H   0  0  0  0  0  0  0  0  0  0  0  0
    2.5281    0.2480   -1.0800 H   0  0  0  0  0  0  0  0  0  0  0  0
  1  2  1  0  0  0  0
  2  3  1  0  0  0  0
  2  4  1  0  0  0  0
  2  5  1  0  0  0  0
  5  6  2  0  0  0  0
  5  7  1  0  0  0  0
  7  8  1  0  0  0  0
  7  9  1  0  0  0  0
  9 10  1  0  0  0  0
  9 11  1  0  0  0  0
  9 29  1  0  0  0  0
 11 12  1  0  0  0  0
 11 13  1  0  0  0  0
 11 14  1  0  0  0  0
 14 15  1  0  0  0  0
 14 16  1  0  0  0  0
 14 17  1  0  0  0  0
 17 18  1  0  0  0  0
 17 19  1  0  0  0  0
 17 20  1  0  0  0  0
 20 21  1  0  0  0  0
 20 22  2  0  0  0  0
 22 23  1  0  0  0  0
 22 26  1  0  0  0  0
 23 24  1  0  0  0  0
 23 25  1  0  0  0  0
 26 27  1  0  0  0  0
 26 28  1  0  0  0  0
 29 30  2  0  0  0  0
 29 31  1  0  0  0  0
 31 32  1  0  0  0  0
 31 33  1  0  0  0  0
 33 34  1  0  0  0  0
 33 35  1  0  0  0  0
 33 36  1  0  0  0  0
M  CHG  1  20   1
M  END
$$$$

  -OEChem-02172215453D

 36 35  0     1  0  0  0  0  0999 V2000
   -3.7644   -2.2268    0.7797 H   0  0  0  0  0  0  0  0  0  0  0  0
   -3.7635   -1.2294    0.3309 C   0  0  0  0  0  0  0  0  0  0  0  0
   -4.7457   -0.7747    0.4773 H   0  0  0  0  0  0  0  0  0  0  0  0
   -3.5688   -1.3308   -0.7398 H   0  0  0  0  0  0  0  0  0  0  0  0
   -2.6880   -0.3721    0.9702 C   0  0  0  0  0  0  0  0  0  0  0  0
   -2.0931   -0.7960    1.9476 O   0  0  0  0  0  0  0  0  0  0  0  0
   -2.4748    0.9127    0.4914 N   0  0  0  0  0  0  0  0  0  0  0  0
   -3.0214    1.0965   -0.3459 H   0  0  0  0  0  0  0  0  0  0  0  0
   -1.1749    1.6262    0.5420 C   0  0  1  0  0  0  0  0  0  0  0  0
   -1.3079    2.5893    0.0405 H   0  0  0  0  0  0  0  0  0  0  0  0
   -0.7033    1.9012    1.9906 C   0  0  0  0  0  0  0  0  0  0  0  0
   -0.6189    0.9777    2.5676 H   0  0  0  0  0  0  0  0  0  0  0  0
    0.3024    2.3326    1.9560 H   0  0  0  0  0  0  0  0  0  0  0  0
   -1.6208    2.8971    2.7073 C   0  0  0  0  0  0  0  0  0  0  0  0
   -1.6485    3.8441    2.1580 H   0  0  0  0  0  0  0  0  0  0  0  0
   -2.6378    2.4913    2.7454 H   0  0  0  0  0  0  0  0  0  0  0  0
   -1.1040    3.1230    4.1261 C   0  0  0  0  0  0  0  0  0  0  0  0
   -1.0728    2.1593    4.6474 H   0  0  0  0  0  0  0  0  0  0  0  0
   -0.0856    3.5249    4.0790 H   0  0  0  0  0  0  0  0  0  0  0  0
   -1.9847    4.0599    4.8467 N   0  3  0  0  0  0  0  0  0  0  0  0
   -2.7614    4.4630    4.3248 H   0  0  0  0  0  0  0  0  0  0  0  0
   -1.8144    4.3887    6.0950 C   0  0  0  0  0  0  0  0  0  0  0  0
   -0.7789    3.8736    6.8424 N   0  0  0  0  0  0  0  0  0  0  0  0
   -0.2453    3.0972    6.4558 H   0  0  0  0  0  0  0  0  0  0  0  0
   -0.7748    4.0107    7.8508 H   0  0  0  0  0  0  0  0  0  0  0  0
   -2.6826    5.2760    6.6865 N   0  0  0  0  0  0  0  0  0  0  0  0
   -3.5131    5.5875    6.1866 H   0  0  0  0  0  0  0  0  0  0  0  0
   -2.5910    5.4929    7.6772 H   0  0  0  0  0  0  0  0  0  0  0  0
   -0.0530    0.8846   -0.2369 C   0  0  0  0  0  0  0  0  0  0  0  0
   -0.2606   -0.1973   -0.7705 O   0  0  0  0  0  0  0  0  0  0  0  0
    1.1225    1.5456   -0.5535 N   0  0  0  0  0  0  0  0  0  0  0  0
    1.2609    2.4800   -0.1824 H   0  0  0  0  0  0  0  0  0  0  0  0
    2.1582    0.9700   -1.4077 C   0  0  0  0  0  0  0  0  0  0  0  0
    1.7644    0.7768   -2.4113 H   0  0  0  0  0  0  0  0  0  0  0  0
    3.0051    1.6575   -1.4960 H   0  0  0  0  0  0  0  0  0  0  0  0
    2.5224    0.0265   -0.9870 H   0  0  0  0  0  0  0  0  0  0  0  0
  1  2  1  0  0  0  0
  2  3  1  0  0  0  0
  2  4  1  0  0  0  0
  2  5  1  0  0  0  0
  5  6  2  0  0  0  0
  5  7  1  0  0  0  0
  7  8  1  0  0  0  0
  7  9  1  0  0  0  0
  9 10  1  0  0  0  0
  9 11  1  0  0  0  0
  9 29  1  0  0  0  0
 11 12  1  0  0  0  0
 11 13  1  0  0  0  0
 11 14  1  0  0  0  0
 14 15  1  0  0  0  0
 14 16  1  0  0  0  0
 14 17  1  0  0  0  0
 17 18  1  0  0  0  0
 17 19  1  0  0  0  0
 17 20  1  0  0  0  0
 20 21  1  0  0  0  0
 20 22  2  0  0  0  0
 22 23  1  0  0  0  0
 22 26  1  0  0  0  0
 23 24  1  0  0  0  0
 23 25  1  0  0  0  0
 26 27  1  0  0  0  0
 26 28  1  0  0  0  0
 29 30  2  0  0  0  0
 29 31  1  0  0  0  0
 31 32  1  0  0  0  0
 31 33  1  0  0  0  0
 33 34  1  0  0  0  0
 33 35  1  0  0  0  0
 33 36  1  0  0  0  0
M  CHG  1  20   1
M  END
$$$$

  -OEChem-02172215453D

 36 35  0     1  0  0  0  0  0999 V2000
   -3.8175   -2.1921    0.6056 H   0  0  0  0  0  0  0  0  0  0  0  0
   -3.7810   -1.1742    0.2076 C   0  0  0  0  0  0  0  0  0  0  0  0
   -4.7564   -0.7037    0.3504 H   0  0  0  0  0  0  0  0  0  0  0  0
   -3.5589   -1.2263   -0.8616 H   0  0  0  0  0  0  0  0  0  0  0  0
   -2.7066   -0.3728    0.9168 C   0  0  0  0  0  0  0  0  0  0  0  0
   -2.1489   -0.8611    1.8862 O   0  0  0  0  0  0  0  0  0  0  0  0
   -2.4561    0.9234    0.4943 N   0  0  0  0  0  0  0  0  0  0  0  0
   -2.9805    1.1401   -0.3508 H   0  0  0  0  0  0  0  0  0  0  0  0
   -1.1576    1.6382    0.5784 C   0  0  1  0  0  0  0  0  0  0  0  0
   -1.3417    2.6906    0.3427 H   0  0  0  0  0  0  0  0  0  0  0  0
   -0.4828    1.5789    1.9719 C   0  0  0  0  0  0  0  0  0  0  0  0
   -0.2948    0.5512    2.2900 H   0  0  0  0  0  0  0  0  0  0  0  0
    0.4993    2.0573    1.9077 H   0  0  0  0  0  0  0  0  0  0  0  0
   -1.2973    2.3455    3.0190 C   0  0  0  0  0  0  0  0  0  0  0  0
   -1.4063    3.3921    2.7159 H   0  0  0  0  0  0  0  0  0  0  0  0
   -2.2973    1.9034    3.0938 H   0  0  0  0  0  0  0  0  0  0  0  0
   -0.5964    2.2574    4.3718 C   0  0  0  0  0  0  0  0  0  0  0  0
   -0.4911    1.2012    4.6453 H   0  0  0  0  0  0  0  0  0  0  0  0
    0.4038    2.6970    4.2900 H   0  0  0  0  0  0  0  0  0  0  0  0
   -1.3823    2.9705    5.3949 N   0  3  0  0  0  0  0  0  0  0  0  0
   -2.2452    3.4177    5.0884 H   0  0  0  0  0  0  0  0  0  0  0  0
   -1.0541    3.0125    6.6539 C   0  0  0  0  0  0  0  0  0  0  0  0
    0.0729    2.3822    7.1309 N   0  0  0  0  0  0  0  0  0  0  0  0
    0.5463    1.7292    6.5094 H   0  0  0  0  0  0  0  0  0  0  0  0
    0.1526    2.2250    8.1336 H   0  0  0  0  0  0  0  0  0  0  0  0
   -1.8525    3.6951    7.5409 N   0  0  0  0  0  0  0  0  0  0  0  0
   -2.5898    4.2966    7.1783 H   0  0  0  0  0  0  0  0  0  0  0  0
   -1.4930    3.8869    8.4745 H   0  0  0  0  0  0  0  0  0  0  0  0
   -0.1854    1.1084   -0.5115 C   0  0  0  0  0  0  0  0  0  0  0  0
   -0.5859    0.3266   -1.3655 O   0  0  0  0  0  0  0  0  0  0  0  0
    1.0961    1.6176   -0.6404 N   0  0  0  0  0  0  0  0  0  0  0  0
    1.4092    2.3029    0.0392 H   0  0  0  0  0  0  0  0  0  0  0  0
    2.0115    1.2167   -1.7055 C   0  0  0  0  0  0  0  0  0  0  0  0
    1.5943    1.4702   -2.6860 H   0  0  0  0  0  0  0  0  0  0  0  0
    2.9715    1.7305   -1.5962 H   0  0  0  0  0  0  0  0  0  0  0  0
    2.1924    0.1369   -1.6704 H   0  0  0  0  0  0  0  0  0  0  0  0
  1  2  1  0  0  0  0
  2  3  1  0  0  0  0
  2  4  1  0  0  0  0
  2  5  1  0  0  0  0
  5  6  2  0  0  0  0
  5  7  1  0  0  0  0
  7  8  1  0  0  0  0
  7  9  1  0  0  0  0
  9 10  1  0  0  0  0
  9 11  1  0  0  0  0
  9 29  1  0  0  0  0
 11 12  1  0  0  0  0
 11 13  1  0  0  0  0
 11 14  1  0  0  0  0
 14 15  1  0  0  0  0
 14 16  1  0  0  0  0
 14 17  1  0  0  0  0
 17 18  1  0  0  0  0
 17 19  1  0  0  0  0
 17 20  1  0  0  0  0
 20 21  1  0  0  0  0
 20 22  2  0  0  0  0
 22 23  1  0  0  0  0
 22 26  1  0  0  0  0
 23 24  1  0  0  0  0
 23 25  1  0  0  0  0
 26 27  1  0  0  0  0
 26 28  1  0  0  0  0
 29 30  2  0  0  0  0
 29 31  1  0  0  0  0
 31 32  1  0  0  0  0
 31 33  1  0  0  0  0
 33 34  1  0  0  0  0
 33 35  1  0  0  0  0
 33 36  1  0  0  0  0
M  CHG  1  20   1
M  END
$$$$

  -OEChem-02172215453D

 36 35  0     1  0  0  0  0  0999 V2000
   -3.8311   -2.1813    0.6156 H   0  0  0  0  0  0  0  0  0  0  0  0
   -3.7891   -1.1579    0.2320 C   0  0  0  0  0  0  0  0  0  0  0  0
   -4.7438   -0.6663    0.4319 H   0  0  0  0  0  0  0  0  0  0  0  0
   -3.6247   -1.1965   -0.8480 H   0  0  0  0  0  0  0  0  0  0  0  0
   -2.6594   -0.3946    0.8963 C   0  0  0  0  0  0  0  0  0  0  0  0
   -2.0268   -0.9343    1.7888 O   0  0  0  0  0  0  0  0  0  0  0  0
   -2.4193    0.9124    0.5036 N   0  0  0  0  0  0  0  0  0  0  0  0
   -2.9694    1.1636   -0.3157 H   0  0  0  0  0  0  0  0  0  0  0  0
   -1.1269    1.6355    0.5949 C   0  0  1  0  0  0  0  0  0  0  0  0
   -1.3184    2.6887    0.3674 H   0  0  0  0  0  0  0  0  0  0  0  0
   -0.4592    1.5794    1.9930 C   0  0  0  0  0  0  0  0  0  0  0  0
   -0.2654    0.5539    2.3142 H   0  0  0  0  0  0  0  0  0  0  0  0
    0.5173    2.0694    1.9372 H   0  0  0  0  0  0  0  0  0  0  0  0
   -1.2876    2.3404    3.0335 C   0  0  0  0  0  0  0  0  0  0  0  0
   -1.4009    3.3863    2.7288 H   0  0  0  0  0  0  0  0  0  0  0  0
   -2.2851    1.8918    3.1002 H   0  0  0  0  0  0  0  0  0  0  0  0
   -0.5987    2.2600    4.3932 C   0  0  0  0  0  0  0  0  0  0  0  0
   -0.4869    1.2055    4.6698 H   0  0  0  0  0  0  0  0  0  0  0  0
    0.3983    2.7082    4.3203 H   0  0  0  0  0  0  0  0  0  0  0  0
   -1.4014    2.9688    5.4063 N   0  3  0  0  0  0  0  0  0  0  0  0
   -2.2644    3.4084    5.0894 H   0  0  0  0  0  0  0  0  0  0  0  0
   -1.0874    3.0170    6.6687 C   0  0  0  0  0  0  0  0  0  0  0  0
    0.0395    2.3980    7.1595 N   0  0  0  0  0  0  0  0  0  0  0  0
    0.5269    1.7499    6.5438 H   0  0  0  0  0  0  0  0  0  0  0  0
    0.1095    2.2440    8.1633 H   0  0  0  0  0  0  0  0  0  0  0  0
   -1.8998    3.6959    7.5452 N   0  0  0  0  0  0  0  0  0  0  0  0
   -2.6376    4.2904    7.1727 H   0  0  0  0  0  0  0  0  0  0  0  0
   -1.5476    3.8985    8.4791 H   0  0  0  0  0  0  0  0  0  0  0  0
   -0.1709    1.1265   -0.5198 C   0  0  0  0  0  0  0  0  0  0  0  0
   -0.6408    0.5804   -1.5110 O   0  0  0  0  0  0  0  0  0  0  0  0
    1.1893    1.3873   -0.5002 N   0  0  0  0  0  0  0  0  0  0  0  0
    1.5774    1.8345    0.3236 H   0  0  0  0  0  0  0  0  0  0  0  0
    2.1002    0.9502   -1.5547 C   0  0  0  0  0  0  0  0  0  0  0  0
    1.8231    1.4019   -2.5134 H   0  0  0  0  0  0  0  0  0  0  0  0
    3.1268    1.2466   -1.3183 H   0  0  0  0  0  0  0  0  0  0  0  0
    2.0715   -0.1398   -1.6600 H   0  0  0  0  0  0  0  0  0  0  0  0
  1  2  1  0  0  0  0
  2  3  1  0  0  0  0
  2  4  1  0  0  0  0
  2  5  1  0  0  0  0
  5  6  2  0  0  0  0
  5  7  1  0  0  0  0
  7  8  1  0  0  0  0
  7  9  1  0  0  0  0
  9 10  1  0  0  0  0
  9 11  1  0  0  0  0
  9 29  1  0  0  0  0
 11 12  1  0  0  0  0
 11 13  1  0  0  0  0
 11 14  1  0  0  0  0
 14 15  1  0  0  0  0
 14 16  1  0  0  0  0
 14 17  1  0  0  0  0
 17 18  1  0  0  0  0
 17 19  1  0  0  0  0
 17 20  1  0  0  0  0
 20 21  1  0  0  0  0
 20 22  2  0  0  0  0
 22 23  1  0  0  0  0
 22 26  1  0  0  0  0
 23 24  1  0  0  0  0
 23 25  1  0  0  0  0
 26 27  1  0  0  0  0
 26 28  1  0  0  0  0
 29 30  2  0  0  0  0
 29 31  1  0  0  0  0
 31 32  1  0  0  0  0
 31 33  1  0  0  0  0
 33 34  1  0  0  0  0
 33 35  1  0  0  0  0
 33 36  1  0  0  0  0
M  CHG  1  20   1
M  END
$$$$

  -OEChem-02172215453D

 36 35  0     1  0  0  0  0  0999 V2000
   -3.8333   -2.1737    0.6280 H   0  0  0  0  0  0  0  0  0  0  0  0
   -3.7962   -1.1436    0.2622 C   0  0  0  0  0  0  0  0  0  0  0  0
   -4.7289   -0.6410    0.5279 H   0  0  0  0  0  0  0  0  0  0  0  0
   -3.6973   -1.1631   -0.8262 H   0  0  0  0  0  0  0  0  0  0  0  0
   -2.6160   -0.4130    0.8730 C   0  0  0  0  0  0  0  0  0  0  0  0
   -1.9194   -0.9931    1.6890 O   0  0  0  0  0  0  0  0  0  0  0  0
   -2.3822    0.9016    0.5048 N   0  0  0  0  0  0  0  0  0  0  0  0
   -2.9556    1.1869   -0.2872 H   0  0  0  0  0  0  0  0  0  0  0  0
   -1.0944    1.6276    0.6095 C   0  0  1  0  0  0  0  0  0  0  0  0
   -1.2888    2.6811    0.3857 H   0  0  0  0  0  0  0  0  0  0  0  0
   -0.4395    1.5776    2.0140 C   0  0  0  0  0  0  0  0  0  0  0  0
   -0.2500    0.5541    2.3433 H   0  0  0  0  0  0  0  0  0  0  0  0
    0.5360    2.0714    1.9632 H   0  0  0  0  0  0  0  0  0  0  0  0
   -1.2816    2.3401    3.0430 C   0  0  0  0  0  0  0  0  0  0  0  0
   -1.3940    3.3848    2.7329 H   0  0  0  0  0  0  0  0  0  0  0  0
   -2.2792    1.8901    3.1000 H   0  0  0  0  0  0  0  0  0  0  0  0
   -0.6066    2.2668    4.4104 C   0  0  0  0  0  0  0  0  0  0  0  0
   -0.4950    1.2137    4.6922 H   0  0  0  0  0  0  0  0  0  0  0  0
    0.3900    2.7173    4.3459 H   0  0  0  0  0  0  0  0  0  0  0  0
   -1.4203    2.9758    5.4145 N   0  3  0  0  0  0  0  0  0  0  0  0
   -2.2807    3.4145    5.0893 H   0  0  0  0  0  0  0  0  0  0  0  0
   -1.1166    3.0274    6.6793 C   0  0  0  0  0  0  0  0  0  0  0  0
    0.0084    2.4121    7.1799 N   0  0  0  0  0  0  0  0  0  0  0  0
    0.5070    1.7684    6.5686 H   0  0  0  0  0  0  0  0  0  0  0  0
    0.0744    2.2623    8.1847 H   0  0  0  0  0  0  0  0  0  0  0  0
   -1.9410    3.7017    7.5483 N   0  0  0  0  0  0  0  0  0  0  0  0
   -2.6783    4.2929    7.1695 H   0  0  0  0  0  0  0  0  0  0  0  0
   -1.6012    3.9024    8.4872 H   0  0  0  0  0  0  0  0  0  0  0  0
   -0.1477    1.1342   -0.5177 C   0  0  0  0  0  0  0  0  0  0  0  0
   -0.6321    0.8450   -1.6051 O   0  0  0  0  0  0  0  0  0  0  0  0
    1.2302    1.1121   -0.3824 N   0  0  0  0  0  0  0  0  0  0  0  0
    1.6141    1.2683    0.5433 H   0  0  0  0  0  0  0  0  0  0  0  0
    2.1240    0.6446   -1.4382 C   0  0  0  0  0  0  0  0  0  0  0  0
    1.9995    1.2493   -2.3431 H   0  0  0  0  0  0  0  0  0  0  0  0
    3.1671    0.7208   -1.1159 H   0  0  0  0  0  0  0  0  0  0  0  0
    1.9133   -0.4018   -1.6840 H   0  0  0  0  0  0  0  0  0  0  0  0
  1  2  1  0  0  0  0
  2  3  1  0  0  0  0
  2  4  1  0  0  0  0
  2  5  1  0  0  0  0
  5  6  2  0  0  0  0
  5  7  1  0  0  0  0
  7  8  1  0  0  0  0
  7  9  1  0  0  0  0
  9 10  1  0  0  0  0
  9 11  1  0  0  0  0
  9 29  1  0  0  0  0
 11 12  1  0  0  0  0
 11 13  1  0  0  0  0
 11 14  1  0  0  0  0
 14 15  1  0  0  0  0
 14 16  1  0  0  0  0
 14 17  1  0  0  0  0
 17 18  1  0  0  0  0
 17 19  1  0  0  0  0
 17 20  1  0  0  0  0
 20 21  1  0  0  0  0
 20 22  2  0  0  0  0
 22 23  1  0  0  0  0
 22 26  1  0  0  0  0
 23 24  1  0  0  0  0
 23 25  1  0  0  0  0
 26 27  1  0  0  0  0
 26 28  1  0  0  0  0
 29 30  2  0  0  0  0
 29 31  1  0  0  0  0
 31 32  1  0  0  0  0
 31 33  1  0  0  0  0
 33 34  1  0  0  0  0
 33 35  1  0  0  0  0
 33 36  1  0  0  0  0
M  CHG  1  20   1
M  END
$$$$

  -OEChem-02172215453D

 36 35  0     1  0  0  0  0  0999 V2000
   -3.8419   -2.1732    0.6249 H   0  0  0  0  0  0  0  0  0  0  0  0
   -3.8123   -1.1339    0.2850 C   0  0  0  0  0  0  0  0  0  0  0  0
   -4.7223   -0.6282    0.6157 H   0  0  0  0  0  0  0  0  0  0  0  0
   -3.7747   -1.1244   -0.8073 H   0  0  0  0  0  0  0  0  0  0  0  0
   -2.5913   -0.4326    0.8490 C   0  0  0  0  0  0  0  0  0  0  0  0
   -1.8453   -1.0443    1.5952 O   0  0  0  0  0  0  0  0  0  0  0  0
   -2.3587    0.8876    0.5040 N   0  0  0  0  0  0  0  0  0  0  0  0
   -2.9577    1.2114   -0.2534 H   0  0  0  0  0  0  0  0  0  0  0  0
   -1.0723    1.6095    0.6229 C   0  0  1  0  0  0  0  0  0  0  0  0
   -1.2687    2.6642    0.4063 H   0  0  0  0  0  0  0  0  0  0  0  0
   -0.4216    1.5617    2.0290 C   0  0  0  0  0  0  0  0  0  0  0  0
   -0.2417    0.5383    2.3639 H   0  0  0  0  0  0  0  0  0  0  0  0
    0.5569    2.0504    1.9777 H   0  0  0  0  0  0  0  0  0  0  0  0
   -1.2674    2.3271    3.0520 C   0  0  0  0  0  0  0  0  0  0  0  0
   -1.3789    3.3701    2.7370 H   0  0  0  0  0  0  0  0  0  0  0  0
   -2.2650    1.8770    3.1052 H   0  0  0  0  0  0  0  0  0  0  0  0
   -0.6022    2.2611    4.4247 C   0  0  0  0  0  0  0  0  0  0  0  0
   -0.4902    1.2102    4.7142 H   0  0  0  0  0  0  0  0  0  0  0  0
    0.3938    2.7142    4.3651 H   0  0  0  0  0  0  0  0  0  0  0  0
   -1.4264    2.9761    5.4161 N   0  3  0  0  0  0  0  0  0  0  0  0
   -2.2783    3.4204    5.0766 H   0  0  0  0  0  0  0  0  0  0  0  0
   -1.1374    3.0381    6.6840 C   0  0  0  0  0  0  0  0  0  0  0  0
   -0.0181    2.4288    7.2033 N   0  0  0  0  0  0  0  0  0  0  0  0
    0.4870    1.7784    6.6049 H   0  0  0  0  0  0  0  0  0  0  0  0
    0.0390    2.2932    8.2106 H   0  0  0  0  0  0  0  0  0  0  0  0
   -1.9688    3.7239    7.5371 N   0  0  0  0  0  0  0  0  0  0  0  0
   -2.6993    4.3138    7.1437 H   0  0  0  0  0  0  0  0  0  0  0  0
   -1.6357    3.9373    8.4755 H   0  0  0  0  0  0  0  0  0  0  0  0
   -0.1273    1.1350   -0.5092 C   0  0  0  0  0  0  0  0  0  0  0  0
   -0.5674    1.0986   -1.6511 O   0  0  0  0  0  0  0  0  0  0  0  0
    1.2030    0.8194   -0.2923 N   0  0  0  0  0  0  0  0  0  0  0  0
    1.5013    0.7094    0.6716 H   0  0  0  0  0  0  0  0  0  0  0  0
    2.0815    0.3322   -1.3515 C   0  0  0  0  0  0  0  0  0  0  0  0
    2.1299    1.0550   -2.1733 H   0  0  0  0  0  0  0  0  0  0  0  0
    3.0951    0.1833   -0.9661 H   0  0  0  0  0  0  0  0  0  0  0  0
    1.7151   -0.6222   -1.7447 H   0  0  0  0  0  0  0  0  0  0  0  0
  1  2  1  0  0  0  0
  2  3  1  0  0  0  0
  2  4  1  0  0  0  0
  2  5  1  0  0  0  0
  5  6  2  0  0  0  0
  5  7  1  0  0  0  0
  7  8  1  0  0  0  0
  7  9  1  0  0  0  0
  9 10  1  0  0  0  0
  9 11  1  0  0  0  0
  9 29  1  0  0  0  0
 11 12  1  0  0  0  0
 11 13  1  0  0  0  0
 11 14  1  0  0  0  0
 14 15  1  0  0  0  0
 14 16  1  0  0  0  0
 14 17  1  0  0  0  0
 17 18  1  0  0  0  0
 17 19  1  0  0  0  0
 17 20  1  0  0  0  0
 20 21  1  0  0  0  0
 20 22  2  0  0  0  0
 22 23  1  0  0  0  0
 22 26  1  0  0  0  0
 23 24  1  0  0  0  0
 23 25  1  0  0  0  0
 26 27  1  0  0  0  0
 26 28  1  0  0  0  0
 29 30  2  0  0  0  0
 29 31  1  0  0  0  0
 31 32  1  0  0  0  0
 31 33  1  0  0  0  0
 33 34  1  0  0  0  0
 33 35  1  0  0  0  0
 33 36  1  0  0  0  0
M  CHG  1  20   1
M  END
$$$$

  -OEChem-02172215453D

 36 35  0     1  0  0  0  0  0999 V2000
   -3.8648   -2.1646    0.6634 H   0  0  0  0  0  0  0  0  0  0  0  0
   -3.8334   -1.1256    0.3230 C   0  0  0  0  0  0  0  0  0  0  0  0
   -4.7186   -0.6053    0.6963 H   0  0  0  0  0  0  0  0  0  0  0  0
   -3.8469   -1.1148   -0.7698 H   0  0  0  0  0  0  0  0  0  0  0  0
   -2.5761   -0.4454    0.8307 C   0  0  0  0  0  0  0  0  0  0  0  0
   -1.7914   -1.0773    1.5183 O   0  0  0  0  0  0  0  0  0  0  0  0
   -2.3427    0.8760    0.4913 N   0  0  0  0  0  0  0  0  0  0  0  0
   -2.9675    1.2298   -0.2311 H   0  0  0  0  0  0  0  0  0  0  0  0
   -1.0586    1.5969    0.6216 C   0  0  1  0  0  0  0  0  0  0  0  0
   -1.2556    2.6516    0.4042 H   0  0  0  0  0  0  0  0  0  0  0  0
   -0.4173    1.5548    2.0316 C   0  0  0  0  0  0  0  0  0  0  0  0
   -0.2462    0.5320    2.3733 H   0  0  0  0  0  0  0  0  0  0  0  0
    0.5652    2.0370    1.9798 H   0  0  0  0  0  0  0  0  0  0  0  0
   -1.2677    2.3238    3.0485 C   0  0  0  0  0  0  0  0  0  0  0  0
   -1.3764    3.3664    2.7300 H   0  0  0  0  0  0  0  0  0  0  0  0
   -2.2660    1.8750    3.0988 H   0  0  0  0  0  0  0  0  0  0  0  0
   -0.6067    2.2603    4.4234 C   0  0  0  0  0  0  0  0  0  0  0  0
   -0.4970    1.2098    4.7158 H   0  0  0  0  0  0  0  0  0  0  0  0
    0.3905    2.7110    4.3660 H   0  0  0  0  0  0  0  0  0  0  0  0
   -1.4327    2.9780    5.4115 N   0  3  0  0  0  0  0  0  0  0  0  0
   -2.2806    3.4276    5.0689 H   0  0  0  0  0  0  0  0  0  0  0  0
   -1.1459    3.0415    6.6795 C   0  0  0  0  0  0  0  0  0  0  0  0
   -0.0279    2.4315    7.2012 N   0  0  0  0  0  0  0  0  0  0  0  0
    0.4849    1.7875    6.6023 H   0  0  0  0  0  0  0  0  0  0  0  0
    0.0296    2.2965    8.2086 H   0  0  0  0  0  0  0  0  0  0  0  0
   -1.9784    3.7295    7.5296 N   0  0  0  0  0  0  0  0  0  0  0  0
   -2.7049    4.3225    7.1328 H   0  0  0  0  0  0  0  0  0  0  0  0
   -1.6469    3.9431    8.4686 H   0  0  0  0  0  0  0  0  0  0  0  0
   -0.1031    1.1301   -0.5007 C   0  0  0  0  0  0  0  0  0  0  0  0
   -0.4402    1.3225   -1.6610 O   0  0  0  0  0  0  0  0  0  0  0  0
    1.1172    0.5340   -0.2360 N   0  0  0  0  0  0  0  0  0  0  0  0
    1.2657    0.2055    0.7136 H   0  0  0  0  0  0  0  0  0  0  0  0
    1.9846    0.0167   -1.2896 C   0  0  0  0  0  0  0  0  0  0  0  0
    2.2436    0.8108   -1.9984 H   0  0  0  0  0  0  0  0  0  0  0  0
    2.9121   -0.3744   -0.8600 H   0  0  0  0  0  0  0  0  0  0  0  0
    1.4864   -0.7917   -1.8354 H   0  0  0  0  0  0  0  0  0  0  0  0
  1  2  1  0  0  0  0
  2  3  1  0  0  0  0
  2  4  1  0  0  0  0
  2  5  1  0  0  0  0
  5  6  2  0  0  0  0
  5  7  1  0  0  0  0
  7  8  1  0  0  0  0
  7  9  1  0  0  0  0
  9 10  1  0  0  0  0
  9 11  1  0  0  0  0
  9 29  1  0  0  0  0
 11 12  1  0  0  0  0
 11 13  1  0  0  0  0
 11 14  1  0  0  0  0
 14 15  1  0  0  0  0
 14 16  1  0  0  0  0
 14 17  1  0  0  0  0
 17 18  1  0  0  0  0
 17 19  1  0  0  0  0
 17 20  1  0  0  0  0
 20 21  1  0  0  0  0
 20 22  2  0  0  0  0
 22 23  1  0  0  0  0
 22 26  1  0  0  0  0
 23 24  1  0  0  0  0
 23 25  1  0  0  0  0
 26 27  1  0  0  0  0
 26 28  1  0  0  0  0
 29 30  2  0  0  0  0
 29 31  1  0  0  0  0
 31 32  1  0  0  0  0
 31 33  1  0  0  0  0
 33 34  1  0  0  0  0
 33 35  1  0  0  0  0
 33 36  1  0  0  0  0
M  CHG  1  20   1
M  END
$$$$

  -OEChem-02172215453D

 36 35  0     1  0  0  0  0  0999 V2000
   -3.8930   -2.1603    0.7010 H   0  0  0  0  0  0  0  0  0  0  0  0
   -3.8618   -1.1223    0.3578 C   0  0  0  0  0  0  0  0  0  0  0  0
   -4.7236   -0.5906    0.7682 H   0  0  0  0  0  0  0  0  0  0  0  0
   -3.9221   -1.1133   -0.7336 H   0  0  0  0  0  0  0  0  0  0  0  0
   -2.5749   -0.4593    0.8110 C   0  0  0  0  0  0  0  0  0  0  0  0
   -1.7551   -1.1083    1.4401 O   0  0  0  0  0  0  0  0  0  0  0  0
   -2.3391    0.8617    0.4729 N   0  0  0  0  0  0  0  0  0  0  0  0
   -2.9928    1.2476   -0.2061 H   0  0  0  0  0  0  0  0  0  0  0  0
   -1.0554    1.5785    0.6157 C   0  0  1  0  0  0  0  0  0  0  0  0
   -1.2528    2.6330    0.3966 H   0  0  0  0  0  0  0  0  0  0  0  0
   -0.4224    1.5427    2.0288 C   0  0  0  0  0  0  0  0  0  0  0  0
   -0.2619    0.5202    2.3773 H   0  0  0  0  0  0  0  0  0  0  0  0
    0.5649    2.0151    1.9768 H   0  0  0  0  0  0  0  0  0  0  0  0
   -1.2728    2.3180    3.0402 C   0  0  0  0  0  0  0  0  0  0  0  0
   -1.3751    3.3601    2.7185 H   0  0  0  0  0  0  0  0  0  0  0  0
   -2.2732    1.8739    3.0901 H   0  0  0  0  0  0  0  0  0  0  0  0
   -0.6118    2.2556    4.4153 C   0  0  0  0  0  0  0  0  0  0  0  0
   -0.5047    1.2056    4.7099 H   0  0  0  0  0  0  0  0  0  0  0  0
    0.3866    2.7031    4.3551 H   0  0  0  0  0  0  0  0  0  0  0  0
   -1.4331    2.9783    5.4033 N   0  3  0  0  0  0  0  0  0  0  0  0
   -2.2802    3.4297    5.0613 H   0  0  0  0  0  0  0  0  0  0  0  0
   -1.1435    3.0429    6.6709 C   0  0  0  0  0  0  0  0  0  0  0  0
   -0.0269    2.4295    7.1921 N   0  0  0  0  0  0  0  0  0  0  0  0
    0.4864    1.7863    6.5927 H   0  0  0  0  0  0  0  0  0  0  0  0
    0.0327    2.2963    8.1997 H   0  0  0  0  0  0  0  0  0  0  0  0
   -1.9692    3.7398    7.5204 N   0  0  0  0  0  0  0  0  0  0  0  0
   -2.6857    4.3433    7.1216 H   0  0  0  0  0  0  0  0  0  0  0  0
   -1.6322    3.9546    8.4572 H   0  0  0  0  0  0  0  0  0  0  0  0
   -0.0833    1.1166   -0.4909 C   0  0  0  0  0  0  0  0  0  0  0  0
   -0.2531    1.5357   -1.6270 O   0  0  0  0  0  0  0  0  0  0  0  0
    0.9703    0.2620   -0.2217 N   0  0  0  0  0  0  0  0  0  0  0  0
    0.9176   -0.2456    0.6584 H   0  0  0  0  0  0  0  0  0  0  0  0
    1.8371   -0.2663   -1.2699 C   0  0  0  0  0  0  0  0  0  0  0  0
    2.3091    0.5506   -1.8266 H   0  0  0  0  0  0  0  0  0  0  0  0
    2.6281   -0.8841   -0.8332 H   0  0  0  0  0  0  0  0  0  0  0  0
    1.2619   -0.8814   -1.9702 H   0  0  0  0  0  0  0  0  0  0  0  0
  1  2  1  0  0  0  0
  2  3  1  0  0  0  0
  2  4  1  0  0  0  0
  2  5  1  0  0  0  0
  5  6  2  0  0  0  0
  5  7  1  0  0  0  0
  7  8  1  0  0  0  0
  7  9  1  0  0  0  0
  9 10  1  0  0  0  0
  9 11  1  0  0  0  0
  9 29  1  0  0  0  0
 11 12  1  0  0  0  0
 11 13  1  0  0  0  0
 11 14  1  0  0  0  0
 14 15  1  0  0  0  0
 14 16  1  0  0  0  0
 14 17  1  0  0  0  0
 17 18  1  0  0  0  0
 17 19  1  0  0  0  0
 17 20  1  0  0  0  0
 20 21  1  0  0  0  0
 20 22  2  0  0  0  0
 22 23  1  0  0  0  0
 22 26  1  0  0  0  0
 23 24  1  0  0  0  0
 23 25  1  0  0  0  0
 26 27  1  0  0  0  0
 26 28  1  0  0  0  0
 29 30  2  0  0  0  0
 29 31  1  0  0  0  0
 31 32  1  0  0  0  0
 31 33  1  0  0  0  0
 33 34  1  0  0  0  0
 33 35  1  0  0  0  0
 33 36  1  0  0  0  0
M  CHG  1  20   1
M  END
$$$$

  -OEChem-02172215453D

 36 35  0     1  0  0  0  0  0999 V2000
   -3.9285   -2.1452    0.7644 H   0  0  0  0  0  0  0  0  0  0  0  0
   -3.8985   -1.1103    0.4122 C   0  0  0  0  0  0  0  0  0  0  0  0
   -4.7311   -0.5628    0.8598 H   0  0  0  0  0  0  0  0  0  0  0  0
   -4.0118   -1.1078   -0.6748 H   0  0  0  0  0  0  0  0  0  0  0  0
   -2.5815   -0.4643    0.7978 C   0  0  0  0  0  0  0  0  0  0  0  0
   -1.7324   -1.1254    1.3743 O   0  0  0  0  0  0  0  0  0  0  0  0
   -2.3422    0.8524    0.4459 N   0  0  0  0  0  0  0  0  0  0  0  0
   -3.0265    1.2634   -0.1864 H   0  0  0  0  0  0  0  0  0  0  0  0
   -1.0607    1.5721    0.5940 C   0  0  1  0  0  0  0  0  0  0  0  0
   -1.2578    2.6256    0.3685 H   0  0  0  0  0  0  0  0  0  0  0  0
   -0.4310    1.5408    2.0074 C   0  0  0  0  0  0  0  0  0  0  0  0
   -0.2688    0.5184    2.3563 H   0  0  0  0  0  0  0  0  0  0  0  0
    0.5558    2.0139    1.9522 H   0  0  0  0  0  0  0  0  0  0  0  0
   -1.2812    2.3141    3.0203 C   0  0  0  0  0  0  0  0  0  0  0  0
   -1.3857    3.3564    2.6992 H   0  0  0  0  0  0  0  0  0  0  0  0
   -2.2805    1.8684    3.0721 H   0  0  0  0  0  0  0  0  0  0  0  0
   -0.6155    2.2506    4.3932 C   0  0  0  0  0  0  0  0  0  0  0  0
   -0.5051    1.2003    4.6852 H   0  0  0  0  0  0  0  0  0  0  0  0
    0.3822    2.6995    4.3297 H   0  0  0  0  0  0  0  0  0  0  0  0
   -1.4325    2.9699    5.3874 N   0  3  0  0  0  0  0  0  0  0  0  0
   -2.2797    3.4252    5.0509 H   0  0  0  0  0  0  0  0  0  0  0  0
   -1.1357    3.0307    6.6535 C   0  0  0  0  0  0  0  0  0  0  0  0
   -0.0157    2.4168    7.1665 N   0  0  0  0  0  0  0  0  0  0  0  0
    0.5006    1.7823    6.5604 H   0  0  0  0  0  0  0  0  0  0  0  0
    0.0495    2.2786    8.1730 H   0  0  0  0  0  0  0  0  0  0  0  0
   -1.9579    3.7225    7.5105 N   0  0  0  0  0  0  0  0  0  0  0  0
   -2.6807    4.3232    7.1187 H   0  0  0  0  0  0  0  0  0  0  0  0
   -1.6131    3.9391    8.4441 H   0  0  0  0  0  0  0  0  0  0  0  0
   -0.0720    1.1010   -0.4917 C   0  0  0  0  0  0  0  0  0  0  0  0
   -0.0221    1.7057   -1.5529 O   0  0  0  0  0  0  0  0  0  0  0  0
    0.7714    0.0310   -0.2578 N   0  0  0  0  0  0  0  0  0  0  0  0
    0.5088   -0.5715    0.5218 H   0  0  0  0  0  0  0  0  0  0  0  0
    1.6523   -0.5141   -1.2847 C   0  0  0  0  0  0  0  0  0  0  0  0
    2.3325    0.2590   -1.6579 H   0  0  0  0  0  0  0  0  0  0  0  0
    2.2541   -1.3302   -0.8728 H   0  0  0  0  0  0  0  0  0  0  0  0
    1.0679   -0.9026   -2.1253 H   0  0  0  0  0  0  0  0  0  0  0  0
  1  2  1  0  0  0  0
  2  3  1  0  0  0  0
  2  4  1  0  0  0  0
  2  5  1  0  0  0  0
  5  6  2  0  0  0  0
  5  7  1  0  0  0  0
  7  8  1  0  0  0  0
  7  9  1  0  0  0  0
  9 10  1  0  0  0  0
  9 11  1  0  0  0  0
  9 29  1  0  0  0  0
 11 12  1  0  0  0  0
 11 13  1  0  0  0  0
 11 14  1  0  0  0  0
 14 15  1  0  0  0  0
 14 16  1  0  0  0  0
 14 17  1  0  0  0  0
 17 18  1  0  0  0  0
 17 19  1  0  0  0  0
 17 20  1  0  0  0  0
 20 21  1  0  0  0  0
 20 22  2  0  0  0  0
 22 23  1  0  0  0  0
 22 26  1  0  0  0  0
 23 24  1  0  0  0  0
 23 25  1  0  0  0  0
 26 27  1  0  0  0  0
 26 28  1  0  0  0  0
 29 30  2  0  0  0  0
 29 31  1  0  0  0  0
 31 32  1  0  0  0  0
 31 33  1  0  0  0  0
 33 34  1  0  0  0  0
 33 35  1  0  0  0  0
 33 36  1  0  0  0  0
M  CHG  1  20   1
M  END
$$$$

  -OEChem-02172215453D

 36 35  0     1  0  0  0  0  0999 V2000
   -3.9966   -2.1200    0.8410 H   0  0  0  0  0  0  0  0  0  0  0  0
   -3.9567   -1.0901    0.4743 C   0  0  0  0  0  0  0  0  0  0  0  0
   -4.7570   -0.5171    0.9482 H   0  0  0  0  0  0  0  0  0  0  0  0
   -4.1145   -1.0977   -0.6071 H   0  0  0  0  0  0  0  0  0  0  0  0
   -2.6105   -0.4707    0.7975 C   0  0  0  0  0  0  0  0  0  0  0  0
   -1.7492   -1.1478    1.3364 O   0  0  0  0  0  0  0  0  0  0  0  0
   -2.3574    0.8381    0.4268 N   0  0  0  0  0  0  0  0  0  0  0  0
   -3.0691    1.2729   -0.1571 H   0  0  0  0  0  0  0  0  0  0  0  0
   -1.0750    1.5600    0.5682 C   0  0  1  0  0  0  0  0  0  0  0  0
   -1.2734    2.6117    0.3350 H   0  0  0  0  0  0  0  0  0  0  0  0
   -0.4468    1.5306    1.9810 C   0  0  0  0  0  0  0  0  0  0  0  0
   -0.2859    0.5074    2.3277 H   0  0  0  0  0  0  0  0  0  0  0  0
    0.5413    2.0011    1.9253 H   0  0  0  0  0  0  0  0  0  0  0  0
   -1.2940    2.3046    2.9958 C   0  0  0  0  0  0  0  0  0  0  0  0
   -1.3965    3.3471    2.6754 H   0  0  0  0  0  0  0  0  0  0  0  0
   -2.2940    1.8608    3.0503 H   0  0  0  0  0  0  0  0  0  0  0  0
   -0.6228    2.2382    4.3661 C   0  0  0  0  0  0  0  0  0  0  0  0
   -0.5115    1.1872    4.6560 H   0  0  0  0  0  0  0  0  0  0  0  0
    0.3749    2.6866    4.2982 H   0  0  0  0  0  0  0  0  0  0  0  0
   -1.4323    2.9568    5.3670 N   0  3  0  0  0  0  0  0  0  0  0  0
   -2.2765    3.4212    5.0358 H   0  0  0  0  0  0  0  0  0  0  0  0
   -1.1266    3.0132    6.6314 C   0  0  0  0  0  0  0  0  0  0  0  0
   -0.0045    2.3948    7.1347 N   0  0  0  0  0  0  0  0  0  0  0  0
    0.5020    1.7551    6.5254 H   0  0  0  0  0  0  0  0  0  0  0  0
    0.0726    2.2616    8.1411 H   0  0  0  0  0  0  0  0  0  0  0  0
   -1.9383    3.7088    7.4957 N   0  0  0  0  0  0  0  0  0  0  0  0
   -2.6613    4.3133    7.1100 H   0  0  0  0  0  0  0  0  0  0  0  0
   -1.5854    3.9215    8.4271 H   0  0  0  0  0  0  0  0  0  0  0  0
   -0.0657    1.0837   -0.4953 C   0  0  0  0  0  0  0  0  0  0  0  0
    0.2156    1.8208   -1.4287 O   0  0  0  0  0  0  0  0  0  0  0  0
    0.5552   -0.1439   -0.3625 N   0  0  0  0  0  0  0  0  0  0  0  0
    0.1486   -0.7766    0.3292 H   0  0  0  0  0  0  0  0  0  0  0  0
    1.4607   -0.6902   -1.3668 C   0  0  0  0  0  0  0  0  0  0  0  0
    2.3040   -0.0113   -1.5337 H   0  0  0  0  0  0  0  0  0  0  0  0
    1.8572   -1.6545   -1.0344 H   0  0  0  0  0  0  0  0  0  0  0  0
    0.9361   -0.8384   -2.3166 H   0  0  0  0  0  0  0  0  0  0  0  0
  1  2  1  0  0  0  0
  2  3  1  0  0  0  0
  2  4  1  0  0  0  0
  2  5  1  0  0  0  0
  5  6  2  0  0  0  0
  5  7  1  0  0  0  0
  7  8  1  0  0  0  0
  7  9  1  0  0  0  0
  9 10  1  0  0  0  0
  9 11  1  0  0  0  0
  9 29  1  0  0  0  0
 11 12  1  0  0  0  0
 11 13  1  0  0  0  0
 11 14  1  0  0  0  0
 14 15  1  0  0  0  0
 14 16  1  0  0  0  0
 14 17  1  0  0  0  0
 17 18  1  0  0  0  0
 17 19  1  0  0  0  0
 17 20  1  0  0  0  0
 20 21  1  0  0  0  0
 20 22  2  0  0  0  0
 22 23  1  0  0  0  0
 22 26  1  0  0  0  0
 23 24  1  0  0  0  0
 23 25  1  0  0  0  0
 26 27  1  0  0  0  0
 26 28  1  0  0  0  0
 29 30  2  0  0  0  0
 29 31  1  0  0  0  0
 31 32  1  0  0  0  0
 31 33  1  0  0  0  0
 33 34  1  0  0  0  0
 33 35  1  0  0  0  0
 33 36  1  0  0  0  0
M  CHG  1  20   1
M  END
$$$$

  -OEChem-02172215453D

 36 35  0     1  0  0  0  0  0999 V2000
   -4.0753   -2.0894    0.9132 H   0  0  0  0  0  0  0  0  0  0  0  0
   -4.0230   -1.0658    0.5313 C   0  0  0  0  0  0  0  0  0  0  0  0
   -4.7981   -0.4697    1.0185 H   0  0  0  0  0  0  0  0  0  0  0  0
   -4.2094   -1.0838   -0.5456 H   0  0  0  0  0  0  0  0  0  0  0  0
   -2.6556   -0.4727    0.8111 C   0  0  0  0  0  0  0  0  0  0  0  0
   -1.7953   -1.1646    1.3315 O   0  0  0  0  0  0  0  0  0  0  0  0
   -2.3855    0.8269    0.4202 N   0  0  0  0  0  0  0  0  0  0  0  0
   -3.1126    1.2755   -0.1333 H   0  0  0  0  0  0  0  0  0  0  0  0
   -1.0994    1.5492    0.5437 C   0  0  1  0  0  0  0  0  0  0  0  0
   -1.2977    2.5996    0.3053 H   0  0  0  0  0  0  0  0  0  0  0  0
   -0.4675    1.5183    1.9532 C   0  0  0  0  0  0  0  0  0  0  0  0
   -0.3087    0.4934    2.2970 H   0  0  0  0  0  0  0  0  0  0  0  0
    0.5225    1.9853    1.8944 H   0  0  0  0  0  0  0  0  0  0  0  0
   -1.3065    2.2945    2.9725 C   0  0  0  0  0  0  0  0  0  0  0  0
   -1.4048    3.3380    2.6545 H   0  0  0  0  0  0  0  0  0  0  0  0
   -2.3085    1.8564    3.0321 H   0  0  0  0  0  0  0  0  0  0  0  0
   -0.6270    2.2230    4.3381 C   0  0  0  0  0  0  0  0  0  0  0  0
   -0.5189    1.1706    4.6245 H   0  0  0  0  0  0  0  0  0  0  0  0
    0.3722    2.6671    4.2640 H   0  0  0  0  0  0  0  0  0  0  0  0
   -1.4270    2.9433    5.3452 N   0  3  0  0  0  0  0  0  0  0  0  0
   -2.2732    3.4091    5.0208 H   0  0  0  0  0  0  0  0  0  0  0  0
   -1.1132    2.9964    6.6077 C   0  0  0  0  0  0  0  0  0  0  0  0
    0.0093    2.3728    7.1037 N   0  0  0  0  0  0  0  0  0  0  0  0
    0.5049    1.7270    6.4923 H   0  0  0  0  0  0  0  0  0  0  0  0
    0.0934    2.2414    8.1097 H   0  0  0  0  0  0  0  0  0  0  0  0
   -1.9161    3.6947    7.4779 N   0  0  0  0  0  0  0  0  0  0  0  0
   -2.6332    4.3086    7.0966 H   0  0  0  0  0  0  0  0  0  0  0  0
   -1.5570    3.9024    8.4081 H   0  0  0  0  0  0  0  0  0  0  0  0
   -0.0752    1.0695   -0.5047 C   0  0  0  0  0  0  0  0  0  0  0  0
    0.4095    1.8778   -1.2829 O   0  0  0  0  0  0  0  0  0  0  0  0
    0.3275   -0.2517   -0.5343 N   0  0  0  0  0  0  0  0  0  0  0  0
   -0.1475   -0.8898    0.1078 H   0  0  0  0  0  0  0  0  0  0  0  0
    1.2681   -0.7897   -1.5097 C   0  0  0  0  0  0  0  0  0  0  0  0
    2.2275   -0.2656   -1.4469 H   0  0  0  0  0  0  0  0  0  0  0  0
    1.4433   -1.8532   -1.3199 H   0  0  0  0  0  0  0  0  0  0  0  0
    0.8732   -0.6790   -2.5250 H   0  0  0  0  0  0  0  0  0  0  0  0
  1  2  1  0  0  0  0
  2  3  1  0  0  0  0
  2  4  1  0  0  0  0
  2  5  1  0  0  0  0
  5  6  2  0  0  0  0
  5  7  1  0  0  0  0
  7  8  1  0  0  0  0
  7  9  1  0  0  0  0
  9 10  1  0  0  0  0
  9 11  1  0  0  0  0
  9 29  1  0  0  0  0
 11 12  1  0  0  0  0
 11 13  1  0  0  0  0
 11 14  1  0  0  0  0
 14 15  1  0  0  0  0
 14 16  1  0  0  0  0
 14 17  1  0  0  0  0
 17 18  1  0  0  0  0
 17 19  1  0  0  0  0
 17 20  1  0  0  0  0
 20 21  1  0  0  0  0
 20 22  2  0  0  0  0
 22 23  1  0  0  0  0
 22 26  1  0  0  0  0
 23 24  1  0  0  0  0
 23 25  1  0  0  0  0
 26 27  1  0  0  0  0
 26 28  1  0  0  0  0
 29 30  2  0  0  0  0
 29 31  1  0  0  0  0
 31 32  1  0  0  0  0
 31 33  1  0  0  0  0
 33 34  1  0  0  0  0
 33 35  1  0  0  0  0
 33 36  1  0  0  0  0
M  CHG  1  20   1
M  END
$$$$

  -OEChem-02172215453D

 36 35  0     1  0  0  0  0  0999 V2000
   -4.1446   -2.0787    0.9458 H   0  0  0  0  0  0  0  0  0  0  0  0
   -4.0880   -1.0549    0.5647 C   0  0  0  0  0  0  0  0  0  0  0  0
   -4.8457   -0.4504    1.0685 H   0  0  0  0  0  0  0  0  0  0  0  0
   -4.2964   -1.0689   -0.5080 H   0  0  0  0  0  0  0  0  0  0  0  0
   -2.7087   -0.4775    0.8167 C   0  0  0  0  0  0  0  0  0  0  0  0
   -1.8437   -1.1810    1.3117 O   0  0  0  0  0  0  0  0  0  0  0  0
   -2.4293    0.8164    0.4137 N   0  0  0  0  0  0  0  0  0  0  0  0
   -3.1683    1.2753   -0.1150 H   0  0  0  0  0  0  0  0  0  0  0  0
   -1.1393    1.5378    0.5220 C   0  0  1  0  0  0  0  0  0  0  0  0
   -1.3380    2.5873    0.2794 H   0  0  0  0  0  0  0  0  0  0  0  0
   -0.5020    1.5097    1.9288 C   0  0  0  0  0  0  0  0  0  0  0  0
   -0.3452    0.4838    2.2713 H   0  0  0  0  0  0  0  0  0  0  0  0
    0.4891    1.9734    1.8645 H   0  0  0  0  0  0  0  0  0  0  0  0
   -1.3299    2.2907    2.9535 C   0  0  0  0  0  0  0  0  0  0  0  0
   -1.4268    3.3346    2.6353 H   0  0  0  0  0  0  0  0  0  0  0  0
   -2.3328    1.8564    3.0231 H   0  0  0  0  0  0  0  0  0  0  0  0
   -0.6370    2.2153    4.3123 C   0  0  0  0  0  0  0  0  0  0  0  0
   -0.5300    1.1624    4.5965 H   0  0  0  0  0  0  0  0  0  0  0  0
    0.3637    2.6541    4.2276 H   0  0  0  0  0  0  0  0  0  0  0  0
   -1.4203    2.9384    5.3304 N   0  3  0  0  0  0  0  0  0  0  0  0
   -2.2647    3.4146    5.0168 H   0  0  0  0  0  0  0  0  0  0  0  0
   -1.0887    2.9858    6.5885 C   0  0  0  0  0  0  0  0  0  0  0  0
    0.0367    2.3533    7.0660 N   0  0  0  0  0  0  0  0  0  0  0  0
    0.5184    1.7063    6.4445 H   0  0  0  0  0  0  0  0  0  0  0  0
    0.1298    2.2112    8.0697 H   0  0  0  0  0  0  0  0  0  0  0  0
   -1.8731    3.6875    7.4724 N   0  0  0  0  0  0  0  0  0  0  0  0
   -2.5910    4.3078    7.1030 H   0  0  0  0  0  0  0  0  0  0  0  0
   -1.4934    3.8961    8.3941 H   0  0  0  0  0  0  0  0  0  0  0  0
   -0.1060    1.0601   -0.5201 C   0  0  0  0  0  0  0  0  0  0  0  0
    0.5684    1.8906   -1.1114 O   0  0  0  0  0  0  0  0  0  0  0  0
    0.0888   -0.2868   -0.7587 N   0  0  0  0  0  0  0  0  0  0  0  0
   -0.4221   -0.9357   -0.1569 H   0  0  0  0  0  0  0  0  0  0  0  0
    1.0910   -0.8090   -1.6797 C   0  0  0  0  0  0  0  0  0  0  0  0
    2.0966   -0.5180   -1.3589 H   0  0  0  0  0  0  0  0  0  0  0  0
    1.0407   -1.9015   -1.7132 H   0  0  0  0  0  0  0  0  0  0  0  0
    0.9192   -0.4253   -2.6909 H   0  0  0  0  0  0  0  0  0  0  0  0
  1  2  1  0  0  0  0
  2  3  1  0  0  0  0
  2  4  1  0  0  0  0
  2  5  1  0  0  0  0
  5  6  2  0  0  0  0
  5  7  1  0  0  0  0
  7  8  1  0  0  0  0
  7  9  1  0  0  0  0
  9 10  1  0  0  0  0
  9 11  1  0  0  0  0
  9 29  1  0  0  0  0
 11 12  1  0  0  0  0
 11 13  1  0  0  0  0
 11 14  1  0  0  0  0
 14 15  1  0  0  0  0
 14 16  1  0  0  0  0
 14 17  1  0  0  0  0
 17 18  1  0  0  0  0
 17 19  1  0  0  0  0
 17 20  1  0  0  0  0
 20 21  1  0  0  0  0
 20 22  2  0  0  0  0
 22 23  1  0  0  0  0
 22 26  1  0  0  0  0
 23 24  1  0  0  0  0
 23 25  1  0  0  0  0
 26 27  1  0  0  0  0
 26 28  1  0  0  0  0
 29 30  2  0  0  0  0
 29 31  1  0  0  0  0
 31 32  1  0  0  0  0
 31 33  1  0  0  0  0
 33 34  1  0  0  0  0
 33 35  1  0  0  0  0
 33 36  1  0  0  0  0
M  CHG  1  20   1
M  END
$$$$

  -OEChem-02172215453D

 36 35  0     1  0  0  0  0  0999 V2000
   -4.1835   -2.0575    1.0157 H   0  0  0  0  0  0  0  0  0  0  0  0
   -4.1304   -1.0355    0.6293 C   0  0  0  0  0  0  0  0  0  0  0  0
   -4.8558   -0.4193    1.1654 H   0  0  0  0  0  0  0  0  0  0  0  0
   -4.3882   -1.0489   -0.4326 H   0  0  0  0  0  0  0  0  0  0  0  0
   -2.7324   -0.4782    0.8167 C   0  0  0  0  0  0  0  0  0  0  0  0
   -1.8514   -1.1986    1.2538 O   0  0  0  0  0  0  0  0  0  0  0  0
   -2.4506    0.8118    0.4050 N   0  0  0  0  0  0  0  0  0  0  0  0
   -3.2083    1.2912   -0.0760 H   0  0  0  0  0  0  0  0  0  0  0  0
   -1.1577    1.5308    0.5024 C   0  0  1  0  0  0  0  0  0  0  0  0
   -1.3553    2.5792    0.2556 H   0  0  0  0  0  0  0  0  0  0  0  0
   -0.5256    1.5036    1.9115 C   0  0  0  0  0  0  0  0  0  0  0  0
   -0.3767    0.4769    2.2549 H   0  0  0  0  0  0  0  0  0  0  0  0
    0.4688    1.9606    1.8510 H   0  0  0  0  0  0  0  0  0  0  0  0
   -1.3495    2.2906    2.9350 C   0  0  0  0  0  0  0  0  0  0  0  0
   -1.4398    3.3349    2.6170 H   0  0  0  0  0  0  0  0  0  0  0  0
   -2.3552    1.8629    3.0063 H   0  0  0  0  0  0  0  0  0  0  0  0
   -0.6526    2.2090    4.2915 C   0  0  0  0  0  0  0  0  0  0  0  0
   -0.5541    1.1546    4.5732 H   0  0  0  0  0  0  0  0  0  0  0  0
    0.3516    2.6389    4.2032 H   0  0  0  0  0  0  0  0  0  0  0  0
   -1.4241    2.9350    5.3167 N   0  3  0  0  0  0  0  0  0  0  0  0
   -2.2669    3.4189    5.0109 H   0  0  0  0  0  0  0  0  0  0  0  0
   -1.0823    2.9753    6.5725 C   0  0  0  0  0  0  0  0  0  0  0  0
    0.0425    2.3317    7.0373 N   0  0  0  0  0  0  0  0  0  0  0  0
    0.5173    1.6870    6.4081 H   0  0  0  0  0  0  0  0  0  0  0  0
    0.1466    2.1876    8.0395 H   0  0  0  0  0  0  0  0  0  0  0  0
   -1.8529    3.6803    7.4661 N   0  0  0  0  0  0  0  0  0  0  0  0
   -2.5726    4.3038    7.1062 H   0  0  0  0  0  0  0  0  0  0  0  0
   -1.4636    3.8835    8.3850 H   0  0  0  0  0  0  0  0  0  0  0  0
   -0.1151    1.0577   -0.5348 C   0  0  0  0  0  0  0  0  0  0  0  0
    0.7147    1.8587   -0.9415 O   0  0  0  0  0  0  0  0  0  0  0  0
   -0.1059   -0.2424   -1.0033 N   0  0  0  0  0  0  0  0  0  0  0  0
   -0.6717   -0.9084   -0.4757 H   0  0  0  0  0  0  0  0  0  0  0  0
    0.9112   -0.7554   -1.9140 C   0  0  0  0  0  0  0  0  0  0  0  0
    1.9004   -0.7189   -1.4456 H   0  0  0  0  0  0  0  0  0  0  0  0
    0.6908   -1.7936   -2.1812 H   0  0  0  0  0  0  0  0  0  0  0  0
    0.9364   -0.1622   -2.8346 H   0  0  0  0  0  0  0  0  0  0  0  0
  1  2  1  0  0  0  0
  2  3  1  0  0  0  0
  2  4  1  0  0  0  0
  2  5  1  0  0  0  0
  5  6  2  0  0  0  0
  5  7  1  0  0  0  0
  7  8  1  0  0  0  0
  7  9  1  0  0  0  0
  9 10  1  0  0  0  0
  9 11  1  0  0  0  0
  9 29  1  0  0  0  0
 11 12  1  0  0  0  0
 11 13  1  0  0  0  0
 11 14  1  0  0  0  0
 14 15  1  0  0  0  0
 14 16  1  0  0  0  0
 14 17  1  0  0  0  0
 17 18  1  0  0  0  0
 17 19  1  0  0  0  0
 17 20  1  0  0  0  0
 20 21  1  0  0  0  0
 20 22  2  0  0  0  0
 22 23  1  0  0  0  0
 22 26  1  0  0  0  0
 23 24  1  0  0  0  0
 23 25  1  0  0  0  0
 26 27  1  0  0  0  0
 26 28  1  0  0  0  0
 29 30  2  0  0  0  0
 29 31  1  0  0  0  0
 31 32  1  0  0  0  0
 31 33  1  0  0  0  0
 33 34  1  0  0  0  0
 33 35  1  0  0  0  0
 33 36  1  0  0  0  0
M  CHG  1  20   1
M  END
$$$$

  -OEChem-02172215453D

 36 35  0     1  0  0  0  0  0999 V2000
   -4.1975   -2.0320    1.1056 H   0  0  0  0  0  0  0  0  0  0  0  0
   -4.1449   -1.0182    0.6982 C   0  0  0  0  0  0  0  0  0  0  0  0
   -4.8401   -0.3824    1.2510 H   0  0  0  0  0  0  0  0  0  0  0  0
   -4.4447   -1.0470   -0.3523 H   0  0  0  0  0  0  0  0  0  0  0  0
   -2.7325   -0.4793    0.8203 C   0  0  0  0  0  0  0  0  0  0  0  0
   -1.8400   -1.2142    1.2039 O   0  0  0  0  0  0  0  0  0  0  0  0
   -2.4528    0.8100    0.4055 N   0  0  0  0  0  0  0  0  0  0  0  0
   -3.2281    1.3098   -0.0239 H   0  0  0  0  0  0  0  0  0  0  0  0
   -1.1559    1.5252    0.4917 C   0  0  1  0  0  0  0  0  0  0  0  0
   -1.3512    2.5743    0.2466 H   0  0  0  0  0  0  0  0  0  0  0  0
   -0.5256    1.4925    1.9037 C   0  0  0  0  0  0  0  0  0  0  0  0
   -0.3860    0.4635    2.2448 H   0  0  0  0  0  0  0  0  0  0  0  0
    0.4725    1.9423    1.8503 H   0  0  0  0  0  0  0  0  0  0  0  0
   -1.3462    2.2832    2.9266 C   0  0  0  0  0  0  0  0  0  0  0  0
   -1.4274    3.3282    2.6086 H   0  0  0  0  0  0  0  0  0  0  0  0
   -2.3551    1.8628    2.9948 H   0  0  0  0  0  0  0  0  0  0  0  0
   -0.6534    2.1968    4.2850 C   0  0  0  0  0  0  0  0  0  0  0  0
   -0.5615    1.1419    4.5672 H   0  0  0  0  0  0  0  0  0  0  0  0
    0.3534    2.6219    4.1999 H   0  0  0  0  0  0  0  0  0  0  0  0
   -1.4259    2.9278    5.3062 N   0  3  0  0  0  0  0  0  0  0  0  0
   -2.2645    3.4154    4.9953 H   0  0  0  0  0  0  0  0  0  0  0  0
   -1.0916    2.9685    6.5639 C   0  0  0  0  0  0  0  0  0  0  0  0
    0.0266    2.3209    7.0381 N   0  0  0  0  0  0  0  0  0  0  0  0
    0.5056    1.6765    6.4119 H   0  0  0  0  0  0  0  0  0  0  0  0
    0.1206    2.1737    8.0409 H   0  0  0  0  0  0  0  0  0  0  0  0
   -1.8653    3.6799    7.4499 N   0  0  0  0  0  0  0  0  0  0  0  0
   -2.5731    4.3120    7.0814 H   0  0  0  0  0  0  0  0  0  0  0  0
   -1.4829    3.8811    8.3724 H   0  0  0  0  0  0  0  0  0  0  0  0
   -0.1131    1.0581   -0.5504 C   0  0  0  0  0  0  0  0  0  0  0  0
    0.8389    1.7874   -0.7934 O   0  0  0  0  0  0  0  0  0  0  0  0
   -0.2687   -0.1228   -1.2518 N   0  0  0  0  0  0  0  0  0  0  0  0
   -0.9223   -0.7902   -0.8452 H   0  0  0  0  0  0  0  0  0  0  0  0
    0.7275   -0.6172   -2.1958 C   0  0  0  0  0  0  0  0  0  0  0  0
    1.6795   -0.8029   -1.6872 H   0  0  0  0  0  0  0  0  0  0  0  0
    0.3874   -1.5531   -2.6498 H   0  0  0  0  0  0  0  0  0  0  0  0
    0.8928    0.1119   -2.9966 H   0  0  0  0  0  0  0  0  0  0  0  0
  1  2  1  0  0  0  0
  2  3  1  0  0  0  0
  2  4  1  0  0  0  0
  2  5  1  0  0  0  0
  5  6  2  0  0  0  0
  5  7  1  0  0  0  0
  7  8  1  0  0  0  0
  7  9  1  0  0  0  0
  9 10  1  0  0  0  0
  9 11  1  0  0  0  0
  9 29  1  0  0  0  0
 11 12  1  0  0  0  0
 11 13  1  0  0  0  0
 11 14  1  0  0  0  0
 14 15  1  0  0  0  0
 14 16  1  0  0  0  0
 14 17  1  0  0  0  0
 17 18  1  0  0  0  0
 17 19  1  0  0  0  0
 17 20  1  0  0  0  0
 20 21  1  0  0  0  0
 20 22  2  0  0  0  0
 22 23  1  0  0  0  0
 22 26  1  0  0  0  0
 23 24  1  0  0  0  0
 23 25  1  0  0  0  0
 26 27  1  0  0  0  0
 26 28  1  0  0  0  0
 29 30  2  0  0  0  0
 29 31  1  0  0  0  0
 31 32  1  0  0  0  0
 31 33  1  0  0  0  0
 33 34  1  0  0  0  0
 33 35  1  0  0  0  0
 33 36  1  0  0  0  0
M  CHG  1  20   1
M  END
$$$$

  -OEChem-02172215453D

 36 35  0     1  0  0  0  0  0999 V2000
   -4.1804   -2.0397    1.1143 H   0  0  0  0  0  0  0  0  0  0  0  0
   -4.1321   -1.0250    0.7081 C   0  0  0  0  0  0  0  0  0  0  0  0
   -4.8244   -0.3912    1.2669 H   0  0  0  0  0  0  0  0  0  0  0  0
   -4.4397   -1.0529   -0.3403 H   0  0  0  0  0  0  0  0  0  0  0  0
   -2.7197   -0.4832    0.8228 C   0  0  0  0  0  0  0  0  0  0  0  0
   -1.8287   -1.2110    1.2205 O   0  0  0  0  0  0  0  0  0  0  0  0
   -2.4478    0.8072    0.4051 N   0  0  0  0  0  0  0  0  0  0  0  0
   -3.2313    1.3096   -0.0056 H   0  0  0  0  0  0  0  0  0  0  0  0
   -1.1537    1.5284    0.4870 C   0  0  1  0  0  0  0  0  0  0  0  0
   -1.3513    2.5758    0.2381 H   0  0  0  0  0  0  0  0  0  0  0  0
   -0.5299    1.5007    1.9040 C   0  0  0  0  0  0  0  0  0  0  0  0
   -0.3854    0.4731    2.2469 H   0  0  0  0  0  0  0  0  0  0  0  0
    0.4661    1.9549    1.8581 H   0  0  0  0  0  0  0  0  0  0  0  0
   -1.3546    2.2899    2.9248 C   0  0  0  0  0  0  0  0  0  0  0  0
   -1.4369    3.3353    2.6081 H   0  0  0  0  0  0  0  0  0  0  0  0
   -2.3625    1.8674    2.9927 H   0  0  0  0  0  0  0  0  0  0  0  0
   -0.6610    2.2026    4.2823 C   0  0  0  0  0  0  0  0  0  0  0  0
   -0.5669    1.1474    4.5622 H   0  0  0  0  0  0  0  0  0  0  0  0
    0.3452    2.6283    4.1967 H   0  0  0  0  0  0  0  0  0  0  0  0
   -1.4312    2.9296    5.3074 N   0  3  0  0  0  0  0  0  0  0  0  0
   -2.2716    3.4170    5.0011 H   0  0  0  0  0  0  0  0  0  0  0  0
   -1.0914    2.9655    6.5638 C   0  0  0  0  0  0  0  0  0  0  0  0
    0.0295    2.3165    7.0302 N   0  0  0  0  0  0  0  0  0  0  0  0
    0.5066    1.6747    6.3996 H   0  0  0  0  0  0  0  0  0  0  0  0
    0.1290    2.1672    8.0322 H   0  0  0  0  0  0  0  0  0  0  0  0
   -1.8623    3.6706    7.4570 N   0  0  0  0  0  0  0  0  0  0  0  0
   -2.5712    4.3055    7.0951 H   0  0  0  0  0  0  0  0  0  0  0  0
   -1.4756    3.8657    8.3788 H   0  0  0  0  0  0  0  0  0  0  0  0
   -0.1131    1.0614   -0.5606 C   0  0  0  0  0  0  0  0  0  0  0  0
    0.9464    1.6667   -0.6536 O   0  0  0  0  0  0  0  0  0  0  0  0
   -0.4010    0.0599   -1.4695 N   0  0  0  0  0  0  0  0  0  0  0  0
   -1.1865   -0.5394   -1.2321 H   0  0  0  0  0  0  0  0  0  0  0  0
    0.5695   -0.4245   -2.4456 C   0  0  0  0  0  0  0  0  0  0  0  0
    1.4389   -0.8577   -1.9398 H   0  0  0  0  0  0  0  0  0  0  0  0
    0.1178   -1.1930   -3.0806 H   0  0  0  0  0  0  0  0  0  0  0  0
    0.9099    0.3946   -3.0883 H   0  0  0  0  0  0  0  0  0  0  0  0
  1  2  1  0  0  0  0
  2  3  1  0  0  0  0
  2  4  1  0  0  0  0
  2  5  1  0  0  0  0
  5  6  2  0  0  0  0
  5  7  1  0  0  0  0
  7  8  1  0  0  0  0
  7  9  1  0  0  0  0
  9 10  1  0  0  0  0
  9 11  1  0  0  0  0
  9 29  1  0  0  0  0
 11 12  1  0  0  0  0
 11 13  1  0  0  0  0
 11 14  1  0  0  0  0
 14 15  1  0  0  0  0
 14 16  1  0  0  0  0
 14 17  1  0  0  0  0
 17 18  1  0  0  0  0
 17 19  1  0  0  0  0
 17 20  1  0  0  0  0
 20 21  1  0  0  0  0
 20 22  2  0  0  0  0
 22 23  1  0  0  0  0
 22 26  1  0  0  0  0
 23 24  1  0  0  0  0
 23 25  1  0  0  0  0
 26 27  1  0  0  0  0
 26 28  1  0  0  0  0
 29 30  2  0  0  0  0
 29 31  1  0  0  0  0
 31 32  1  0  0  0  0
 31 33  1  0  0  0  0
 33 34  1  0  0  0  0
 33 35  1  0  0  0  0
 33 36  1  0  0  0  0
M  CHG  1  20   1
M  END
$$$$

  -OEChem-02172215453D

 36 35  0     1  0  0  0  0  0999 V2000
   -4.1353   -2.0591    1.0925 H   0  0  0  0  0  0  0  0  0  0  0  0
   -4.0960   -1.0420    0.6911 C   0  0  0  0  0  0  0  0  0  0  0  0
   -4.8002   -0.4189    1.2475 H   0  0  0  0  0  0  0  0  0  0  0  0
   -4.3947   -1.0696   -0.3599 H   0  0  0  0  0  0  0  0  0  0  0  0
   -2.6909   -0.4848    0.8190 C   0  0  0  0  0  0  0  0  0  0  0  0
   -1.8040   -1.1982    1.2495 O   0  0  0  0  0  0  0  0  0  0  0  0
   -2.4309    0.8096    0.4018 N   0  0  0  0  0  0  0  0  0  0  0  0
   -3.2213    1.3090    0.0008 H   0  0  0  0  0  0  0  0  0  0  0  0
   -1.1413    1.5394    0.4861 C   0  0  1  0  0  0  0  0  0  0  0  0
   -1.3411    2.5856    0.2349 H   0  0  0  0  0  0  0  0  0  0  0  0
   -0.5249    1.5167    1.9085 C   0  0  0  0  0  0  0  0  0  0  0  0
   -0.3722    0.4909    2.2526 H   0  0  0  0  0  0  0  0  0  0  0  0
    0.4667    1.9813    1.8710 H   0  0  0  0  0  0  0  0  0  0  0  0
   -1.3583    2.3009    2.9259 C   0  0  0  0  0  0  0  0  0  0  0  0
   -1.4457    3.3460    2.6110 H   0  0  0  0  0  0  0  0  0  0  0  0
   -2.3640    1.8729    2.9908 H   0  0  0  0  0  0  0  0  0  0  0  0
   -0.6652    2.2132    4.2836 C   0  0  0  0  0  0  0  0  0  0  0  0
   -0.5663    1.1574    4.5596 H   0  0  0  0  0  0  0  0  0  0  0  0
    0.3393    2.6434    4.1991 H   0  0  0  0  0  0  0  0  0  0  0  0
   -1.4368    2.9329    5.3125 N   0  3  0  0  0  0  0  0  0  0  0  0
   -2.2806    3.4169    5.0102 H   0  0  0  0  0  0  0  0  0  0  0  0
   -1.0936    2.9639    6.5681 C   0  0  0  0  0  0  0  0  0  0  0  0
    0.0311    2.3167    7.0274 N   0  0  0  0  0  0  0  0  0  0  0  0
    0.5069    1.6783    6.3921 H   0  0  0  0  0  0  0  0  0  0  0  0
    0.1341    2.1620    8.0282 H   0  0  0  0  0  0  0  0  0  0  0  0
   -1.8654    3.6597    7.4677 N   0  0  0  0  0  0  0  0  0  0  0  0
   -2.5831    4.2889    7.1134 H   0  0  0  0  0  0  0  0  0  0  0  0
   -1.4798    3.8482    8.3914 H   0  0  0  0  0  0  0  0  0  0  0  0
   -0.1086    1.0672   -0.5699 C   0  0  0  0  0  0  0  0  0  0  0  0
    1.0402    1.4874   -0.5267 O   0  0  0  0  0  0  0  0  0  0  0  0
   -0.4976    0.2988   -1.6525 N   0  0  0  0  0  0  0  0  0  0  0  0
   -1.4101   -0.1408   -1.5876 H   0  0  0  0  0  0  0  0  0  0  0  0
    0.4398   -0.1862   -2.6606 C   0  0  0  0  0  0  0  0  0  0  0  0
    1.1804   -0.8528   -2.2061 H   0  0  0  0  0  0  0  0  0  0  0  0
   -0.0933   -0.7393   -3.4401 H   0  0  0  0  0  0  0  0  0  0  0  0
    0.9643    0.6513   -3.1331 H   0  0  0  0  0  0  0  0  0  0  0  0
  1  2  1  0  0  0  0
  2  3  1  0  0  0  0
  2  4  1  0  0  0  0
  2  5  1  0  0  0  0
  5  6  2  0  0  0  0
  5  7  1  0  0  0  0
  7  8  1  0  0  0  0
  7  9  1  0  0  0  0
  9 10  1  0  0  0  0
  9 11  1  0  0  0  0
  9 29  1  0  0  0  0
 11 12  1  0  0  0  0
 11 13  1  0  0  0  0
 11 14  1  0  0  0  0
 14 15  1  0  0  0  0
 14 16  1  0  0  0  0
 14 17  1  0  0  0  0
 17 18  1  0  0  0  0
 17 19  1  0  0  0  0
 17 20  1  0  0  0  0
 20 21  1  0  0  0  0
 20 22  2  0  0  0  0
 22 23  1  0  0  0  0
 22 26  1  0  0  0  0
 23 24  1  0  0  0  0
 23 25  1  0  0  0  0
 26 27  1  0  0  0  0
 26 28  1  0  0  0  0
 29 30  2  0  0  0  0
 29 31  1  0  0  0  0
 31 32  1  0  0  0  0
 31 33  1  0  0  0  0
 33 34  1  0  0  0  0
 33 35  1  0  0  0  0
 33 36  1  0  0  0  0
M  CHG  1  20   1
M  END
$$$$

  -OEChem-02172215453D

 36 35  0     1  0  0  0  0  0999 V2000
   -4.0935   -2.0735    1.0589 H   0  0  0  0  0  0  0  0  0  0  0  0
   -4.0590   -1.0547    0.6616 C   0  0  0  0  0  0  0  0  0  0  0  0
   -4.7765   -0.4405    1.2104 H   0  0  0  0  0  0  0  0  0  0  0  0
   -4.3425   -1.0819   -0.3931 H   0  0  0  0  0  0  0  0  0  0  0  0
   -2.6613   -0.4842    0.8098 C   0  0  0  0  0  0  0  0  0  0  0  0
   -1.7798   -1.1858    1.2696 O   0  0  0  0  0  0  0  0  0  0  0  0
   -2.4101    0.8131    0.3943 N   0  0  0  0  0  0  0  0  0  0  0  0
   -3.2052    1.3088   -0.0017 H   0  0  0  0  0  0  0  0  0  0  0  0
   -1.1257    1.5505    0.4861 C   0  0  1  0  0  0  0  0  0  0  0  0
   -1.3253    2.5958    0.2318 H   0  0  0  0  0  0  0  0  0  0  0  0
   -0.5173    1.5328    1.9128 C   0  0  0  0  0  0  0  0  0  0  0  0
   -0.3559    0.5091    2.2582 H   0  0  0  0  0  0  0  0  0  0  0  0
    0.4698    2.0076    1.8800 H   0  0  0  0  0  0  0  0  0  0  0  0
   -1.3594    2.3111    2.9271 C   0  0  0  0  0  0  0  0  0  0  0  0
   -1.4514    3.3561    2.6126 H   0  0  0  0  0  0  0  0  0  0  0  0
   -2.3627    1.8768    2.9884 H   0  0  0  0  0  0  0  0  0  0  0  0
   -0.6677    2.2239    4.2860 C   0  0  0  0  0  0  0  0  0  0  0  0
   -0.5646    1.1675    4.5589 H   0  0  0  0  0  0  0  0  0  0  0  0
    0.3350    2.6586    4.2036 H   0  0  0  0  0  0  0  0  0  0  0  0
   -1.4420    2.9358    5.3182 N   0  3  0  0  0  0  0  0  0  0  0  0
   -2.2913    3.4126    5.0196 H   0  0  0  0  0  0  0  0  0  0  0  0
   -1.0973    2.9631    6.5736 C   0  0  0  0  0  0  0  0  0  0  0  0
    0.0313    2.3195    7.0286 N   0  0  0  0  0  0  0  0  0  0  0  0
    0.5120    1.6893    6.3887 H   0  0  0  0  0  0  0  0  0  0  0  0
    0.1380    2.1613    8.0287 H   0  0  0  0  0  0  0  0  0  0  0  0
   -1.8739    3.6471    7.4781 N   0  0  0  0  0  0  0  0  0  0  0  0
   -2.5974    4.2722    7.1289 H   0  0  0  0  0  0  0  0  0  0  0  0
   -1.4916    3.8305    8.4042 H   0  0  0  0  0  0  0  0  0  0  0  0
   -0.1017    1.0674   -0.5752 C   0  0  0  0  0  0  0  0  0  0  0  0
    1.0974    1.2547   -0.4159 O   0  0  0  0  0  0  0  0  0  0  0  0
   -0.5390    0.5715   -1.7909 N   0  0  0  0  0  0  0  0  0  0  0  0
   -1.5226    0.3324   -1.8585 H   0  0  0  0  0  0  0  0  0  0  0  0
    0.3684    0.0949   -2.8300 C   0  0  0  0  0  0  0  0  0  0  0  0
    0.9480   -0.7614   -2.4689 H   0  0  0  0  0  0  0  0  0  0  0  0
   -0.1967   -0.2160   -3.7141 H   0  0  0  0  0  0  0  0  0  0  0  0
    1.0626    0.8878   -3.1288 H   0  0  0  0  0  0  0  0  0  0  0  0
  1  2  1  0  0  0  0
  2  3  1  0  0  0  0
  2  4  1  0  0  0  0
  2  5  1  0  0  0  0
  5  6  2  0  0  0  0
  5  7  1  0  0  0  0
  7  8  1  0  0  0  0
  7  9  1  0  0  0  0
  9 10  1  0  0  0  0
  9 11  1  0  0  0  0
  9 29  1  0  0  0  0
 11 12  1  0  0  0  0
 11 13  1  0  0  0  0
 11 14  1  0  0  0  0
 14 15  1  0  0  0  0
 14 16  1  0  0  0  0
 14 17  1  0  0  0  0
 17 18  1  0  0  0  0
 17 19  1  0  0  0  0
 17 20  1  0  0  0  0
 20 21  1  0  0  0  0
 20 22  2  0  0  0  0
 22 23  1  0  0  0  0
 22 26  1  0  0  0  0
 23 24  1  0  0  0  0
 23 25  1  0  0  0  0
 26 27  1  0  0  0  0
 26 28  1  0  0  0  0
 29 30  2  0  0  0  0
 29 31  1  0  0  0  0
 31 32  1  0  0  0  0
 31 33  1  0  0  0  0
 33 34  1  0  0  0  0
 33 35  1  0  0  0  0
 33 36  1  0  0  0  0
M  CHG  1  20   1
M  END
$$$$

  -OEChem-02172215453D

 36 35  0     1  0  0  0  0  0999 V2000
   -4.0796   -2.1035    0.9686 H   0  0  0  0  0  0  0  0  0  0  0  0
   -4.0429   -1.0787    0.5875 C   0  0  0  0  0  0  0  0  0  0  0  0
   -4.7932   -0.4825    1.1120 H   0  0  0  0  0  0  0  0  0  0  0  0
   -4.2792   -1.0953   -0.4792 H   0  0  0  0  0  0  0  0  0  0  0  0
   -2.6614   -0.4905    0.8057 C   0  0  0  0  0  0  0  0  0  0  0  0
   -1.8024   -1.1754    1.3285 O   0  0  0  0  0  0  0  0  0  0  0  0
   -2.4073    0.8075    0.3935 N   0  0  0  0  0  0  0  0  0  0  0  0
   -3.1885    1.2832   -0.0499 H   0  0  0  0  0  0  0  0  0  0  0  0
   -1.1275    1.5496    0.4950 C   0  0  1  0  0  0  0  0  0  0  0  0
   -1.3282    2.5941    0.2388 H   0  0  0  0  0  0  0  0  0  0  0  0
   -0.5209    1.5415    1.9228 C   0  0  0  0  0  0  0  0  0  0  0  0
   -0.3523    0.5197    2.2716 H   0  0  0  0  0  0  0  0  0  0  0  0
    0.4631    2.0217    1.8859 H   0  0  0  0  0  0  0  0  0  0  0  0
   -1.3659    2.3182    2.9359 C   0  0  0  0  0  0  0  0  0  0  0  0
   -1.4667    3.3618    2.6200 H   0  0  0  0  0  0  0  0  0  0  0  0
   -2.3654    1.8759    3.0005 H   0  0  0  0  0  0  0  0  0  0  0  0
   -0.6690    2.2366    4.2923 C   0  0  0  0  0  0  0  0  0  0  0  0
   -0.5578    1.1811    4.5650 H   0  0  0  0  0  0  0  0  0  0  0  0
    0.3308    2.6771    4.2038 H   0  0  0  0  0  0  0  0  0  0  0  0
   -1.4399    2.9451    5.3295 N   0  3  0  0  0  0  0  0  0  0  0  0
   -2.2944    3.4170    5.0378 H   0  0  0  0  0  0  0  0  0  0  0  0
   -1.0850    2.9724    6.5820 C   0  0  0  0  0  0  0  0  0  0  0  0
    0.0503    2.3324    7.0254 N   0  0  0  0  0  0  0  0  0  0  0  0
    0.5314    1.7113    6.3771 H   0  0  0  0  0  0  0  0  0  0  0  0
    0.1612    2.1636    8.0231 H   0  0  0  0  0  0  0  0  0  0  0  0
   -1.8556    3.6514    7.4955 N   0  0  0  0  0  0  0  0  0  0  0  0
   -2.5866    4.2726    7.1548 H   0  0  0  0  0  0  0  0  0  0  0  0
   -1.4637    3.8359    8.4174 H   0  0  0  0  0  0  0  0  0  0  0  0
   -0.1061    1.0579   -0.5653 C   0  0  0  0  0  0  0  0  0  0  0  0
    1.0903    0.9950   -0.3138 O   0  0  0  0  0  0  0  0  0  0  0  0
   -0.5162    0.8559   -1.8716 N   0  0  0  0  0  0  0  0  0  0  0  0
   -1.5153    0.8411   -2.0464 H   0  0  0  0  0  0  0  0  0  0  0  0
    0.3864    0.4137   -2.9304 C   0  0  0  0  0  0  0  0  0  0  0  0
    0.8046   -0.5700   -2.6914 H   0  0  0  0  0  0  0  0  0  0  0  0
   -0.1500    0.3404   -3.8814 H   0  0  0  0  0  0  0  0  0  0  0  0
    1.2102    1.1247   -3.0561 H   0  0  0  0  0  0  0  0  0  0  0  0
  1  2  1  0  0  0  0
  2  3  1  0  0  0  0
  2  4  1  0  0  0  0
  2  5  1  0  0  0  0
  5  6  2  0  0  0  0
  5  7  1  0  0  0  0
  7  8  1  0  0  0  0
  7  9  1  0  0  0  0
  9 10  1  0  0  0  0
  9 11  1  0  0  0  0
  9 29  1  0  0  0  0
 11 12  1  0  0  0  0
 11 13  1  0  0  0  0
 11 14  1  0  0  0  0
 14 15  1  0  0  0  0
 14 16  1  0  0  0  0
 14 17  1  0  0  0  0
 17 18  1  0  0  0  0
 17 19  1  0  0  0  0
 17 20  1  0  0  0  0
 20 21  1  0  0  0  0
 20 22  2  0  0  0  0
 22 23  1  0  0  0  0
 22 26  1  0  0  0  0
 23 24  1  0  0  0  0
 23 25  1  0  0  0  0
 26 27  1  0  0  0  0
 26 28  1  0  0  0  0
 29 30  2  0  0  0  0
 29 31  1  0  0  0  0
 31 32  1  0  0  0  0
 31 33  1  0  0  0  0
 33 34  1  0  0  0  0
 33 35  1  0  0  0  0
 33 36  1  0  0  0  0
M  CHG  1  20   1
M  END
$$$$

  -OEChem-02172215453D

 36 35  0     1  0  0  0  0  0999 V2000
   -4.0666   -2.1270    0.8939 H   0  0  0  0  0  0  0  0  0  0  0  0
   -4.0272   -1.1017    0.5141 C   0  0  0  0  0  0  0  0  0  0  0  0
   -4.8222   -0.5210    0.9875 H   0  0  0  0  0  0  0  0  0  0  0  0
   -4.1920   -1.1240   -0.5660 H   0  0  0  0  0  0  0  0  0  0  0  0
   -2.6761   -0.4841    0.8212 C   0  0  0  0  0  0  0  0  0  0  0  0
   -1.8582   -1.1383    1.4402 O   0  0  0  0  0  0  0  0  0  0  0  0
   -2.4192    0.8112    0.4009 N   0  0  0  0  0  0  0  0  0  0  0  0
   -3.1703    1.2445   -0.1292 H   0  0  0  0  0  0  0  0  0  0  0  0
   -1.1429    1.5597    0.5009 C   0  0  1  0  0  0  0  0  0  0  0  0
   -1.3447    2.6040    0.2449 H   0  0  0  0  0  0  0  0  0  0  0  0
   -0.5267    1.5544    1.9237 C   0  0  0  0  0  0  0  0  0  0  0  0
   -0.3428    0.5351    2.2714 H   0  0  0  0  0  0  0  0  0  0  0  0
    0.4527    2.0434    1.8741 H   0  0  0  0  0  0  0  0  0  0  0  0
   -1.3681    2.3236    2.9440 C   0  0  0  0  0  0  0  0  0  0  0  0
   -1.4792    3.3671    2.6313 H   0  0  0  0  0  0  0  0  0  0  0  0
   -2.3637    1.8733    3.0158 H   0  0  0  0  0  0  0  0  0  0  0  0
   -0.6598    2.2436    4.2940 C   0  0  0  0  0  0  0  0  0  0  0  0
   -0.5404    1.1881    4.5638 H   0  0  0  0  0  0  0  0  0  0  0  0
    0.3367    2.6902    4.1994 H   0  0  0  0  0  0  0  0  0  0  0  0
   -1.4289    2.9459    5.3365 N   0  3  0  0  0  0  0  0  0  0  0  0
   -2.2933    3.4035    5.0518 H   0  0  0  0  0  0  0  0  0  0  0  0
   -1.0673    2.9752    6.5870 C   0  0  0  0  0  0  0  0  0  0  0  0
    0.0745    2.3433    7.0257 N   0  0  0  0  0  0  0  0  0  0  0  0
    0.5466    1.7122    6.3804 H   0  0  0  0  0  0  0  0  0  0  0  0
    0.1942    2.1843    8.0239 H   0  0  0  0  0  0  0  0  0  0  0  0
   -1.8381    3.6513    7.5025 N   0  0  0  0  0  0  0  0  0  0  0  0
   -2.5706    4.2712    7.1628 H   0  0  0  0  0  0  0  0  0  0  0  0
   -1.4441    3.8385    8.4228 H   0  0  0  0  0  0  0  0  0  0  0  0
   -0.1238    1.0558   -0.5559 C   0  0  0  0  0  0  0  0  0  0  0  0
    1.0126    0.7245   -0.2446 O   0  0  0  0  0  0  0  0  0  0  0  0
   -0.4391    1.1359   -1.9016 N   0  0  0  0  0  0  0  0  0  0  0  0
   -1.3900    1.3871   -2.1502 H   0  0  0  0  0  0  0  0  0  0  0  0
    0.4782    0.7286   -2.9620 C   0  0  0  0  0  0  0  0  0  0  0  0
    0.7264   -0.3341   -2.8677 H   0  0  0  0  0  0  0  0  0  0  0  0
    0.0220    0.8912   -3.9434 H   0  0  0  0  0  0  0  0  0  0  0  0
    1.4047    1.3108   -2.9135 H   0  0  0  0  0  0  0  0  0  0  0  0
  1  2  1  0  0  0  0
  2  3  1  0  0  0  0
  2  4  1  0  0  0  0
  2  5  1  0  0  0  0
  5  6  2  0  0  0  0
  5  7  1  0  0  0  0
  7  8  1  0  0  0  0
  7  9  1  0  0  0  0
  9 10  1  0  0  0  0
  9 11  1  0  0  0  0
  9 29  1  0  0  0  0
 11 12  1  0  0  0  0
 11 13  1  0  0  0  0
 11 14  1  0  0  0  0
 14 15  1  0  0  0  0
 14 16  1  0  0  0  0
 14 17  1  0  0  0  0
 17 18  1  0  0  0  0
 17 19  1  0  0  0  0
 17 20  1  0  0  0  0
 20 21  1  0  0  0  0
 20 22  2  0  0  0  0
 22 23  1  0  0  0  0
 22 26  1  0  0  0  0
 23 24  1  0  0  0  0
 23 25  1  0  0  0  0
 26 27  1  0  0  0  0
 26 28  1  0  0  0  0
 29 30  2  0  0  0  0
 29 31  1  0  0  0  0
 31 32  1  0  0  0  0
 31 33  1  0  0  0  0
 33 34  1  0  0  0  0
 33 35  1  0  0  0  0
 33 36  1  0  0  0  0
M  CHG  1  20   1
M  END
$$$$

  -OEChem-02172215453D

 36 35  0     1  0  0  0  0  0999 V2000
   -4.0428   -2.1652    0.7783 H   0  0  0  0  0  0  0  0  0  0  0  0
   -4.0007   -1.1397    0.3994 C   0  0  0  0  0  0  0  0  0  0  0  0
   -4.8613   -0.5876    0.7844 H   0  0  0  0  0  0  0  0  0  0  0  0
   -4.0517   -1.1696   -0.6915 H   0  0  0  0  0  0  0  0  0  0  0  0
   -2.7124   -0.4710    0.8411 C   0  0  0  0  0  0  0  0  0  0  0  0
   -1.9689   -1.0735    1.5926 O   0  0  0  0  0  0  0  0  0  0  0  0
   -2.4518    0.8213    0.4117 N   0  0  0  0  0  0  0  0  0  0  0  0
   -3.1442    1.1882   -0.2357 H   0  0  0  0  0  0  0  0  0  0  0  0
   -1.1763    1.5715    0.5115 C   0  0  1  0  0  0  0  0  0  0  0  0
   -1.3791    2.6157    0.2561 H   0  0  0  0  0  0  0  0  0  0  0  0
   -0.5438    1.5687    1.9260 C   0  0  0  0  0  0  0  0  0  0  0  0
   -0.3483    0.5512    2.2728 H   0  0  0  0  0  0  0  0  0  0  0  0
    0.4338    2.0594    1.8585 H   0  0  0  0  0  0  0  0  0  0  0  0
   -1.3758    2.3341    2.9568 C   0  0  0  0  0  0  0  0  0  0  0  0
   -1.4957    3.3773    2.6465 H   0  0  0  0  0  0  0  0  0  0  0  0
   -2.3689    1.8791    3.0398 H   0  0  0  0  0  0  0  0  0  0  0  0
   -0.6506    2.2559    4.2985 C   0  0  0  0  0  0  0  0  0  0  0  0
   -0.5243    1.2004    4.5662 H   0  0  0  0  0  0  0  0  0  0  0  0
    0.3429    2.7063    4.1928 H   0  0  0  0  0  0  0  0  0  0  0  0
   -1.4100    2.9548    5.3504 N   0  3  0  0  0  0  0  0  0  0  0  0
   -2.2793    3.4089    5.0752 H   0  0  0  0  0  0  0  0  0  0  0  0
   -1.0348    2.9854    6.5968 C   0  0  0  0  0  0  0  0  0  0  0  0
    0.1144    2.3577    7.0218 N   0  0  0  0  0  0  0  0  0  0  0  0
    0.5767    1.7254    6.3705 H   0  0  0  0  0  0  0  0  0  0  0  0
    0.2408    2.1920    8.0181 H   0  0  0  0  0  0  0  0  0  0  0  0
   -1.7974    3.6590    7.5210 N   0  0  0  0  0  0  0  0  0  0  0  0
   -2.5394    4.2725    7.1904 H   0  0  0  0  0  0  0  0  0  0  0  0
   -1.3930    3.8494    8.4360 H   0  0  0  0  0  0  0  0  0  0  0  0
   -0.1579    1.0564   -0.5387 C   0  0  0  0  0  0  0  0  0  0  0  0
    0.8560    0.4553   -0.2110 O   0  0  0  0  0  0  0  0  0  0  0  0
   -0.3186    1.3999   -1.8703 N   0  0  0  0  0  0  0  0  0  0  0  0
   -1.1530    1.9137   -2.1349 H   0  0  0  0  0  0  0  0  0  0  0  0
    0.6291    1.0166   -2.9126 C   0  0  0  0  0  0  0  0  0  0  0  0
    0.7134   -0.0739   -2.9724 H   0  0  0  0  0  0  0  0  0  0  0  0
    0.2970    1.3910   -3.8858 H   0  0  0  0  0  0  0  0  0  0  0  0
    1.6200    1.4339   -2.7030 H   0  0  0  0  0  0  0  0  0  0  0  0
  1  2  1  0  0  0  0
  2  3  1  0  0  0  0
  2  4  1  0  0  0  0
  2  5  1  0  0  0  0
  5  6  2  0  0  0  0
  5  7  1  0  0  0  0
  7  8  1  0  0  0  0
  7  9  1  0  0  0  0
  9 10  1  0  0  0  0
  9 11  1  0  0  0  0
  9 29  1  0  0  0  0
 11 12  1  0  0  0  0
 11 13  1  0  0  0  0
 11 14  1  0  0  0  0
 14 15  1  0  0  0  0
 14 16  1  0  0  0  0
 14 17  1  0  0  0  0
 17 18  1  0  0  0  0
 17 19  1  0  0  0  0
 17 20  1  0  0  0  0
 20 21  1  0  0  0  0
 20 22  2  0  0  0  0
 22 23  1  0  0  0  0
 22 26  1  0  0  0  0
 23 24  1  0  0  0  0
 23 25  1  0  0  0  0
 26 27  1  0  0  0  0
 26 28  1  0  0  0  0
 29 30  2  0  0  0  0
 29 31  1  0  0  0  0
 31 32  1  0  0  0  0
 31 33  1  0  0  0  0
 33 34  1  0  0  0  0
 33 35  1  0  0  0  0
 33 36  1  0  0  0  0
M  CHG  1  20   1
M  END
$$$$

  -OEChem-02172215453D

 36 35  0     1  0  0  0  0  0999 V2000
   -3.9809   -2.1798    0.7126 H   0  0  0  0  0  0  0  0  0  0  0  0
   -3.9412   -1.1623    0.3125 C   0  0  0  0  0  0  0  0  0  0  0  0
   -4.8562   -0.6373    0.5963 H   0  0  0  0  0  0  0  0  0  0  0  0
   -3.8816   -1.2198   -0.7770 H   0  0  0  0  0  0  0  0  0  0  0  0
   -2.7303   -0.4323    0.8622 C   0  0  0  0  0  0  0  0  0  0  0  0
   -2.0756   -0.9691    1.7373 O   0  0  0  0  0  0  0  0  0  0  0  0
   -2.4745    0.8572    0.4194 N   0  0  0  0  0  0  0  0  0  0  0  0
   -3.1105    1.1598   -0.3135 H   0  0  0  0  0  0  0  0  0  0  0  0
   -1.2007    1.6115    0.5172 C   0  0  1  0  0  0  0  0  0  0  0  0
   -1.4052    2.6562    0.2658 H   0  0  0  0  0  0  0  0  0  0  0  0
   -0.5506    1.5995    1.9222 C   0  0  0  0  0  0  0  0  0  0  0  0
   -0.3444    0.5813    2.2602 H   0  0  0  0  0  0  0  0  0  0  0  0
    0.4243    2.0937    1.8450 H   0  0  0  0  0  0  0  0  0  0  0  0
   -1.3780    2.3526    2.9660 C   0  0  0  0  0  0  0  0  0  0  0  0
   -1.5076    3.3968    2.6635 H   0  0  0  0  0  0  0  0  0  0  0  0
   -2.3672    1.8899    3.0537 H   0  0  0  0  0  0  0  0  0  0  0  0
   -0.6436    2.2714    4.3014 C   0  0  0  0  0  0  0  0  0  0  0  0
   -0.5102    1.2150    4.5609 H   0  0  0  0  0  0  0  0  0  0  0  0
    0.3463    2.7281    4.1915 H   0  0  0  0  0  0  0  0  0  0  0  0
   -1.4007    2.9587    5.3627 N   0  3  0  0  0  0  0  0  0  0  0  0
   -2.2794    3.4012    5.0981 H   0  0  0  0  0  0  0  0  0  0  0  0
   -1.0160    2.9836    6.6064 C   0  0  0  0  0  0  0  0  0  0  0  0
    0.1409    2.3607    7.0177 N   0  0  0  0  0  0  0  0  0  0  0  0
    0.5992    1.7347    6.3577 H   0  0  0  0  0  0  0  0  0  0  0  0
    0.2720    2.1829    8.0114 H   0  0  0  0  0  0  0  0  0  0  0  0
   -1.7777    3.6406    7.5432 N   0  0  0  0  0  0  0  0  0  0  0  0
   -2.5317    4.2462    7.2254 H   0  0  0  0  0  0  0  0  0  0  0  0
   -1.3695    3.8254    8.4580 H   0  0  0  0  0  0  0  0  0  0  0  0
   -0.1826    1.0851   -0.5259 C   0  0  0  0  0  0  0  0  0  0  0  0
    0.6393    0.2259   -0.2407 O   0  0  0  0  0  0  0  0  0  0  0  0
   -0.1414    1.6469   -1.7905 N   0  0  0  0  0  0  0  0  0  0  0  0
   -0.8173    2.3698   -2.0174 H   0  0  0  0  0  0  0  0  0  0  0  0
    0.8055    1.2246   -2.8188 C   0  0  0  0  0  0  0  0  0  0  0  0
    0.6875    0.1572   -3.0347 H   0  0  0  0  0  0  0  0  0  0  0  0
    0.6373    1.7839   -3.7443 H   0  0  0  0  0  0  0  0  0  0  0  0
    1.8346    1.4035   -2.4891 H   0  0  0  0  0  0  0  0  0  0  0  0
  1  2  1  0  0  0  0
  2  3  1  0  0  0  0
  2  4  1  0  0  0  0
  2  5  1  0  0  0  0
  5  6  2  0  0  0  0
  5  7  1  0  0  0  0
  7  8  1  0  0  0  0
  7  9  1  0  0  0  0
  9 10  1  0  0  0  0
  9 11  1  0  0  0  0
  9 29  1  0  0  0  0
 11 12  1  0  0  0  0
 11 13  1  0  0  0  0
 11 14  1  0  0  0  0
 14 15  1  0  0  0  0
 14 16  1  0  0  0  0
 14 17  1  0  0  0  0
 17 18  1  0  0  0  0
 17 19  1  0  0  0  0
 17 20  1  0  0  0  0
 20 21  1  0  0  0  0
 20 22  2  0  0  0  0
 22 23  1  0  0  0  0
 22 26  1  0  0  0  0
 23 24  1  0  0  0  0
 23 25  1  0  0  0  0
 26 27  1  0  0  0  0
 26 28  1  0  0  0  0
 29 30  2  0  0  0  0
 29 31  1  0  0  0  0
 31 32  1  0  0  0  0
 31 33  1  0  0  0  0
 33 34  1  0  0  0  0
 33 35  1  0  0  0  0
 33 36  1  0  0  0  0
M  CHG  1  20   1
M  END
$$$$

  -OEChem-02172215453D

 36 35  0     1  0  0  0  0  0999 V2000
   -3.8734   -2.1900    0.6595 H   0  0  0  0  0  0  0  0  0  0  0  0
   -3.8240   -1.1952    0.2077 C   0  0  0  0  0  0  0  0  0  0  0  0
   -4.8004   -0.7149    0.3049 H   0  0  0  0  0  0  0  0  0  0  0  0
   -3.5816   -1.3066   -0.8521 H   0  0  0  0  0  0  0  0  0  0  0  0
   -2.7616   -0.3616    0.8985 C   0  0  0  0  0  0  0  0  0  0  0  0
   -2.2613   -0.7867    1.9260 O   0  0  0  0  0  0  0  0  0  0  0  0
   -2.5139    0.9213    0.4318 N   0  0  0  0  0  0  0  0  0  0  0  0
   -3.0706    1.1417   -0.3901 H   0  0  0  0  0  0  0  0  0  0  0  0
   -1.2345    1.6665    0.5283 C   0  0  1  0  0  0  0  0  0  0  0  0
   -1.4303    2.7134    0.2799 H   0  0  0  0  0  0  0  0  0  0  0  0
   -0.5629    1.6336    1.9210 C   0  0  0  0  0  0  0  0  0  0  0  0
   -0.3521    0.6098    2.2406 H   0  0  0  0  0  0  0  0  0  0  0  0
    0.4114    2.1275    1.8367 H   0  0  0  0  0  0  0  0  0  0  0  0
   -1.3770    2.3776    2.9814 C   0  0  0  0  0  0  0  0  0  0  0  0
   -1.5101    3.4247    2.6902 H   0  0  0  0  0  0  0  0  0  0  0  0
   -2.3656    1.9145    3.0744 H   0  0  0  0  0  0  0  0  0  0  0  0
   -0.6320    2.2829    4.3094 C   0  0  0  0  0  0  0  0  0  0  0  0
   -0.4992    1.2238    4.5592 H   0  0  0  0  0  0  0  0  0  0  0  0
    0.3577    2.7391    4.1966 H   0  0  0  0  0  0  0  0  0  0  0  0
   -1.3833    2.9629    5.3792 N   0  3  0  0  0  0  0  0  0  0  0  0
   -2.2658    3.4022    5.1222 H   0  0  0  0  0  0  0  0  0  0  0  0
   -0.9947    2.9794    6.6214 C   0  0  0  0  0  0  0  0  0  0  0  0
    0.1629    2.3531    7.0248 N   0  0  0  0  0  0  0  0  0  0  0  0
    0.6153    1.7275    6.3605 H   0  0  0  0  0  0  0  0  0  0  0  0
    0.2969    2.1708    8.0171 H   0  0  0  0  0  0  0  0  0  0  0  0
   -1.7573    3.6259    7.5649 N   0  0  0  0  0  0  0  0  0  0  0  0
   -2.5153    4.2301    7.2542 H   0  0  0  0  0  0  0  0  0  0  0  0
   -1.3532    3.7976    8.4836 H   0  0  0  0  0  0  0  0  0  0  0  0
   -0.2211    1.1133   -0.5034 C   0  0  0  0  0  0  0  0  0  0  0  0
    0.3317    0.0368   -0.3305 O   0  0  0  0  0  0  0  0  0  0  0  0
    0.0616    1.8297   -1.6532 N   0  0  0  0  0  0  0  0  0  0  0  0
   -0.4126    2.7162   -1.7965 H   0  0  0  0  0  0  0  0  0  0  0  0
    0.9899    1.3578   -2.6767 C   0  0  0  0  0  0  0  0  0  0  0  0
    0.6593    0.3947   -3.0806 H   0  0  0  0  0  0  0  0  0  0  0  0
    1.0452    2.0758   -3.5006 H   0  0  0  0  0  0  0  0  0  0  0  0
    1.9945    1.2360   -2.2572 H   0  0  0  0  0  0  0  0  0  0  0  0
  1  2  1  0  0  0  0
  2  3  1  0  0  0  0
  2  4  1  0  0  0  0
  2  5  1  0  0  0  0
  5  6  2  0  0  0  0
  5  7  1  0  0  0  0
  7  8  1  0  0  0  0
  7  9  1  0  0  0  0
  9 10  1  0  0  0  0
  9 11  1  0  0  0  0
  9 29  1  0  0  0  0
 11 12  1  0  0  0  0
 11 13  1  0  0  0  0
 11 14  1  0  0  0  0
 14 15  1  0  0  0  0
 14 16  1  0  0  0  0
 14 17  1  0  0  0  0
 17 18  1  0  0  0  0
 17 19  1  0  0  0  0
 17 20  1  0  0  0  0
 20 21  1  0  0  0  0
 20 22  2  0  0  0  0
 22 23  1  0  0  0  0
 22 26  1  0  0  0  0
 23 24  1  0  0  0  0
 23 25  1  0  0  0  0
 26 27  1  0  0  0  0
 26 28  1  0  0  0  0
 29 30  2  0  0  0  0
 29 31  1  0  0  0  0
 31 32  1  0  0  0  0
 31 33  1  0  0  0  0
 33 34  1  0  0  0  0
 33 35  1  0  0  0  0
 33 36  1  0  0  0  0
M  CHG  1  20   1
M  END
$$$$

  -OEChem-02172215453D

 36 35  0     1  0  0  0  0  0999 V2000
   -3.8007   -2.1996    0.6402 H   0  0  0  0  0  0  0  0  0  0  0  0
   -3.7635   -1.2080    0.1800 C   0  0  0  0  0  0  0  0  0  0  0  0
   -4.7617   -0.7653    0.2135 H   0  0  0  0  0  0  0  0  0  0  0  0
   -3.4530   -1.3208   -0.8618 H   0  0  0  0  0  0  0  0  0  0  0  0
   -2.7764   -0.3262    0.9201 C   0  0  0  0  0  0  0  0  0  0  0  0
   -2.3448   -0.7029    1.9978 O   0  0  0  0  0  0  0  0  0  0  0  0
   -2.5326    0.9528    0.4407 N   0  0  0  0  0  0  0  0  0  0  0  0
   -3.0540    1.1356   -0.4128 H   0  0  0  0  0  0  0  0  0  0  0  0
   -1.2464    1.6881    0.5317 C   0  0  1  0  0  0  0  0  0  0  0  0
   -1.4373    2.7360    0.2826 H   0  0  0  0  0  0  0  0  0  0  0  0
   -0.5618    1.6403    1.9166 C   0  0  0  0  0  0  0  0  0  0  0  0
   -0.3570    0.6114    2.2249 H   0  0  0  0  0  0  0  0  0  0  0  0
    0.4153    2.1280    1.8294 H   0  0  0  0  0  0  0  0  0  0  0  0
   -1.3654    2.3837    2.9865 C   0  0  0  0  0  0  0  0  0  0  0  0
   -1.4951    3.4323    2.6994 H   0  0  0  0  0  0  0  0  0  0  0  0
   -2.3564    1.9263    3.0814 H   0  0  0  0  0  0  0  0  0  0  0  0
   -0.6205    2.2833    4.3148 C   0  0  0  0  0  0  0  0  0  0  0  0
   -0.4924    1.2236    4.5640 H   0  0  0  0  0  0  0  0  0  0  0  0
    0.3710    2.7364    4.2059 H   0  0  0  0  0  0  0  0  0  0  0  0
   -1.3732    2.9658    5.3825 N   0  3  0  0  0  0  0  0  0  0  0  0
   -2.2572    3.4009    5.1232 H   0  0  0  0  0  0  0  0  0  0  0  0
   -0.9901    2.9819    6.6265 C   0  0  0  0  0  0  0  0  0  0  0  0
    0.1640    2.3521    7.0342 N   0  0  0  0  0  0  0  0  0  0  0  0
    0.6149    1.7245    6.3710 H   0  0  0  0  0  0  0  0  0  0  0  0
    0.2900    2.1645    8.0266 H   0  0  0  0  0  0  0  0  0  0  0  0
   -1.7561    3.6275    7.5679 N   0  0  0  0  0  0  0  0  0  0  0  0
   -2.5192    4.2253    7.2571 H   0  0  0  0  0  0  0  0  0  0  0  0
   -1.3566    3.7976    8.4891 H   0  0  0  0  0  0  0  0  0  0  0  0
   -0.2357    1.1240   -0.4966 C   0  0  0  0  0  0  0  0  0  0  0  0
    0.0661   -0.0608   -0.4918 O   0  0  0  0  0  0  0  0  0  0  0  0
    0.2919    1.9425   -1.4796 N   0  0  0  0  0  0  0  0  0  0  0  0
    0.0122    2.9187   -1.4943 H   0  0  0  0  0  0  0  0  0  0  0  0
    1.2188    1.4639   -2.5016 C   0  0  0  0  0  0  0  0  0  0  0  0
    0.7529    0.6779   -3.1057 H   0  0  0  0  0  0  0  0  0  0  0  0
    1.5083    2.2836   -3.1663 H   0  0  0  0  0  0  0  0  0  0  0  0
    2.1255    1.0590   -2.0390 H   0  0  0  0  0  0  0  0  0  0  0  0
  1  2  1  0  0  0  0
  2  3  1  0  0  0  0
  2  4  1  0  0  0  0
  2  5  1  0  0  0  0
  5  6  2  0  0  0  0
  5  7  1  0  0  0  0
  7  8  1  0  0  0  0
  7  9  1  0  0  0  0
  9 10  1  0  0  0  0
  9 11  1  0  0  0  0
  9 29  1  0  0  0  0
 11 12  1  0  0  0  0
 11 13  1  0  0  0  0
 11 14  1  0  0  0  0
 14 15  1  0  0  0  0
 14 16  1  0  0  0  0
 14 17  1  0  0  0  0
 17 18  1  0  0  0  0
 17 19  1  0  0  0  0
 17 20  1  0  0  0  0
 20 21  1  0  0  0  0
 20 22  2  0  0  0  0
 22 23  1  0  0  0  0
 22 26  1  0  0  0  0
 23 24  1  0  0  0  0
 23 25  1  0  0  0  0
 26 27  1  0  0  0  0
 26 28  1  0  0  0  0
 29 30  2  0  0  0  0
 29 31  1  0  0  0  0
 31 32  1  0  0  0  0
 31 33  1  0  0  0  0
 33 34  1  0  0  0  0
 33 35  1  0  0  0  0
 33 36  1  0  0  0  0
M  CHG  1  20   1
M  END
$$$$

  -OEChem-02172215453D

 36 35  0     1  0  0  0  0  0999 V2000
   -3.7881   -2.1996    0.6370 H   0  0  0  0  0  0  0  0  0  0  0  0
   -3.7417   -1.2122    0.1690 C   0  0  0  0  0  0  0  0  0  0  0  0
   -4.7420   -0.7736    0.1683 H   0  0  0  0  0  0  0  0  0  0  0  0
   -3.3998   -1.3321   -0.8624 H   0  0  0  0  0  0  0  0  0  0  0  0
   -2.7796   -0.3198    0.9290 C   0  0  0  0  0  0  0  0  0  0  0  0
   -2.3612   -0.6911    2.0144 O   0  0  0  0  0  0  0  0  0  0  0  0
   -2.5333    0.9590    0.4510 N   0  0  0  0  0  0  0  0  0  0  0  0
   -3.0364    1.1289   -0.4163 H   0  0  0  0  0  0  0  0  0  0  0  0
   -1.2403    1.6834    0.5395 C   0  0  1  0  0  0  0  0  0  0  0  0
   -1.4272    2.7320    0.2911 H   0  0  0  0  0  0  0  0  0  0  0  0
   -0.5526    1.6279    1.9215 C   0  0  0  0  0  0  0  0  0  0  0  0
   -0.3562    0.5966    2.2271 H   0  0  0  0  0  0  0  0  0  0  0  0
    0.4279    2.1092    1.8341 H   0  0  0  0  0  0  0  0  0  0  0  0
   -1.3508    2.3781    2.9915 C   0  0  0  0  0  0  0  0  0  0  0  0
   -1.4734    3.4269    2.7024 H   0  0  0  0  0  0  0  0  0  0  0  0
   -2.3454    1.9283    3.0859 H   0  0  0  0  0  0  0  0  0  0  0  0
   -0.6116    2.2760    4.3226 C   0  0  0  0  0  0  0  0  0  0  0  0
   -0.4917    1.2164    4.5763 H   0  0  0  0  0  0  0  0  0  0  0  0
    0.3831    2.7227    4.2164 H   0  0  0  0  0  0  0  0  0  0  0  0
   -1.3673    2.9677    5.3821 N   0  3  0  0  0  0  0  0  0  0  0  0
   -2.2453    3.4095    5.1135 H   0  0  0  0  0  0  0  0  0  0  0  0
   -0.9942    2.9881    6.6290 C   0  0  0  0  0  0  0  0  0  0  0  0
    0.1526    2.3539    7.0502 N   0  0  0  0  0  0  0  0  0  0  0  0
    0.6040    1.7183    6.3950 H   0  0  0  0  0  0  0  0  0  0  0  0
    0.2664    2.1692    8.0448 H   0  0  0  0  0  0  0  0  0  0  0  0
   -1.7623    3.6470    7.5594 N   0  0  0  0  0  0  0  0  0  0  0  0
   -2.5169    4.2501    7.2380 H   0  0  0  0  0  0  0  0  0  0  0  0
   -1.3695    3.8197    8.4830 H   0  0  0  0  0  0  0  0  0  0  0  0
   -0.2301    1.1216   -0.4918 C   0  0  0  0  0  0  0  0  0  0  0  0
   -0.1515   -0.0811   -0.7011 O   0  0  0  0  0  0  0  0  0  0  0  0
    0.5316    1.9824   -1.2624 N   0  0  0  0  0  0  0  0  0  0  0  0
    0.4248    2.9816   -1.1154 H   0  0  0  0  0  0  0  0  0  0  0  0
    1.4531    1.5205   -2.2964 C   0  0  0  0  0  0  0  0  0  0  0  0
    0.9118    0.9770   -3.0783 H   0  0  0  0  0  0  0  0  0  0  0  0
    1.9646    2.3705   -2.7583 H   0  0  0  0  0  0  0  0  0  0  0  0
    2.2102    0.8555   -1.8668 H   0  0  0  0  0  0  0  0  0  0  0  0
  1  2  1  0  0  0  0
  2  3  1  0  0  0  0
  2  4  1  0  0  0  0
  2  5  1  0  0  0  0
  5  6  2  0  0  0  0
  5  7  1  0  0  0  0
  7  8  1  0  0  0  0
  7  9  1  0  0  0  0
  9 10  1  0  0  0  0
  9 11  1  0  0  0  0
  9 29  1  0  0  0  0
 11 12  1  0  0  0  0
 11 13  1  0  0  0  0
 11 14  1  0  0  0  0
 14 15  1  0  0  0  0
 14 16  1  0  0  0  0
 14 17  1  0  0  0  0
 17 18  1  0  0  0  0
 17 19  1  0  0  0  0
 17 20  1  0  0  0  0
 20 21  1  0  0  0  0
 20 22  2  0  0  0  0
 22 23  1  0  0  0  0
 22 26  1  0  0  0  0
 23 24  1  0  0  0  0
 23 25  1  0  0  0  0
 26 27  1  0  0  0  0
 26 28  1  0  0  0  0
 29 30  2  0  0  0  0
 29 31  1  0  0  0  0
 31 32  1  0  0  0  0
 31 33  1  0  0  0  0
 33 34  1  0  0  0  0
 33 35  1  0  0  0  0
 33 36  1  0  0  0  0
M  CHG  1  20   1
M  END
$$$$

  -OEChem-02172215453D

 36 35  0     1  0  0  0  0  0999 V2000
   -3.8137   -2.1935    0.6448 H   0  0  0  0  0  0  0  0  0  0  0  0
   -3.7522   -1.2066    0.1777 C   0  0  0  0  0  0  0  0  0  0  0  0
   -4.7443   -0.7496    0.1851 H   0  0  0  0  0  0  0  0  0  0  0  0
   -3.4200   -1.3314   -0.8564 H   0  0  0  0  0  0  0  0  0  0  0  0
   -2.7681   -0.3326    0.9311 C   0  0  0  0  0  0  0  0  0  0  0  0
   -2.3208   -0.7275    1.9965 O   0  0  0  0  0  0  0  0  0  0  0  0
   -2.5182    0.9489    0.4632 N   0  0  0  0  0  0  0  0  0  0  0  0
   -3.0205    1.1234   -0.4038 H   0  0  0  0  0  0  0  0  0  0  0  0
   -1.2211    1.6666    0.5482 C   0  0  1  0  0  0  0  0  0  0  0  0
   -1.4061    2.7165    0.3020 H   0  0  0  0  0  0  0  0  0  0  0  0
   -0.5326    1.6077    1.9305 C   0  0  0  0  0  0  0  0  0  0  0  0
   -0.3394    0.5771    2.2386 H   0  0  0  0  0  0  0  0  0  0  0  0
    0.4492    2.0861    1.8455 H   0  0  0  0  0  0  0  0  0  0  0  0
   -1.3313    2.3648    2.9954 C   0  0  0  0  0  0  0  0  0  0  0  0
   -1.4482    3.4129    2.7015 H   0  0  0  0  0  0  0  0  0  0  0  0
   -2.3286    1.9195    3.0864 H   0  0  0  0  0  0  0  0  0  0  0  0
   -0.6021    2.2670    4.3323 C   0  0  0  0  0  0  0  0  0  0  0  0
   -0.4883    1.2087    4.5935 H   0  0  0  0  0  0  0  0  0  0  0  0
    0.3950    2.7098    4.2318 H   0  0  0  0  0  0  0  0  0  0  0  0
   -1.3654    2.9681    5.3803 N   0  3  0  0  0  0  0  0  0  0  0  0
   -2.2375    3.4140    5.0995 H   0  0  0  0  0  0  0  0  0  0  0  0
   -1.0051    2.9964    6.6309 C   0  0  0  0  0  0  0  0  0  0  0  0
    0.1349    2.3625    7.0698 N   0  0  0  0  0  0  0  0  0  0  0  0
    0.5896    1.7166    6.4271 H   0  0  0  0  0  0  0  0  0  0  0  0
    0.2396    2.1906    8.0676 H   0  0  0  0  0  0  0  0  0  0  0  0
   -1.7798    3.6655    7.5481 N   0  0  0  0  0  0  0  0  0  0  0  0
   -2.5289    4.2690    7.2147 H   0  0  0  0  0  0  0  0  0  0  0  0
   -1.3956    3.8439    8.4742 H   0  0  0  0  0  0  0  0  0  0  0  0
   -0.2164    1.1128   -0.4944 C   0  0  0  0  0  0  0  0  0  0  0  0
   -0.3329   -0.0208   -0.9407 O   0  0  0  0  0  0  0  0  0  0  0  0
    0.7538    1.9399   -1.0333 N   0  0  0  0  0  0  0  0  0  0  0  0
    0.8045    2.8990   -0.7039 H   0  0  0  0  0  0  0  0  0  0  0  0
    1.6758    1.5086   -2.0802 C   0  0  0  0  0  0  0  0  0  0  0  0
    1.1263    1.2428   -2.9896 H   0  0  0  0  0  0  0  0  0  0  0  0
    2.3787    2.3115   -2.3236 H   0  0  0  0  0  0  0  0  0  0  0  0
    2.2504    0.6363   -1.7502 H   0  0  0  0  0  0  0  0  0  0  0  0
  1  2  1  0  0  0  0
  2  3  1  0  0  0  0
  2  4  1  0  0  0  0
  2  5  1  0  0  0  0
  5  6  2  0  0  0  0
  5  7  1  0  0  0  0
  7  8  1  0  0  0  0
  7  9  1  0  0  0  0
  9 10  1  0  0  0  0
  9 11  1  0  0  0  0
  9 29  1  0  0  0  0
 11 12  1  0  0  0  0
 11 13  1  0  0  0  0
 11 14  1  0  0  0  0
 14 15  1  0  0  0  0
 14 16  1  0  0  0  0
 14 17  1  0  0  0  0
 17 18  1  0  0  0  0
 17 19  1  0  0  0  0
 17 20  1  0  0  0  0
 20 21  1  0  0  0  0
 20 22  2  0  0  0  0
 22 23  1  0  0  0  0
 22 26  1  0  0  0  0
 23 24  1  0  0  0  0
 23 25  1  0  0  0  0
 26 27  1  0  0  0  0
 26 28  1  0  0  0  0
 29 30  2  0  0  0  0
 29 31  1  0  0  0  0
 31 32  1  0  0  0  0
 31 33  1  0  0  0  0
 33 34  1  0  0  0  0
 33 35  1  0  0  0  0
 33 36  1  0  0  0  0
M  CHG  1  20   1
M  END
$$$$

  -OEChem-02172215453D

 36 35  0     1  0  0  0  0  0999 V2000
   -3.8041   -2.1979    0.6215 H   0  0  0  0  0  0  0  0  0  0  0  0
   -3.7717   -1.1892    0.2004 C   0  0  0  0  0  0  0  0  0  0  0  0
   -4.7608   -0.7348    0.2926 H   0  0  0  0  0  0  0  0  0  0  0  0
   -3.5063   -1.2627   -0.8576 H   0  0  0  0  0  0  0  0  0  0  0  0
   -2.7414   -0.3502    0.9312 C   0  0  0  0  0  0  0  0  0  0  0  0
   -2.2473   -0.7868    1.9586 O   0  0  0  0  0  0  0  0  0  0  0  0
   -2.4854    0.9358    0.4791 N   0  0  0  0  0  0  0  0  0  0  0  0
   -2.9958    1.1271   -0.3801 H   0  0  0  0  0  0  0  0  0  0  0  0
   -1.1851    1.6489    0.5606 C   0  0  1  0  0  0  0  0  0  0  0  0
   -1.3658    2.6996    0.3151 H   0  0  0  0  0  0  0  0  0  0  0  0
   -0.5057    1.5890    1.9496 C   0  0  0  0  0  0  0  0  0  0  0  0
   -0.3178    0.5599    2.2646 H   0  0  0  0  0  0  0  0  0  0  0  0
    0.4781    2.0637    1.8757 H   0  0  0  0  0  0  0  0  0  0  0  0
   -1.3115    2.3548    3.0032 C   0  0  0  0  0  0  0  0  0  0  0  0
   -1.4207    3.4021    2.7033 H   0  0  0  0  0  0  0  0  0  0  0  0
   -2.3118    1.9144    3.0849 H   0  0  0  0  0  0  0  0  0  0  0  0
   -0.5989    2.2606    4.3493 C   0  0  0  0  0  0  0  0  0  0  0  0
   -0.4946    1.2032    4.6176 H   0  0  0  0  0  0  0  0  0  0  0  0
    0.4020    2.6972    4.2597 H   0  0  0  0  0  0  0  0  0  0  0  0
   -1.3718    2.9709    5.3838 N   0  3  0  0  0  0  0  0  0  0  0  0
   -2.2405    3.4159    5.0910 H   0  0  0  0  0  0  0  0  0  0  0  0
   -1.0278    3.0049    6.6387 C   0  0  0  0  0  0  0  0  0  0  0  0
    0.1033    2.3688    7.0978 N   0  0  0  0  0  0  0  0  0  0  0  0
    0.5679    1.7204    6.4648 H   0  0  0  0  0  0  0  0  0  0  0  0
    0.1922    2.2015    8.0981 H   0  0  0  0  0  0  0  0  0  0  0  0
   -1.8149    3.6812    7.5400 N   0  0  0  0  0  0  0  0  0  0  0  0
   -2.5554    4.2864    7.1910 H   0  0  0  0  0  0  0  0  0  0  0  0
   -1.4440    3.8653    8.4703 H   0  0  0  0  0  0  0  0  0  0  0  0
   -0.1928    1.1017   -0.5002 C   0  0  0  0  0  0  0  0  0  0  0  0
   -0.4733    0.1152   -1.1695 O   0  0  0  0  0  0  0  0  0  0  0  0
    0.9554    1.8075   -0.8182 N   0  0  0  0  0  0  0  0  0  0  0  0
    1.1476    2.6642   -0.3086 H   0  0  0  0  0  0  0  0  0  0  0  0
    1.8661    1.4087   -1.8884 C   0  0  0  0  0  0  0  0  0  0  0  0
    1.3503    1.4188   -2.8548 H   0  0  0  0  0  0  0  0  0  0  0  0
    2.7150    2.0974   -1.9429 H   0  0  0  0  0  0  0  0  0  0  0  0
    2.2524    0.3995   -1.7083 H   0  0  0  0  0  0  0  0  0  0  0  0
  1  2  1  0  0  0  0
  2  3  1  0  0  0  0
  2  4  1  0  0  0  0
  2  5  1  0  0  0  0
  5  6  2  0  0  0  0
  5  7  1  0  0  0  0
  7  8  1  0  0  0  0
  7  9  1  0  0  0  0
  9 10  1  0  0  0  0
  9 11  1  0  0  0  0
  9 29  1  0  0  0  0
 11 12  1  0  0  0  0
 11 13  1  0  0  0  0
 11 14  1  0  0  0  0
 14 15  1  0  0  0  0
 14 16  1  0  0  0  0
 14 17  1  0  0  0  0
 17 18  1  0  0  0  0
 17 19  1  0  0  0  0
 17 20  1  0  0  0  0
 20 21  1  0  0  0  0
 20 22  2  0  0  0  0
 22 23  1  0  0  0  0
 22 26  1  0  0  0  0
 23 24  1  0  0  0  0
 23 25  1  0  0  0  0
 26 27  1  0  0  0  0
 26 28  1  0  0  0  0
 29 30  2  0  0  0  0
 29 31  1  0  0  0  0
 31 32  1  0  0  0  0
 31 33  1  0  0  0  0
 33 34  1  0  0  0  0
 33 35  1  0  0  0  0
 33 36  1  0  0  0  0
M  CHG  1  20   1
M  END
$$$$

  -OEChem-02172215453D

 36 35  0     1  0  0  0  0  0999 V2000
   -3.9722   -2.1083    0.5409 H   0  0  0  0  0  0  0  0  0  0  0  0
   -3.8826   -1.0832    0.1704 C   0  0  0  0  0  0  0  0  0  0  0  0
   -4.8278   -0.5623    0.3397 H   0  0  0  0  0  0  0  0  0  0  0  0
   -3.6803   -1.1166   -0.9034 H   0  0  0  0  0  0  0  0  0  0  0  0
   -2.7545   -0.3631    0.8846 C   0  0  0  0  0  0  0  0  0  0  0  0
   -2.2095   -0.9154    1.8279 O   0  0  0  0  0  0  0  0  0  0  0  0
   -2.4428    0.9287    0.4893 N   0  0  0  0  0  0  0  0  0  0  0  0
   -2.9640    1.1901   -0.3463 H   0  0  0  0  0  0  0  0  0  0  0  0
   -1.1307    1.6191    0.5866 C   0  0  1  0  0  0  0  0  0  0  0  0
   -1.3274    2.6948    0.6239 H   0  0  0  0  0  0  0  0  0  0  0  0
   -0.2791    1.2581    1.8283 C   0  0  0  0  0  0  0  0  0  0  0  0
   -0.0731    0.1849    1.8671 H   0  0  0  0  0  0  0  0  0  0  0  0
    0.6940    1.7521    1.7469 H   0  0  0  0  0  0  0  0  0  0  0  0
   -0.9373    1.7515    3.1236 C   0  0  0  0  0  0  0  0  0  0  0  0
   -1.0653    2.8384    3.0824 H   0  0  0  0  0  0  0  0  0  0  0  0
   -1.9282    1.2980    3.2332 H   0  0  0  0  0  0  0  0  0  0  0  0
   -0.0654    1.3712    4.3170 C   0  0  0  0  0  0  0  0  0  0  0  0
    0.0596    0.2824    4.3280 H   0  0  0  0  0  0  0  0  0  0  0  0
    0.9215    1.8343    4.2079 H   0  0  0  0  0  0  0  0  0  0  0  0
   -0.7028    1.8196    5.5683 N   0  3  0  0  0  0  0  0  0  0  0  0
   -1.5994    2.2967    5.4865 H   0  0  0  0  0  0  0  0  0  0  0  0
   -0.2121    1.5812    6.7500 C   0  0  0  0  0  0  0  0  0  0  0  0
    0.9604    0.8803    6.9189 N   0  0  0  0  0  0  0  0  0  0  0  0
    1.3374    0.3929    6.1083 H   0  0  0  0  0  0  0  0  0  0  0  0
    1.1703    0.5026    7.8406 H   0  0  0  0  0  0  0  0  0  0  0  0
   -0.8795    2.0277    7.8658 N   0  0  0  0  0  0  0  0  0  0  0  0
   -1.6470    2.6865    7.7493 H   0  0  0  0  0  0  0  0  0  0  0  0
   -0.3989    2.0056    8.7634 H   0  0  0  0  0  0  0  0  0  0  0  0
   -0.3178    1.3650   -0.7117 C   0  0  0  0  0  0  0  0  0  0  0  0
   -0.8338    0.7706   -1.6508 O   0  0  0  0  0  0  0  0  0  0  0  0
    0.9487    1.8967   -0.8865 N   0  0  0  0  0  0  0  0  0  0  0  0
    1.3499    2.4368   -0.1268 H   0  0  0  0  0  0  0  0  0  0  0  0
    1.7157    1.7440   -2.1198 C   0  0  0  0  0  0  0  0  0  0  0  0
    1.1830    2.1977   -2.9625 H   0  0  0  0  0  0  0  0  0  0  0  0
    2.6907    2.2320   -2.0250 H   0  0  0  0  0  0  0  0  0  0  0  0
    1.8807    0.6836   -2.3399 H   0  0  0  0  0  0  0  0  0  0  0  0
  1  2  1  0  0  0  0
  2  3  1  0  0  0  0
  2  4  1  0  0  0  0
  2  5  1  0  0  0  0
  5  6  2  0  0  0  0
  5  7  1  0  0  0  0
  7  8  1  0  0  0  0
  7  9  1  0  0  0  0
  9 10  1  0  0  0  0
  9 11  1  0  0  0  0
  9 29  1  0  0  0  0
 11 12  1  0  0  0  0
 11 13  1  0  0  0  0
 11 14  1  0  0  0  0
 14 15  1  0  0  0  0
 14 16  1  0  0  0  0
 14 17  1  0  0  0  0
 17 18  1  0  0  0  0
 17 19  1  0  0  0  0
 17 20  1  0  0  0  0
 20 21  1  0  0  0  0
 20 22  2  0  0  0  0
 22 23  1  0  0  0  0
 22 26  1  0  0  0  0
 23 24  1  0  0  0  0
 23 25  1  0  0  0  0
 26 27  1  0  0  0  0
 26 28  1  0  0  0  0
 29 30  2  0  0  0  0
 29 31  1  0  0  0  0
 31 32  1  0  0  0  0
 31 33  1  0  0  0  0
 33 34  1  0  0  0  0
 33 35  1  0  0  0  0
 33 36  1  0  0  0  0
M  CHG  1  20   1
M  END
$$$$

  -OEChem-02172215453D

 36 35  0     1  0  0  0  0  0999 V2000
   -3.9423   -2.1086    0.5166 H   0  0  0  0  0  0  0  0  0  0  0  0
   -3.8629   -1.0738    0.1718 C   0  0  0  0  0  0  0  0  0  0  0  0
   -4.8040   -0.5594    0.3794 H   0  0  0  0  0  0  0  0  0  0  0  0
   -3.6871   -1.0783   -0.9072 H   0  0  0  0  0  0  0  0  0  0  0  0
   -2.7182   -0.3717    0.8770 C   0  0  0  0  0  0  0  0  0  0  0  0
   -2.1494   -0.9482    1.7910 O   0  0  0  0  0  0  0  0  0  0  0  0
   -2.4101    0.9265    0.5020 N   0  0  0  0  0  0  0  0  0  0  0  0
   -2.9403    1.2084   -0.3220 H   0  0  0  0  0  0  0  0  0  0  0  0
   -1.1014    1.6210    0.6031 C   0  0  1  0  0  0  0  0  0  0  0  0
   -1.2982    2.6966    0.6464 H   0  0  0  0  0  0  0  0  0  0  0  0
   -0.2539    1.2569    1.8479 C   0  0  0  0  0  0  0  0  0  0  0  0
   -0.0409    0.1852    1.8851 H   0  0  0  0  0  0  0  0  0  0  0  0
    0.7153    1.7598    1.7777 H   0  0  0  0  0  0  0  0  0  0  0  0
   -0.9231    1.7459    3.1393 C   0  0  0  0  0  0  0  0  0  0  0  0
   -1.0573    2.8319    3.0988 H   0  0  0  0  0  0  0  0  0  0  0  0
   -1.9119    1.2854    3.2389 H   0  0  0  0  0  0  0  0  0  0  0  0
   -0.0622    1.3672    4.3411 C   0  0  0  0  0  0  0  0  0  0  0  0
    0.0660    0.2788    4.3531 H   0  0  0  0  0  0  0  0  0  0  0  0
    0.9240    1.8342    4.2431 H   0  0  0  0  0  0  0  0  0  0  0  0
   -0.7158    1.8147    5.5843 N   0  3  0  0  0  0  0  0  0  0  0  0
   -1.6058    2.3021    5.4895 H   0  0  0  0  0  0  0  0  0  0  0  0
   -0.2404    1.5790    6.7728 C   0  0  0  0  0  0  0  0  0  0  0  0
    0.9310    0.8810    6.9594 N   0  0  0  0  0  0  0  0  0  0  0  0
    1.3135    0.3855    6.1565 H   0  0  0  0  0  0  0  0  0  0  0  0
    1.1244    0.5026    7.8845 H   0  0  0  0  0  0  0  0  0  0  0  0
   -0.9206    2.0314    7.8782 N   0  0  0  0  0  0  0  0  0  0  0  0
   -1.6874    2.6884    7.7474 H   0  0  0  0  0  0  0  0  0  0  0  0
   -0.4435    2.0267    8.7780 H   0  0  0  0  0  0  0  0  0  0  0  0
   -0.3094    1.3796   -0.7115 C   0  0  0  0  0  0  0  0  0  0  0  0
   -0.9145    1.0351   -1.7201 O   0  0  0  0  0  0  0  0  0  0  0  0
    1.0482    1.6321   -0.8158 N   0  0  0  0  0  0  0  0  0  0  0  0
    1.5443    1.9303    0.0176 H   0  0  0  0  0  0  0  0  0  0  0  0
    1.8028    1.4460   -2.0523 C   0  0  0  0  0  0  0  0  0  0  0  0
    1.4081    2.0910   -2.8448 H   0  0  0  0  0  0  0  0  0  0  0  0
    2.8565    1.6976   -1.8966 H   0  0  0  0  0  0  0  0  0  0  0  0
    1.7430    0.4044   -2.3859 H   0  0  0  0  0  0  0  0  0  0  0  0
  1  2  1  0  0  0  0
  2  3  1  0  0  0  0
  2  4  1  0  0  0  0
  2  5  1  0  0  0  0
  5  6  2  0  0  0  0
  5  7  1  0  0  0  0
  7  8  1  0  0  0  0
  7  9  1  0  0  0  0
  9 10  1  0  0  0  0
  9 11  1  0  0  0  0
  9 29  1  0  0  0  0
 11 12  1  0  0  0  0
 11 13  1  0  0  0  0
 11 14  1  0  0  0  0
 14 15  1  0  0  0  0
 14 16  1  0  0  0  0
 14 17  1  0  0  0  0
 17 18  1  0  0  0  0
 17 19  1  0  0  0  0
 17 20  1  0  0  0  0
 20 21  1  0  0  0  0
 20 22  2  0  0  0  0
 22 23  1  0  0  0  0
 22 26  1  0  0  0  0
 23 24  1  0  0  0  0
 23 25  1  0  0  0  0
 26 27  1  0  0  0  0
 26 28  1  0  0  0  0
 29 30  2  0  0  0  0
 29 31  1  0  0  0  0
 31 32  1  0  0  0  0
 31 33  1  0  0  0  0
 33 34  1  0  0  0  0
 33 35  1  0  0  0  0
 33 36  1  0  0  0  0
M  CHG  1  20   1
M  END
$$$$

  -OEChem-02172215453D

 36 35  0     1  0  0  0  0  0999 V2000
   -3.9581   -2.1004    0.5233 H   0  0  0  0  0  0  0  0  0  0  0  0
   -3.8751   -1.0611    0.1928 C   0  0  0  0  0  0  0  0  0  0  0  0
   -4.7941   -0.5323    0.4563 H   0  0  0  0  0  0  0  0  0  0  0  0
   -3.7544   -1.0489   -0.8935 H   0  0  0  0  0  0  0  0  0  0  0  0
   -2.6830   -0.3939    0.8523 C   0  0  0  0  0  0  0  0  0  0  0  0
   -2.0707   -1.0041    1.7144 O   0  0  0  0  0  0  0  0  0  0  0  0
   -2.3758    0.9101    0.4989 N   0  0  0  0  0  0  0  0  0  0  0  0
   -2.9292    1.2282   -0.2966 H   0  0  0  0  0  0  0  0  0  0  0  0
   -1.0724    1.6096    0.6130 C   0  0  1  0  0  0  0  0  0  0  0  0
   -1.2769    2.6837    0.6617 H   0  0  0  0  0  0  0  0  0  0  0  0
   -0.2277    1.2514    1.8614 C   0  0  0  0  0  0  0  0  0  0  0  0
   -0.0031    0.1824    1.9028 H   0  0  0  0  0  0  0  0  0  0  0  0
    0.7353    1.7671    1.7956 H   0  0  0  0  0  0  0  0  0  0  0  0
   -0.9113    1.7362    3.1461 C   0  0  0  0  0  0  0  0  0  0  0  0
   -1.0558    2.8212    3.1031 H   0  0  0  0  0  0  0  0  0  0  0  0
   -1.8961    1.2647    3.2364 H   0  0  0  0  0  0  0  0  0  0  0  0
   -0.0582    1.3675    4.3563 C   0  0  0  0  0  0  0  0  0  0  0  0
    0.0819    0.2807    4.3718 H   0  0  0  0  0  0  0  0  0  0  0  0
    0.9238    1.8448    4.2657 H   0  0  0  0  0  0  0  0  0  0  0  0
   -0.7284    1.8123    5.5917 N   0  3  0  0  0  0  0  0  0  0  0  0
   -1.6204    2.2934    5.4861 H   0  0  0  0  0  0  0  0  0  0  0  0
   -0.2648    1.5849    6.7864 C   0  0  0  0  0  0  0  0  0  0  0  0
    0.9104    0.8982    6.9888 N   0  0  0  0  0  0  0  0  0  0  0  0
    1.3087    0.4058    6.1917 H   0  0  0  0  0  0  0  0  0  0  0  0
    1.0999    0.5280    7.9181 H   0  0  0  0  0  0  0  0  0  0  0  0
   -0.9613    2.0348    7.8826 N   0  0  0  0  0  0  0  0  0  0  0  0
   -1.7347    2.6819    7.7418 H   0  0  0  0  0  0  0  0  0  0  0  0
   -0.4969    2.0339    8.7890 H   0  0  0  0  0  0  0  0  0  0  0  0
   -0.2873    1.3845   -0.7070 C   0  0  0  0  0  0  0  0  0  0  0  0
   -0.9163    1.2986   -1.7547 O   0  0  0  0  0  0  0  0  0  0  0  0
    1.0957    1.3415   -0.7633 N   0  0  0  0  0  0  0  0  0  0  0  0
    1.6073    1.3604    0.1124 H   0  0  0  0  0  0  0  0  0  0  0  0
    1.8369    1.1234   -2.0021 C   0  0  0  0  0  0  0  0  0  0  0  0
    1.6078    1.9091   -2.7304 H   0  0  0  0  0  0  0  0  0  0  0  0
    2.9141    1.1380   -1.8091 H   0  0  0  0  0  0  0  0  0  0  0  0
    1.5769    0.1530   -2.4388 H   0  0  0  0  0  0  0  0  0  0  0  0
  1  2  1  0  0  0  0
  2  3  1  0  0  0  0
  2  4  1  0  0  0  0
  2  5  1  0  0  0  0
  5  6  2  0  0  0  0
  5  7  1  0  0  0  0
  7  8  1  0  0  0  0
  7  9  1  0  0  0  0
  9 10  1  0  0  0  0
  9 11  1  0  0  0  0
  9 29  1  0  0  0  0
 11 12  1  0  0  0  0
 11 13  1  0  0  0  0
 11 14  1  0  0  0  0
 14 15  1  0  0  0  0
 14 16  1  0  0  0  0
 14 17  1  0  0  0  0
 17 18  1  0  0  0  0
 17 19  1  0  0  0  0
 17 20  1  0  0  0  0
 20 21  1  0  0  0  0
 20 22  2  0  0  0  0
 22 23  1  0  0  0  0
 22 26  1  0  0  0  0
 23 24  1  0  0  0  0
 23 25  1  0  0  0  0
 26 27  1  0  0  0  0
 26 28  1  0  0  0  0
 29 30  2  0  0  0  0
 29 31  1  0  0  0  0
 31 32  1  0  0  0  0
 31 33  1  0  0  0  0
 33 34  1  0  0  0  0
 33 35  1  0  0  0  0
 33 36  1  0  0  0  0
M  CHG  1  20   1
M  END
$$$$

  -OEChem-02172215453D

 36 35  0     1  0  0  0  0  0999 V2000
   -3.9819   -2.0950    0.5195 H   0  0  0  0  0  0  0  0  0  0  0  0
   -3.8924   -1.0521    0.2023 C   0  0  0  0  0  0  0  0  0  0  0  0
   -4.7910   -0.5117    0.5094 H   0  0  0  0  0  0  0  0  0  0  0  0
   -3.8137   -1.0243   -0.8876 H   0  0  0  0  0  0  0  0  0  0  0  0
   -2.6642   -0.4165    0.8254 C   0  0  0  0  0  0  0  0  0  0  0  0
   -2.0159   -1.0568    1.6372 O   0  0  0  0  0  0  0  0  0  0  0  0
   -2.3528    0.8907    0.4907 N   0  0  0  0  0  0  0  0  0  0  0  0
   -2.9269    1.2446   -0.2745 H   0  0  0  0  0  0  0  0  0  0  0  0
   -1.0513    1.5877    0.6204 C   0  0  1  0  0  0  0  0  0  0  0  0
   -1.2585    2.6614    0.6707 H   0  0  0  0  0  0  0  0  0  0  0  0
   -0.2118    1.2379    1.8743 C   0  0  0  0  0  0  0  0  0  0  0  0
    0.0149    0.1701    1.9258 H   0  0  0  0  0  0  0  0  0  0  0  0
    0.7500    1.7570    1.8057 H   0  0  0  0  0  0  0  0  0  0  0  0
   -0.9046    1.7268    3.1518 C   0  0  0  0  0  0  0  0  0  0  0  0
   -1.0539    2.8106    3.1022 H   0  0  0  0  0  0  0  0  0  0  0  0
   -1.8875    1.2500    3.2371 H   0  0  0  0  0  0  0  0  0  0  0  0
   -0.0576    1.3681    4.3693 C   0  0  0  0  0  0  0  0  0  0  0  0
    0.0872    0.2820    4.3920 H   0  0  0  0  0  0  0  0  0  0  0  0
    0.9230    1.8493    4.2818 H   0  0  0  0  0  0  0  0  0  0  0  0
   -0.7365    1.8170    5.5986 N   0  3  0  0  0  0  0  0  0  0  0  0
   -1.6288    2.2963    5.4860 H   0  0  0  0  0  0  0  0  0  0  0  0
   -0.2773    1.5972    6.7965 C   0  0  0  0  0  0  0  0  0  0  0  0
    0.8999    0.9161    7.0064 N   0  0  0  0  0  0  0  0  0  0  0  0
    1.3098    0.4300    6.2115 H   0  0  0  0  0  0  0  0  0  0  0  0
    1.0884    0.5491    7.9371 H   0  0  0  0  0  0  0  0  0  0  0  0
   -0.9807    2.0493    7.8875 N   0  0  0  0  0  0  0  0  0  0  0  0
   -1.7557    2.6931    7.7405 H   0  0  0  0  0  0  0  0  0  0  0  0
   -0.5213    2.0530    8.7964 H   0  0  0  0  0  0  0  0  0  0  0  0
   -0.2648    1.3756   -0.6974 C   0  0  0  0  0  0  0  0  0  0  0  0
   -0.8578    1.5448   -1.7550 O   0  0  0  0  0  0  0  0  0  0  0  0
    1.0758    1.0312   -0.7320 N   0  0  0  0  0  0  0  0  0  0  0  0
    1.5187    0.7781    0.1453 H   0  0  0  0  0  0  0  0  0  0  0  0
    1.8034    0.7962   -1.9758 C   0  0  0  0  0  0  0  0  0  0  0  0
    1.7617    1.6826   -2.6181 H   0  0  0  0  0  0  0  0  0  0  0  0
    2.8544    0.5748   -1.7663 H   0  0  0  0  0  0  0  0  0  0  0  0
    1.3722   -0.0515   -2.5190 H   0  0  0  0  0  0  0  0  0  0  0  0
  1  2  1  0  0  0  0
  2  3  1  0  0  0  0
  2  4  1  0  0  0  0
  2  5  1  0  0  0  0
  5  6  2  0  0  0  0
  5  7  1  0  0  0  0
  7  8  1  0  0  0  0
  7  9  1  0  0  0  0
  9 10  1  0  0  0  0
  9 11  1  0  0  0  0
  9 29  1  0  0  0  0
 11 12  1  0  0  0  0
 11 13  1  0  0  0  0
 11 14  1  0  0  0  0
 14 15  1  0  0  0  0
 14 16  1  0  0  0  0
 14 17  1  0  0  0  0
 17 18  1  0  0  0  0
 17 19  1  0  0  0  0
 17 20  1  0  0  0  0
 20 21  1  0  0  0  0
 20 22  2  0  0  0  0
 22 23  1  0  0  0  0
 22 26  1  0  0  0  0
 23 24  1  0  0  0  0
 23 25  1  0  0  0  0
 26 27  1  0  0  0  0
 26 28  1  0  0  0  0
 29 30  2  0  0  0  0
 29 31  1  0  0  0  0
 31 32  1  0  0  0  0
 31 33  1  0  0  0  0
 33 34  1  0  0  0  0
 33 35  1  0  0  0  0
 33 36  1  0  0  0  0
M  CHG  1  20   1
M  END
$$$$

  -OEChem-02172215453D

 36 35  0     1  0  0  0  0  0999 V2000
   -4.0123   -2.0875    0.5483 H   0  0  0  0  0  0  0  0  0  0  0  0
   -3.9151   -1.0464    0.2280 C   0  0  0  0  0  0  0  0  0  0  0  0
   -4.7897   -0.4891    0.5718 H   0  0  0  0  0  0  0  0  0  0  0  0
   -3.8806   -1.0184   -0.8641 H   0  0  0  0  0  0  0  0  0  0  0  0
   -2.6503   -0.4361    0.8018 C   0  0  0  0  0  0  0  0  0  0  0  0
   -1.9638   -1.1017    1.5595 O   0  0  0  0  0  0  0  0  0  0  0  0
   -2.3377    0.8726    0.4750 N   0  0  0  0  0  0  0  0  0  0  0  0
   -2.9406    1.2588   -0.2509 H   0  0  0  0  0  0  0  0  0  0  0  0
   -1.0398    1.5719    0.6164 C   0  0  1  0  0  0  0  0  0  0  0  0
   -1.2531    2.6445    0.6667 H   0  0  0  0  0  0  0  0  0  0  0  0
   -0.2063    1.2313    1.8756 C   0  0  0  0  0  0  0  0  0  0  0  0
    0.0219    0.1646    1.9365 H   0  0  0  0  0  0  0  0  0  0  0  0
    0.7553    1.7511    1.8035 H   0  0  0  0  0  0  0  0  0  0  0  0
   -0.9060    1.7215    3.1481 C   0  0  0  0  0  0  0  0  0  0  0  0
   -1.0574    2.8050    3.0948 H   0  0  0  0  0  0  0  0  0  0  0  0
   -1.8878    1.2424    3.2310 H   0  0  0  0  0  0  0  0  0  0  0  0
   -0.0604    1.3696    4.3685 C   0  0  0  0  0  0  0  0  0  0  0  0
    0.0885    0.2842    4.3939 H   0  0  0  0  0  0  0  0  0  0  0  0
    0.9184    1.8543    4.2816 H   0  0  0  0  0  0  0  0  0  0  0  0
   -0.7423    1.8180    5.5961 N   0  3  0  0  0  0  0  0  0  0  0  0
   -1.6361    2.2941    5.4822 H   0  0  0  0  0  0  0  0  0  0  0  0
   -0.2828    1.6021    6.7945 C   0  0  0  0  0  0  0  0  0  0  0  0
    0.8971    0.9263    7.0074 N   0  0  0  0  0  0  0  0  0  0  0  0
    1.3140    0.4419    6.2149 H   0  0  0  0  0  0  0  0  0  0  0  0
    1.0903    0.5678    7.9403 H   0  0  0  0  0  0  0  0  0  0  0  0
   -0.9893    2.0524    7.8840 N   0  0  0  0  0  0  0  0  0  0  0  0
   -1.7610    2.6997    7.7351 H   0  0  0  0  0  0  0  0  0  0  0  0
   -0.5295    2.0586    8.7926 H   0  0  0  0  0  0  0  0  0  0  0  0
   -0.2398    1.3701   -0.6913 C   0  0  0  0  0  0  0  0  0  0  0  0
   -0.7391    1.7661   -1.7356 O   0  0  0  0  0  0  0  0  0  0  0  0
    0.9959    0.7473   -0.7254 N   0  0  0  0  0  0  0  0  0  0  0  0
    1.3037    0.2819    0.1231 H   0  0  0  0  0  0  0  0  0  0  0  0
    1.7090    0.4724   -1.9690 C   0  0  0  0  0  0  0  0  0  0  0  0
    1.8902    1.4011   -2.5210 H   0  0  0  0  0  0  0  0  0  0  0  0
    2.6757    0.0047   -1.7581 H   0  0  0  0  0  0  0  0  0  0  0  0
    1.1268   -0.2042   -2.6037 H   0  0  0  0  0  0  0  0  0  0  0  0
  1  2  1  0  0  0  0
  2  3  1  0  0  0  0
  2  4  1  0  0  0  0
  2  5  1  0  0  0  0
  5  6  2  0  0  0  0
  5  7  1  0  0  0  0
  7  8  1  0  0  0  0
  7  9  1  0  0  0  0
  9 10  1  0  0  0  0
  9 11  1  0  0  0  0
  9 29  1  0  0  0  0
 11 12  1  0  0  0  0
 11 13  1  0  0  0  0
 11 14  1  0  0  0  0
 14 15  1  0  0  0  0
 14 16  1  0  0  0  0
 14 17  1  0  0  0  0
 17 18  1  0  0  0  0
 17 19  1  0  0  0  0
 17 20  1  0  0  0  0
 20 21  1  0  0  0  0
 20 22  2  0  0  0  0
 22 23  1  0  0  0  0
 22 26  1  0  0  0  0
 23 24  1  0  0  0  0
 23 25  1  0  0  0  0
 26 27  1  0  0  0  0
 26 28  1  0  0  0  0
 29 30  2  0  0  0  0
 29 31  1  0  0  0  0
 31 32  1  0  0  0  0
 31 33  1  0  0  0  0
 33 34  1  0  0  0  0
 33 35  1  0  0  0  0
 33 36  1  0  0  0  0
M  CHG  1  20   1
M  END
$$$$

  -OEChem-02172215453D

 36 35  0     1  0  0  0  0  0999 V2000
   -4.0502   -2.0818    0.5916 H   0  0  0  0  0  0  0  0  0  0  0  0
   -3.9528   -1.0410    0.2694 C   0  0  0  0  0  0  0  0  0  0  0  0
   -4.7982   -0.4707    0.6612 H   0  0  0  0  0  0  0  0  0  0  0  0
   -3.9756   -1.0103   -0.8228 H   0  0  0  0  0  0  0  0  0  0  0  0
   -2.6492   -0.4551    0.7774 C   0  0  0  0  0  0  0  0  0  0  0  0
   -1.9200   -1.1470    1.4685 O   0  0  0  0  0  0  0  0  0  0  0  0
   -2.3331    0.8529    0.4519 N   0  0  0  0  0  0  0  0  0  0  0  0
   -2.9687    1.2741   -0.2245 H   0  0  0  0  0  0  0  0  0  0  0  0
   -1.0361    1.5502    0.6045 C   0  0  1  0  0  0  0  0  0  0  0  0
   -1.2522    2.6227    0.6518 H   0  0  0  0  0  0  0  0  0  0  0  0
   -0.2079    1.2192    1.8700 C   0  0  0  0  0  0  0  0  0  0  0  0
    0.0208    0.1535    1.9426 H   0  0  0  0  0  0  0  0  0  0  0  0
    0.7548    1.7370    1.7931 H   0  0  0  0  0  0  0  0  0  0  0  0
   -0.9104    1.7148    3.1385 C   0  0  0  0  0  0  0  0  0  0  0  0
   -1.0622    2.7980    3.0802 H   0  0  0  0  0  0  0  0  0  0  0  0
   -1.8917    1.2349    3.2222 H   0  0  0  0  0  0  0  0  0  0  0  0
   -0.0635    1.3686    4.3600 C   0  0  0  0  0  0  0  0  0  0  0  0
    0.0872    0.2836    4.3893 H   0  0  0  0  0  0  0  0  0  0  0  0
    0.9145    1.8544    4.2696 H   0  0  0  0  0  0  0  0  0  0  0  0
   -0.7433    1.8201    5.5877 N   0  3  0  0  0  0  0  0  0  0  0  0
   -1.6351    2.3000    5.4737 H   0  0  0  0  0  0  0  0  0  0  0  0
   -0.2808    1.6085    6.7861 C   0  0  0  0  0  0  0  0  0  0  0  0
    0.9006    0.9347    6.9986 N   0  0  0  0  0  0  0  0  0  0  0  0
    1.3234    0.4583    6.2044 H   0  0  0  0  0  0  0  0  0  0  0  0
    1.0943    0.5733    7.9303 H   0  0  0  0  0  0  0  0  0  0  0  0
   -0.9866    2.0600    7.8760 N   0  0  0  0  0  0  0  0  0  0  0  0
   -1.7641    2.7005    7.7277 H   0  0  0  0  0  0  0  0  0  0  0  0
   -0.5268    2.0680    8.7847 H   0  0  0  0  0  0  0  0  0  0  0  0
   -0.2176    1.3514   -0.6890 C   0  0  0  0  0  0  0  0  0  0  0  0
   -0.5577    1.9654   -1.6899 O   0  0  0  0  0  0  0  0  0  0  0  0
    0.8533    0.4775   -0.7535 N   0  0  0  0  0  0  0  0  0  0  0  0
    0.9780   -0.1532    0.0338 H   0  0  0  0  0  0  0  0  0  0  0  0
    1.5651    0.1911   -1.9952 C   0  0  0  0  0  0  0  0  0  0  0  0
    1.9757    1.1118   -2.4238 H   0  0  0  0  0  0  0  0  0  0  0  0
    2.3937   -0.4987   -1.8081 H   0  0  0  0  0  0  0  0  0  0  0  0
    0.8914   -0.2668   -2.7273 H   0  0  0  0  0  0  0  0  0  0  0  0
  1  2  1  0  0  0  0
  2  3  1  0  0  0  0
  2  4  1  0  0  0  0
  2  5  1  0  0  0  0
  5  6  2  0  0  0  0
  5  7  1  0  0  0  0
  7  8  1  0  0  0  0
  7  9  1  0  0  0  0
  9 10  1  0  0  0  0
  9 11  1  0  0  0  0
  9 29  1  0  0  0  0
 11 12  1  0  0  0  0
 11 13  1  0  0  0  0
 11 14  1  0  0  0  0
 14 15  1  0  0  0  0
 14 16  1  0  0  0  0
 14 17  1  0  0  0  0
 17 18  1  0  0  0  0
 17 19  1  0  0  0  0
 17 20  1  0  0  0  0
 20 21  1  0  0  0  0
 20 22  2  0  0  0  0
 22 23  1  0  0  0  0
 22 26  1  0  0  0  0
 23 24  1  0  0  0  0
 23 25  1  0  0  0  0
 26 27  1  0  0  0  0
 26 28  1  0  0  0  0
 29 30  2  0  0  0  0
 29 31  1  0  0  0  0
 31 32  1  0  0  0  0
 31 33  1  0  0  0  0
 33 34  1  0  0  0  0
 33 35  1  0  0  0  0
 33 36  1  0  0  0  0
M  CHG  1  20   1
M  END
$$$$

  -OEChem-02172215453D

 36 35  0     1  0  0  0  0  0999 V2000
   -4.0913   -2.0724    0.6474 H   0  0  0  0  0  0  0  0  0  0  0  0
   -3.9945   -1.0323    0.3227 C   0  0  0  0  0  0  0  0  0  0  0  0
   -4.8082   -0.4498    0.7614 H   0  0  0  0  0  0  0  0  0  0  0  0
   -4.0771   -0.9971   -0.7665 H   0  0  0  0  0  0  0  0  0  0  0  0
   -2.6557   -0.4687    0.7593 C   0  0  0  0  0  0  0  0  0  0  0  0
   -1.8875   -1.1812    1.3838 O   0  0  0  0  0  0  0  0  0  0  0  0
   -2.3376    0.8365    0.4257 N   0  0  0  0  0  0  0  0  0  0  0  0
   -3.0043    1.2853   -0.2003 H   0  0  0  0  0  0  0  0  0  0  0  0
   -1.0436    1.5367    0.5859 C   0  0  1  0  0  0  0  0  0  0  0  0
   -1.2644    2.6085    0.6273 H   0  0  0  0  0  0  0  0  0  0  0  0
   -0.2173    1.2140    1.8542 C   0  0  0  0  0  0  0  0  0  0  0  0
    0.0154    0.1495    1.9302 H   0  0  0  0  0  0  0  0  0  0  0  0
    0.7442    1.7339    1.7747 H   0  0  0  0  0  0  0  0  0  0  0  0
   -0.9204    1.7083    3.1221 C   0  0  0  0  0  0  0  0  0  0  0  0
   -1.0773    2.7908    3.0630 H   0  0  0  0  0  0  0  0  0  0  0  0
   -1.8991    1.2232    3.2075 H   0  0  0  0  0  0  0  0  0  0  0  0
   -0.0677    1.3663    4.3410 C   0  0  0  0  0  0  0  0  0  0  0  0
    0.0885    0.2820    4.3699 H   0  0  0  0  0  0  0  0  0  0  0  0
    0.9079    1.8561    4.2463 H   0  0  0  0  0  0  0  0  0  0  0  0
   -0.7441    1.8150    5.5714 N   0  3  0  0  0  0  0  0  0  0  0  0
   -1.6377    2.2924    5.4619 H   0  0  0  0  0  0  0  0  0  0  0  0
   -0.2751    1.6052    6.7675 C   0  0  0  0  0  0  0  0  0  0  0  0
    0.9101    0.9367    6.9746 N   0  0  0  0  0  0  0  0  0  0  0  0
    1.3348    0.4657    6.1782 H   0  0  0  0  0  0  0  0  0  0  0  0
    1.1116    0.5779    7.9056 H   0  0  0  0  0  0  0  0  0  0  0  0
   -0.9777    2.0537    7.8605 N   0  0  0  0  0  0  0  0  0  0  0  0
   -1.7592    2.6900    7.7152 H   0  0  0  0  0  0  0  0  0  0  0  0
   -0.5122    2.0669    8.7663 H   0  0  0  0  0  0  0  0  0  0  0  0
   -0.2055    1.3317   -0.6911 C   0  0  0  0  0  0  0  0  0  0  0  0
   -0.3285    2.1246   -1.6128 O   0  0  0  0  0  0  0  0  0  0  0  0
    0.6535    0.2551   -0.8144 N   0  0  0  0  0  0  0  0  0  0  0  0
    0.5771   -0.4715   -0.1061 H   0  0  0  0  0  0  0  0  0  0  0  0
    1.3791   -0.0413   -2.0449 C   0  0  0  0  0  0  0  0  0  0  0  0
    2.0130    0.8053   -2.3300 H   0  0  0  0  0  0  0  0  0  0  0  0
    2.0194   -0.9180   -1.9066 H   0  0  0  0  0  0  0  0  0  0  0  0
    0.6804   -0.2474   -2.8626 H   0  0  0  0  0  0  0  0  0  0  0  0
  1  2  1  0  0  0  0
  2  3  1  0  0  0  0
  2  4  1  0  0  0  0
  2  5  1  0  0  0  0
  5  6  2  0  0  0  0
  5  7  1  0  0  0  0
  7  8  1  0  0  0  0
  7  9  1  0  0  0  0
  9 10  1  0  0  0  0
  9 11  1  0  0  0  0
  9 29  1  0  0  0  0
 11 12  1  0  0  0  0
 11 13  1  0  0  0  0
 11 14  1  0  0  0  0
 14 15  1  0  0  0  0
 14 16  1  0  0  0  0
 14 17  1  0  0  0  0
 17 18  1  0  0  0  0
 17 19  1  0  0  0  0
 17 20  1  0  0  0  0
 20 21  1  0  0  0  0
 20 22  2  0  0  0  0
 22 23  1  0  0  0  0
 22 26  1  0  0  0  0
 23 24  1  0  0  0  0
 23 25  1  0  0  0  0
 26 27  1  0  0  0  0
 26 28  1  0  0  0  0
 29 30  2  0  0  0  0
 29 31  1  0  0  0  0
 31 32  1  0  0  0  0
 31 33  1  0  0  0  0
 33 34  1  0  0  0  0
 33 35  1  0  0  0  0
 33 36  1  0  0  0  0
M  CHG  1  20   1
M  END
$$$$

  -OEChem-02172215453D

 36 35  0     1  0  0  0  0  0999 V2000
   -4.1405   -2.0616    0.7212 H   0  0  0  0  0  0  0  0  0  0  0  0
   -4.0453   -1.0239    0.3879 C   0  0  0  0  0  0  0  0  0  0  0  0
   -4.8196   -0.4262    0.8746 H   0  0  0  0  0  0  0  0  0  0  0  0
   -4.1945   -0.9892   -0.6944 H   0  0  0  0  0  0  0  0  0  0  0  0
   -2.6717   -0.4844    0.7388 C   0  0  0  0  0  0  0  0  0  0  0  0
   -1.8609   -1.2220    1.2735 O   0  0  0  0  0  0  0  0  0  0  0  0
   -2.3531    0.8183    0.3985 N   0  0  0  0  0  0  0  0  0  0  0  0
   -3.0573    1.3008   -0.1571 H   0  0  0  0  0  0  0  0  0  0  0  0
   -1.0600    1.5197    0.5631 C   0  0  1  0  0  0  0  0  0  0  0  0
   -1.2843    2.5912    0.6002 H   0  0  0  0  0  0  0  0  0  0  0  0
   -0.2364    1.2041    1.8337 C   0  0  0  0  0  0  0  0  0  0  0  0
   -0.0023    0.1402    1.9127 H   0  0  0  0  0  0  0  0  0  0  0  0
    0.7249    1.7235    1.7511 H   0  0  0  0  0  0  0  0  0  0  0  0
   -0.9377    1.7002    3.1021 C   0  0  0  0  0  0  0  0  0  0  0  0
   -1.0958    2.7824    3.0406 H   0  0  0  0  0  0  0  0  0  0  0  0
   -1.9150    1.2138    3.1915 H   0  0  0  0  0  0  0  0  0  0  0  0
   -0.0796    1.3608    4.3188 C   0  0  0  0  0  0  0  0  0  0  0  0
    0.0786    0.2767    4.3477 H   0  0  0  0  0  0  0  0  0  0  0  0
    0.8950    1.8517    4.2184 H   0  0  0  0  0  0  0  0  0  0  0  0
   -0.7479    1.8088    5.5543 N   0  3  0  0  0  0  0  0  0  0  0  0
   -1.6390    2.2921    5.4509 H   0  0  0  0  0  0  0  0  0  0  0  0
   -0.2694    1.5987    6.7467 C   0  0  0  0  0  0  0  0  0  0  0  0
    0.9178    0.9307    6.9436 N   0  0  0  0  0  0  0  0  0  0  0  0
    1.3322    0.4536    6.1452 H   0  0  0  0  0  0  0  0  0  0  0  0
    1.1344    0.5820    7.8752 H   0  0  0  0  0  0  0  0  0  0  0  0
   -0.9595    2.0525    7.8455 N   0  0  0  0  0  0  0  0  0  0  0  0
   -1.7358    2.6963    7.7061 H   0  0  0  0  0  0  0  0  0  0  0  0
   -0.4852    2.0650    8.7467 H   0  0  0  0  0  0  0  0  0  0  0  0
   -0.2038    1.3123   -0.6995 C   0  0  0  0  0  0  0  0  0  0  0  0
   -0.0621    2.2340   -1.4889 O   0  0  0  0  0  0  0  0  0  0  0  0
    0.4115    0.0957   -0.9283 N   0  0  0  0  0  0  0  0  0  0  0  0
    0.1490   -0.6723   -0.3118 H   0  0  0  0  0  0  0  0  0  0  0  0
    1.1760   -0.1965   -2.1357 C   0  0  0  0  0  0  0  0  0  0  0  0
    1.9977    0.5183   -2.2520 H   0  0  0  0  0  0  0  0  0  0  0  0
    1.6019   -1.2033   -2.0811 H   0  0  0  0  0  0  0  0  0  0  0  0
    0.5333   -0.1388   -3.0206 H   0  0  0  0  0  0  0  0  0  0  0  0
  1  2  1  0  0  0  0
  2  3  1  0  0  0  0
  2  4  1  0  0  0  0
  2  5  1  0  0  0  0
  5  6  2  0  0  0  0
  5  7  1  0  0  0  0
  7  8  1  0  0  0  0
  7  9  1  0  0  0  0
  9 10  1  0  0  0  0
  9 11  1  0  0  0  0
  9 29  1  0  0  0  0
 11 12  1  0  0  0  0
 11 13  1  0  0  0  0
 11 14  1  0  0  0  0
 14 15  1  0  0  0  0
 14 16  1  0  0  0  0
 14 17  1  0  0  0  0
 17 18  1  0  0  0  0
 17 19  1  0  0  0  0
 17 20  1  0  0  0  0
 20 21  1  0  0  0  0
 20 22  2  0  0  0  0
 22 23  1  0  0  0  0
 22 26  1  0  0  0  0
 23 24  1  0  0  0  0
 23 25  1  0  0  0  0
 26 27  1  0  0  0  0
 26 28  1  0  0  0  0
 29 30  2  0  0  0  0
 29 31  1  0  0  0  0
 31 32  1  0  0  0  0
 31 33  1  0  0  0  0
 33 34  1  0  0  0  0
 33 35  1  0  0  0  0
 33 36  1  0  0  0  0
M  CHG  1  20   1
M  END
$$$$

  -OEChem-02172215453D

 36 35  0     1  0  0  0  0  0999 V2000
   -4.1935   -2.0390    0.8226 H   0  0  0  0  0  0  0  0  0  0  0  0
   -4.0959   -1.0079    0.4707 C   0  0  0  0  0  0  0  0  0  0  0  0
   -4.8305   -0.3889    0.9912 H   0  0  0  0  0  0  0  0  0  0  0  0
   -4.3035   -0.9835   -0.6020 H   0  0  0  0  0  0  0  0  0  0  0  0
   -2.6952   -0.4919    0.7388 C   0  0  0  0  0  0  0  0  0  0  0  0
   -1.8598   -1.2468    1.2067 O   0  0  0  0  0  0  0  0  0  0  0  0
   -2.3760    0.8063    0.3831 N   0  0  0  0  0  0  0  0  0  0  0  0
   -3.1089    1.3084   -0.1141 H   0  0  0  0  0  0  0  0  0  0  0  0
   -1.0838    1.5145    0.5377 C   0  0  1  0  0  0  0  0  0  0  0  0
   -1.3107    2.5854    0.5696 H   0  0  0  0  0  0  0  0  0  0  0  0
   -0.2578    1.1999    1.8061 C   0  0  0  0  0  0  0  0  0  0  0  0
   -0.0226    0.1360    1.8810 H   0  0  0  0  0  0  0  0  0  0  0  0
    0.7031    1.7205    1.7218 H   0  0  0  0  0  0  0  0  0  0  0  0
   -0.9547    1.6935    3.0776 C   0  0  0  0  0  0  0  0  0  0  0  0
   -1.1122    2.7758    3.0188 H   0  0  0  0  0  0  0  0  0  0  0  0
   -1.9316    1.2073    3.1708 H   0  0  0  0  0  0  0  0  0  0  0  0
   -0.0903    1.3526    4.2892 C   0  0  0  0  0  0  0  0  0  0  0  0
    0.0686    0.2686    4.3153 H   0  0  0  0  0  0  0  0  0  0  0  0
    0.8835    1.8445    4.1848 H   0  0  0  0  0  0  0  0  0  0  0  0
   -0.7521    1.7973    5.5291 N   0  3  0  0  0  0  0  0  0  0  0  0
   -1.6399    2.2876    5.4317 H   0  0  0  0  0  0  0  0  0  0  0  0
   -0.2662    1.5845    6.7181 C   0  0  0  0  0  0  0  0  0  0  0  0
    0.9224    0.9169    6.9071 N   0  0  0  0  0  0  0  0  0  0  0  0
    1.3362    0.4463    6.1046 H   0  0  0  0  0  0  0  0  0  0  0  0
    1.1429    0.5635    7.8359 H   0  0  0  0  0  0  0  0  0  0  0  0
   -0.9485    2.0368    7.8222 N   0  0  0  0  0  0  0  0  0  0  0  0
   -1.7221    2.6846    7.6871 H   0  0  0  0  0  0  0  0  0  0  0  0
   -0.4625    2.0553    8.7171 H   0  0  0  0  0  0  0  0  0  0  0  0
   -0.2149    1.3025   -0.7148 C   0  0  0  0  0  0  0  0  0  0  0  0
    0.1706    2.2690   -1.3554 O   0  0  0  0  0  0  0  0  0  0  0  0
    0.1527    0.0235   -1.0874 N   0  0  0  0  0  0  0  0  0  0  0  0
   -0.2150   -0.7453   -0.5269 H   0  0  0  0  0  0  0  0  0  0  0  0
    0.9616   -0.2719   -2.2642 C   0  0  0  0  0  0  0  0  0  0  0  0
    1.9295    0.2366   -2.2022 H   0  0  0  0  0  0  0  0  0  0  0  0
    1.1426   -1.3486   -2.3400 H   0  0  0  0  0  0  0  0  0  0  0  0
    0.4496    0.0573   -3.1747 H   0  0  0  0  0  0  0  0  0  0  0  0
  1  2  1  0  0  0  0
  2  3  1  0  0  0  0
  2  4  1  0  0  0  0
  2  5  1  0  0  0  0
  5  6  2  0  0  0  0
  5  7  1  0  0  0  0
  7  8  1  0  0  0  0
  7  9  1  0  0  0  0
  9 10  1  0  0  0  0
  9 11  1  0  0  0  0
  9 29  1  0  0  0  0
 11 12  1  0  0  0  0
 11 13  1  0  0  0  0
 11 14  1  0  0  0  0
 14 15  1  0  0  0  0
 14 16  1  0  0  0  0
 14 17  1  0  0  0  0
 17 18  1  0  0  0  0
 17 19  1  0  0  0  0
 17 20  1  0  0  0  0
 20 21  1  0  0  0  0
 20 22  2  0  0  0  0
 22 23  1  0  0  0  0
 22 26  1  0  0  0  0
 23 24  1  0  0  0  0
 23 25  1  0  0  0  0
 26 27  1  0  0  0  0
 26 28  1  0  0  0  0
 29 30  2  0  0  0  0
 29 31  1  0  0  0  0
 31 32  1  0  0  0  0
 31 33  1  0  0  0  0
 33 34  1  0  0  0  0
 33 35  1  0  0  0  0
 33 36  1  0  0  0  0
M  CHG  1  20   1
M  END
$$$$

  -OEChem-02172215453D

 36 35  0     1  0  0  0  0  0999 V2000
   -4.2436   -2.0414    0.8385 H   0  0  0  0  0  0  0  0  0  0  0  0
   -4.1503   -1.0065    0.4964 C   0  0  0  0  0  0  0  0  0  0  0  0
   -4.8761   -0.3923    1.0344 H   0  0  0  0  0  0  0  0  0  0  0  0
   -4.3744   -0.9702   -0.5728 H   0  0  0  0  0  0  0  0  0  0  0  0
   -2.7447   -0.4953    0.7494 C   0  0  0  0  0  0  0  0  0  0  0  0
   -1.9065   -1.2544    1.2037 O   0  0  0  0  0  0  0  0  0  0  0  0
   -2.4205    0.7980    0.3806 N   0  0  0  0  0  0  0  0  0  0  0  0
   -3.1611    1.3037   -0.1013 H   0  0  0  0  0  0  0  0  0  0  0  0
   -1.1262    1.5084    0.5224 C   0  0  1  0  0  0  0  0  0  0  0  0
   -1.3537    2.5795    0.5484 H   0  0  0  0  0  0  0  0  0  0  0  0
   -0.2963    1.1981    1.7885 C   0  0  0  0  0  0  0  0  0  0  0  0
   -0.0628    0.1336    1.8637 H   0  0  0  0  0  0  0  0  0  0  0  0
    0.6647    1.7169    1.6972 H   0  0  0  0  0  0  0  0  0  0  0  0
   -0.9815    1.6957    3.0646 C   0  0  0  0  0  0  0  0  0  0  0  0
   -1.1372    2.7783    3.0056 H   0  0  0  0  0  0  0  0  0  0  0  0
   -1.9584    1.2116    3.1688 H   0  0  0  0  0  0  0  0  0  0  0  0
   -0.1036    1.3526    4.2661 C   0  0  0  0  0  0  0  0  0  0  0  0
    0.0529    0.2683    4.2891 H   0  0  0  0  0  0  0  0  0  0  0  0
    0.8706    1.8408    4.1495 H   0  0  0  0  0  0  0  0  0  0  0  0
   -0.7453    1.7973    5.5165 N   0  3  0  0  0  0  0  0  0  0  0  0
   -1.6338    2.2891    5.4339 H   0  0  0  0  0  0  0  0  0  0  0  0
   -0.2409    1.5804    6.6970 C   0  0  0  0  0  0  0  0  0  0  0  0
    0.9489    0.9085    6.8630 N   0  0  0  0  0  0  0  0  0  0  0  0
    1.3441    0.4351    6.0529 H   0  0  0  0  0  0  0  0  0  0  0  0
    1.1847    0.5524    7.7869 H   0  0  0  0  0  0  0  0  0  0  0  0
   -0.9020    2.0340    7.8135 N   0  0  0  0  0  0  0  0  0  0  0  0
   -1.6764    2.6839    7.6936 H   0  0  0  0  0  0  0  0  0  0  0  0
   -0.4009    2.0486    8.7001 H   0  0  0  0  0  0  0  0  0  0  0  0
   -0.2454    1.2953   -0.7233 C   0  0  0  0  0  0  0  0  0  0  0  0
    0.3633    2.2427   -1.1983 O   0  0  0  0  0  0  0  0  0  0  0  0
   -0.1147    0.0345   -1.2747 N   0  0  0  0  0  0  0  0  0  0  0  0
   -0.5584   -0.7342   -0.7731 H   0  0  0  0  0  0  0  0  0  0  0  0
    0.7564   -0.2619   -2.4059 C   0  0  0  0  0  0  0  0  0  0  0  0
    1.7987   -0.0359   -2.1572 H   0  0  0  0  0  0  0  0  0  0  0  0
    0.6855   -1.3212   -2.6719 H   0  0  0  0  0  0  0  0  0  0  0  0
    0.4669    0.3328   -3.2788 H   0  0  0  0  0  0  0  0  0  0  0  0
  1  2  1  0  0  0  0
  2  3  1  0  0  0  0
  2  4  1  0  0  0  0
  2  5  1  0  0  0  0
  5  6  2  0  0  0  0
  5  7  1  0  0  0  0
  7  8  1  0  0  0  0
  7  9  1  0  0  0  0
  9 10  1  0  0  0  0
  9 11  1  0  0  0  0
  9 29  1  0  0  0  0
 11 12  1  0  0  0  0
 11 13  1  0  0  0  0
 11 14  1  0  0  0  0
 14 15  1  0  0  0  0
 14 16  1  0  0  0  0
 14 17  1  0  0  0  0
 17 18  1  0  0  0  0
 17 19  1  0  0  0  0
 17 20  1  0  0  0  0
 20 21  1  0  0  0  0
 20 22  2  0  0  0  0
 22 23  1  0  0  0  0
 22 26  1  0  0  0  0
 23 24  1  0  0  0  0
 23 25  1  0  0  0  0
 26 27  1  0  0  0  0
 26 28  1  0  0  0  0
 29 30  2  0  0  0  0
 29 31  1  0  0  0  0
 31 32  1  0  0  0  0
 31 33  1  0  0  0  0
 33 34  1  0  0  0  0
 33 35  1  0  0  0  0
 33 36  1  0  0  0  0
M  CHG  1  20   1
M  END
$$$$

  -OEChem-02172215453D

 36 35  0     1  0  0  0  0  0999 V2000
   -4.2777   -2.0342    0.8873 H   0  0  0  0  0  0  0  0  0  0  0  0
   -4.1824   -1.0021    0.5375 C   0  0  0  0  0  0  0  0  0  0  0  0
   -4.8950   -0.3797    1.0836 H   0  0  0  0  0  0  0  0  0  0  0  0
   -4.4233   -0.9707   -0.5280 H   0  0  0  0  0  0  0  0  0  0  0  0
   -2.7695   -0.4998    0.7654 C   0  0  0  0  0  0  0  0  0  0  0  0
   -1.9345   -1.2614    1.2188 O   0  0  0  0  0  0  0  0  0  0  0  0
   -2.4425    0.7891    0.3833 N   0  0  0  0  0  0  0  0  0  0  0  0
   -3.1911    1.2981   -0.0824 H   0  0  0  0  0  0  0  0  0  0  0  0
   -1.1475    1.5037    0.5114 C   0  0  1  0  0  0  0  0  0  0  0  0
   -1.3763    2.5743    0.5324 H   0  0  0  0  0  0  0  0  0  0  0  0
   -0.3186    1.1961    1.7796 C   0  0  0  0  0  0  0  0  0  0  0  0
   -0.0865    0.1312    1.8565 H   0  0  0  0  0  0  0  0  0  0  0  0
    0.6446    1.7117    1.6899 H   0  0  0  0  0  0  0  0  0  0  0  0
   -1.0005    1.6987    3.0552 C   0  0  0  0  0  0  0  0  0  0  0  0
   -1.1520    2.7819    2.9948 H   0  0  0  0  0  0  0  0  0  0  0  0
   -1.9786    1.2179    3.1639 H   0  0  0  0  0  0  0  0  0  0  0  0
   -0.1167    1.3537    4.2515 C   0  0  0  0  0  0  0  0  0  0  0  0
    0.0371    0.2688    4.2734 H   0  0  0  0  0  0  0  0  0  0  0  0
    0.8576    1.8396    4.1270 H   0  0  0  0  0  0  0  0  0  0  0  0
   -0.7467    1.7990    5.5078 N   0  3  0  0  0  0  0  0  0  0  0  0
   -1.6370    2.2889    5.4348 H   0  0  0  0  0  0  0  0  0  0  0  0
   -0.2309    1.5783    6.6828 C   0  0  0  0  0  0  0  0  0  0  0  0
    0.9588    0.9027    6.8356 N   0  0  0  0  0  0  0  0  0  0  0  0
    1.3483    0.4353    6.0189 H   0  0  0  0  0  0  0  0  0  0  0  0
    1.2023    0.5410    7.7554 H   0  0  0  0  0  0  0  0  0  0  0  0
   -0.8811    2.0279    7.8074 N   0  0  0  0  0  0  0  0  0  0  0  0
   -1.6555    2.6796    7.6975 H   0  0  0  0  0  0  0  0  0  0  0  0
   -0.3723    2.0370    8.6898 H   0  0  0  0  0  0  0  0  0  0  0  0
   -0.2553    1.2915   -0.7291 C   0  0  0  0  0  0  0  0  0  0  0  0
    0.5320    2.1691   -1.0525 O   0  0  0  0  0  0  0  0  0  0  0  0
   -0.3335    0.1252   -1.4675 N   0  0  0  0  0  0  0  0  0  0  0  0
   -0.8752   -0.6336   -1.0587 H   0  0  0  0  0  0  0  0  0  0  0  0
    0.5378   -0.1630   -2.6012 C   0  0  0  0  0  0  0  0  0  0  0  0
    1.5831   -0.2155   -2.2788 H   0  0  0  0  0  0  0  0  0  0  0  0
    0.2660   -1.1212   -3.0547 H   0  0  0  0  0  0  0  0  0  0  0  0
    0.4443    0.6164   -3.3653 H   0  0  0  0  0  0  0  0  0  0  0  0
  1  2  1  0  0  0  0
  2  3  1  0  0  0  0
  2  4  1  0  0  0  0
  2  5  1  0  0  0  0
  5  6  2  0  0  0  0
  5  7  1  0  0  0  0
  7  8  1  0  0  0  0
  7  9  1  0  0  0  0
  9 10  1  0  0  0  0
  9 11  1  0  0  0  0
  9 29  1  0  0  0  0
 11 12  1  0  0  0  0
 11 13  1  0  0  0  0
 11 14  1  0  0  0  0
 14 15  1  0  0  0  0
 14 16  1  0  0  0  0
 14 17  1  0  0  0  0
 17 18  1  0  0  0  0
 17 19  1  0  0  0  0
 17 20  1  0  0  0  0
 20 21  1  0  0  0  0
 20 22  2  0  0  0  0
 22 23  1  0  0  0  0
 22 26  1  0  0  0  0
 23 24  1  0  0  0  0
 23 25  1  0  0  0  0
 26 27  1  0  0  0  0
 26 28  1  0  0  0  0
 29 30  2  0  0  0  0
 29 31  1  0  0  0  0
 31 32  1  0  0  0  0
 31 33  1  0  0  0  0
 33 34  1  0  0  0  0
 33 35  1  0  0  0  0
 33 36  1  0  0  0  0
M  CHG  1  20   1
M  END
$$$$

  -OEChem-02172215453D

 36 35  0     1  0  0  0  0  0999 V2000
   -4.2946   -2.0420    0.8822 H   0  0  0  0  0  0  0  0  0  0  0  0
   -4.1952   -1.0088    0.5364 C   0  0  0  0  0  0  0  0  0  0  0  0
   -4.9170   -0.3886    1.0730 H   0  0  0  0  0  0  0  0  0  0  0  0
   -4.4198   -0.9755   -0.5326 H   0  0  0  0  0  0  0  0  0  0  0  0
   -2.7869   -0.5047    0.7878 C   0  0  0  0  0  0  0  0  0  0  0  0
   -1.9710   -1.2550    1.2908 O   0  0  0  0  0  0  0  0  0  0  0  0
   -2.4577    0.7813    0.3952 N   0  0  0  0  0  0  0  0  0  0  0  0
   -3.2049    1.2824   -0.0814 H   0  0  0  0  0  0  0  0  0  0  0  0
   -1.1620    1.4997    0.5095 C   0  0  1  0  0  0  0  0  0  0  0  0
   -1.3916    2.5700    0.5264 H   0  0  0  0  0  0  0  0  0  0  0  0
   -0.3333    1.1947    1.7803 C   0  0  0  0  0  0  0  0  0  0  0  0
   -0.1013    0.1300    1.8584 H   0  0  0  0  0  0  0  0  0  0  0  0
    0.6307    1.7086    1.6931 H   0  0  0  0  0  0  0  0  0  0  0  0
   -1.0110    1.7020    3.0560 C   0  0  0  0  0  0  0  0  0  0  0  0
   -1.1604    2.7852    2.9937 H   0  0  0  0  0  0  0  0  0  0  0  0
   -1.9894    1.2233    3.1685 H   0  0  0  0  0  0  0  0  0  0  0  0
   -0.1230    1.3562    4.2486 C   0  0  0  0  0  0  0  0  0  0  0  0
    0.0279    0.2709    4.2701 H   0  0  0  0  0  0  0  0  0  0  0  0
    0.8523    1.8390    4.1187 H   0  0  0  0  0  0  0  0  0  0  0  0
   -0.7434    1.8035    5.5085 N   0  3  0  0  0  0  0  0  0  0  0  0
   -1.6325    2.2966    5.4416 H   0  0  0  0  0  0  0  0  0  0  0  0
   -0.2189    1.5805    6.6792 C   0  0  0  0  0  0  0  0  0  0  0  0
    0.9700    0.9013    6.8212 N   0  0  0  0  0  0  0  0  0  0  0  0
    1.3530    0.4356    6.0006 H   0  0  0  0  0  0  0  0  0  0  0  0
    1.2222    0.5400    7.7388 H   0  0  0  0  0  0  0  0  0  0  0  0
   -0.8590    2.0286    7.8102 N   0  0  0  0  0  0  0  0  0  0  0  0
   -1.6336    2.6813    7.7093 H   0  0  0  0  0  0  0  0  0  0  0  0
   -0.3452    2.0296    8.6896 H   0  0  0  0  0  0  0  0  0  0  0  0
   -0.2648    1.2885   -0.7311 C   0  0  0  0  0  0  0  0  0  0  0  0
    0.6679    2.0552   -0.9265 O   0  0  0  0  0  0  0  0  0  0  0  0
   -0.5254    0.2838   -1.6447 N   0  0  0  0  0  0  0  0  0  0  0  0
   -1.1991   -0.4221   -1.3608 H   0  0  0  0  0  0  0  0  0  0  0  0
    0.3264    0.0165   -2.7988 C   0  0  0  0  0  0  0  0  0  0  0  0
    1.3293   -0.2813   -2.4751 H   0  0  0  0  0  0  0  0  0  0  0  0
   -0.0971   -0.7908   -3.4044 H   0  0  0  0  0  0  0  0  0  0  0  0
    0.4110    0.9089   -3.4284 H   0  0  0  0  0  0  0  0  0  0  0  0
  1  2  1  0  0  0  0
  2  3  1  0  0  0  0
  2  4  1  0  0  0  0
  2  5  1  0  0  0  0
  5  6  2  0  0  0  0
  5  7  1  0  0  0  0
  7  8  1  0  0  0  0
  7  9  1  0  0  0  0
  9 10  1  0  0  0  0
  9 11  1  0  0  0  0
  9 29  1  0  0  0  0
 11 12  1  0  0  0  0
 11 13  1  0  0  0  0
 11 14  1  0  0  0  0
 14 15  1  0  0  0  0
 14 16  1  0  0  0  0
 14 17  1  0  0  0  0
 17 18  1  0  0  0  0
 17 19  1  0  0  0  0
 17 20  1  0  0  0  0
 20 21  1  0  0  0  0
 20 22  2  0  0  0  0
 22 23  1  0  0  0  0
 22 26  1  0  0  0  0
 23 24  1  0  0  0  0
 23 25  1  0  0  0  0
 26 27  1  0  0  0  0
 26 28  1  0  0  0  0
 29 30  2  0  0  0  0
 29 31  1  0  0  0  0
 31 32  1  0  0  0  0
 31 33  1  0  0  0  0
 33 34  1  0  0  0  0
 33 35  1  0  0  0  0
 33 36  1  0  0  0  0
M  CHG  1  20   1
M  END
$$$$

  -OEChem-02172215453D

 36 35  0     1  0  0  0  0  0999 V2000
   -4.2828   -2.0498    0.8916 H   0  0  0  0  0  0  0  0  0  0  0  0
   -4.1826   -1.0193    0.5380 C   0  0  0  0  0  0  0  0  0  0  0  0
   -4.9085   -0.3957    1.0653 H   0  0  0  0  0  0  0  0  0  0  0  0
   -4.4001   -0.9952   -0.5326 H   0  0  0  0  0  0  0  0  0  0  0  0
   -2.7768   -0.5111    0.7949 C   0  0  0  0  0  0  0  0  0  0  0  0
   -1.9710   -1.2531    1.3251 O   0  0  0  0  0  0  0  0  0  0  0  0
   -2.4518    0.7767    0.4006 N   0  0  0  0  0  0  0  0  0  0  0  0
   -3.2049    1.2782   -0.0659 H   0  0  0  0  0  0  0  0  0  0  0  0
   -1.1564    1.4991    0.5080 C   0  0  1  0  0  0  0  0  0  0  0  0
   -1.3869    2.5691    0.5242 H   0  0  0  0  0  0  0  0  0  0  0  0
   -0.3316    1.1945    1.7837 C   0  0  0  0  0  0  0  0  0  0  0  0
   -0.0980    0.1305    1.8622 H   0  0  0  0  0  0  0  0  0  0  0  0
    0.6330    1.7086    1.7043 H   0  0  0  0  0  0  0  0  0  0  0  0
   -1.0122    1.7040    3.0570 C   0  0  0  0  0  0  0  0  0  0  0  0
   -1.1599    2.7873    2.9944 H   0  0  0  0  0  0  0  0  0  0  0  0
   -1.9913    1.2262    3.1685 H   0  0  0  0  0  0  0  0  0  0  0  0
   -0.1263    1.3567    4.2506 C   0  0  0  0  0  0  0  0  0  0  0  0
    0.0232    0.2713    4.2717 H   0  0  0  0  0  0  0  0  0  0  0  0
    0.8498    1.8381    4.1215 H   0  0  0  0  0  0  0  0  0  0  0  0
   -0.7457    1.8045    5.5112 N   0  3  0  0  0  0  0  0  0  0  0  0
   -1.6337    2.2992    5.4445 H   0  0  0  0  0  0  0  0  0  0  0  0
   -0.2213    1.5795    6.6817 C   0  0  0  0  0  0  0  0  0  0  0  0
    0.9662    0.8974    6.8219 N   0  0  0  0  0  0  0  0  0  0  0  0
    1.3434    0.4276    6.0006 H   0  0  0  0  0  0  0  0  0  0  0  0
    1.2174    0.5340    7.7389 H   0  0  0  0  0  0  0  0  0  0  0  0
   -0.8575    2.0310    7.8137 N   0  0  0  0  0  0  0  0  0  0  0  0
   -1.6279    2.6891    7.7134 H   0  0  0  0  0  0  0  0  0  0  0  0
   -0.3413    2.0310    8.6918 H   0  0  0  0  0  0  0  0  0  0  0  0
   -0.2646    1.2899   -0.7406 C   0  0  0  0  0  0  0  0  0  0  0  0
    0.7917    1.8998   -0.8337 O   0  0  0  0  0  0  0  0  0  0  0  0
   -0.6836    0.5061   -1.8007 N   0  0  0  0  0  0  0  0  0  0  0  0
   -1.4949   -0.0823   -1.6387 H   0  0  0  0  0  0  0  0  0  0  0  0
    0.1323    0.2647   -2.9863 C   0  0  0  0  0  0  0  0  0  0  0  0
    1.0591   -0.2525   -2.7158 H   0  0  0  0  0  0  0  0  0  0  0  0
   -0.4140   -0.3552   -3.7037 H   0  0  0  0  0  0  0  0  0  0  0  0
    0.3879    1.2108   -3.4757 H   0  0  0  0  0  0  0  0  0  0  0  0
  1  2  1  0  0  0  0
  2  3  1  0  0  0  0
  2  4  1  0  0  0  0
  2  5  1  0  0  0  0
  5  6  2  0  0  0  0
  5  7  1  0  0  0  0
  7  8  1  0  0  0  0
  7  9  1  0  0  0  0
  9 10  1  0  0  0  0
  9 11  1  0  0  0  0
  9 29  1  0  0  0  0
 11 12  1  0  0  0  0
 11 13  1  0  0  0  0
 11 14  1  0  0  0  0
 14 15  1  0  0  0  0
 14 16  1  0  0  0  0
 14 17  1  0  0  0  0
 17 18  1  0  0  0  0
 17 19  1  0  0  0  0
 17 20  1  0  0  0  0
 20 21  1  0  0  0  0
 20 22  2  0  0  0  0
 22 23  1  0  0  0  0
 22 26  1  0  0  0  0
 23 24  1  0  0  0  0
 23 25  1  0  0  0  0
 26 27  1  0  0  0  0
 26 28  1  0  0  0  0
 29 30  2  0  0  0  0
 29 31  1  0  0  0  0
 31 32  1  0  0  0  0
 31 33  1  0  0  0  0
 33 34  1  0  0  0  0
 33 35  1  0  0  0  0
 33 36  1  0  0  0  0
M  CHG  1  20   1
M  END
$$$$

  -OEChem-02172215453D

 36 35  0     1  0  0  0  0  0999 V2000
   -4.2564   -2.0596    0.8759 H   0  0  0  0  0  0  0  0  0  0  0  0
   -4.1599   -1.0294    0.5202 C   0  0  0  0  0  0  0  0  0  0  0  0
   -4.8964   -0.4099    1.0372 H   0  0  0  0  0  0  0  0  0  0  0  0
   -4.3659   -1.0108   -0.5527 H   0  0  0  0  0  0  0  0  0  0  0  0
   -2.7597   -0.5111    0.7912 C   0  0  0  0  0  0  0  0  0  0  0  0
   -1.9623   -1.2417    1.3491 O   0  0  0  0  0  0  0  0  0  0  0  0
   -2.4402    0.7793    0.3985 N   0  0  0  0  0  0  0  0  0  0  0  0
   -3.1995    1.2816   -0.0562 H   0  0  0  0  0  0  0  0  0  0  0  0
   -1.1475    1.5074    0.5065 C   0  0  1  0  0  0  0  0  0  0  0  0
   -1.3796    2.5767    0.5212 H   0  0  0  0  0  0  0  0  0  0  0  0
   -0.3273    1.2039    1.7880 C   0  0  0  0  0  0  0  0  0  0  0  0
   -0.0875    0.1411    1.8645 H   0  0  0  0  0  0  0  0  0  0  0  0
    0.6344    1.7239    1.7181 H   0  0  0  0  0  0  0  0  0  0  0  0
   -1.0115    1.7095    3.0605 C   0  0  0  0  0  0  0  0  0  0  0  0
   -1.1608    2.7928    3.0000 H   0  0  0  0  0  0  0  0  0  0  0  0
   -1.9893    1.2290    3.1694 H   0  0  0  0  0  0  0  0  0  0  0  0
   -0.1247    1.3602    4.2535 C   0  0  0  0  0  0  0  0  0  0  0  0
    0.0266    0.2748    4.2718 H   0  0  0  0  0  0  0  0  0  0  0  0
    0.8508    1.8434    4.1262 H   0  0  0  0  0  0  0  0  0  0  0  0
   -0.7461    1.8031    5.5143 N   0  3  0  0  0  0  0  0  0  0  0  0
   -1.6383    2.2905    5.4490 H   0  0  0  0  0  0  0  0  0  0  0  0
   -0.2224    1.5764    6.6844 C   0  0  0  0  0  0  0  0  0  0  0  0
    0.9666    0.8971    6.8260 N   0  0  0  0  0  0  0  0  0  0  0  0
    1.3493    0.4326    6.0042 H   0  0  0  0  0  0  0  0  0  0  0  0
    1.2155    0.5307    7.7425 H   0  0  0  0  0  0  0  0  0  0  0  0
   -0.8641    2.0223    7.8151 N   0  0  0  0  0  0  0  0  0  0  0  0
   -1.6367    2.6773    7.7130 H   0  0  0  0  0  0  0  0  0  0  0  0
   -0.3502    2.0247    8.6943 H   0  0  0  0  0  0  0  0  0  0  0  0
   -0.2637    1.2952   -0.7512 C   0  0  0  0  0  0  0  0  0  0  0  0
    0.8914    1.6985   -0.7664 O   0  0  0  0  0  0  0  0  0  0  0  0
   -0.7992    0.7765   -1.9172 N   0  0  0  0  0  0  0  0  0  0  0  0
   -1.7204    0.3566   -1.8500 H   0  0  0  0  0  0  0  0  0  0  0  0
   -0.0137    0.5532   -3.1270 C   0  0  0  0  0  0  0  0  0  0  0  0
    0.7903   -0.1656   -2.9357 H   0  0  0  0  0  0  0  0  0  0  0  0
   -0.6495    0.1574   -3.9250 H   0  0  0  0  0  0  0  0  0  0  0  0
    0.4302    1.4919   -3.4759 H   0  0  0  0  0  0  0  0  0  0  0  0
  1  2  1  0  0  0  0
  2  3  1  0  0  0  0
  2  4  1  0  0  0  0
  2  5  1  0  0  0  0
  5  6  2  0  0  0  0
  5  7  1  0  0  0  0
  7  8  1  0  0  0  0
  7  9  1  0  0  0  0
  9 10  1  0  0  0  0
  9 11  1  0  0  0  0
  9 29  1  0  0  0  0
 11 12  1  0  0  0  0
 11 13  1  0  0  0  0
 11 14  1  0  0  0  0
 14 15  1  0  0  0  0
 14 16  1  0  0  0  0
 14 17  1  0  0  0  0
 17 18  1  0  0  0  0
 17 19  1  0  0  0  0
 17 20  1  0  0  0  0
 20 21  1  0  0  0  0
 20 22  2  0  0  0  0
 22 23  1  0  0  0  0
 22 26  1  0  0  0  0
 23 24  1  0  0  0  0
 23 25  1  0  0  0  0
 26 27  1  0  0  0  0
 26 28  1  0  0  0  0
 29 30  2  0  0  0  0
 29 31  1  0  0  0  0
 31 32  1  0  0  0  0
 31 33  1  0  0  0  0
 33 34  1  0  0  0  0
 33 35  1  0  0  0  0
 33 36  1  0  0  0  0
M  CHG  1  20   1
M  END
$$$$

  -OEChem-02172215453D

 36 35  0     1  0  0  0  0  0999 V2000
   -4.2368   -2.0673    0.8629 H   0  0  0  0  0  0  0  0  0  0  0  0
   -4.1399   -1.0388    0.5027 C   0  0  0  0  0  0  0  0  0  0  0  0
   -4.8802   -0.4180    1.0129 H   0  0  0  0  0  0  0  0  0  0  0  0
   -4.3403   -1.0261   -0.5714 H   0  0  0  0  0  0  0  0  0  0  0  0
   -2.7419   -0.5172    0.7784 C   0  0  0  0  0  0  0  0  0  0  0  0
   -1.9484   -1.2438    1.3471 O   0  0  0  0  0  0  0  0  0  0  0  0
   -2.4268    0.7761    0.3904 N   0  0  0  0  0  0  0  0  0  0  0  0
   -3.1914    1.2795   -0.0527 H   0  0  0  0  0  0  0  0  0  0  0  0
   -1.1367    1.5069    0.5047 C   0  0  1  0  0  0  0  0  0  0  0  0
   -1.3687    2.5761    0.5185 H   0  0  0  0  0  0  0  0  0  0  0  0
   -0.3236    1.2078    1.7921 C   0  0  0  0  0  0  0  0  0  0  0  0
   -0.0787    0.1458    1.8693 H   0  0  0  0  0  0  0  0  0  0  0  0
    0.6349    1.7341    1.7278 H   0  0  0  0  0  0  0  0  0  0  0  0
   -1.0133    1.7126    3.0624 C   0  0  0  0  0  0  0  0  0  0  0  0
   -1.1659    2.7952    3.0035 H   0  0  0  0  0  0  0  0  0  0  0  0
   -1.9898    1.2288    3.1690 H   0  0  0  0  0  0  0  0  0  0  0  0
   -0.1275    1.3644    4.2562 C   0  0  0  0  0  0  0  0  0  0  0  0
    0.0256    0.2795    4.2723 H   0  0  0  0  0  0  0  0  0  0  0  0
    0.8472    1.8492    4.1301 H   0  0  0  0  0  0  0  0  0  0  0  0
   -0.7498    1.8048    5.5175 N   0  3  0  0  0  0  0  0  0  0  0  0
   -1.6419    2.2922    5.4527 H   0  0  0  0  0  0  0  0  0  0  0  0
   -0.2256    1.5775    6.6874 C   0  0  0  0  0  0  0  0  0  0  0  0
    0.9647    0.8999    6.8270 N   0  0  0  0  0  0  0  0  0  0  0  0
    1.3492    0.4408    6.0029 H   0  0  0  0  0  0  0  0  0  0  0  0
    1.2116    0.5267    7.7412 H   0  0  0  0  0  0  0  0  0  0  0  0
   -0.8677    2.0207    7.8193 N   0  0  0  0  0  0  0  0  0  0  0  0
   -1.6419    2.6739    7.7180 H   0  0  0  0  0  0  0  0  0  0  0  0
   -0.3514    2.0260    8.6971 H   0  0  0  0  0  0  0  0  0  0  0  0
   -0.2597    1.2917   -0.7588 C   0  0  0  0  0  0  0  0  0  0  0  0
    0.9540    1.4429   -0.7153 O   0  0  0  0  0  0  0  0  0  0  0  0
   -0.8488    1.0723   -1.9921 N   0  0  0  0  0  0  0  0  0  0  0  0
   -1.8415    0.8654   -2.0005 H   0  0  0  0  0  0  0  0  0  0  0  0
   -0.0835    0.8854   -3.2214 C   0  0  0  0  0  0  0  0  0  0  0  0
    0.5529   -0.0029   -3.1468 H   0  0  0  0  0  0  0  0  0  0  0  0
   -0.7579    0.7575   -4.0738 H   0  0  0  0  0  0  0  0  0  0  0  0
    0.5516    1.7569   -3.4143 H   0  0  0  0  0  0  0  0  0  0  0  0
  1  2  1  0  0  0  0
  2  3  1  0  0  0  0
  2  4  1  0  0  0  0
  2  5  1  0  0  0  0
  5  6  2  0  0  0  0
  5  7  1  0  0  0  0
  7  8  1  0  0  0  0
  7  9  1  0  0  0  0
  9 10  1  0  0  0  0
  9 11  1  0  0  0  0
  9 29  1  0  0  0  0
 11 12  1  0  0  0  0
 11 13  1  0  0  0  0
 11 14  1  0  0  0  0
 14 15  1  0  0  0  0
 14 16  1  0  0  0  0
 14 17  1  0  0  0  0
 17 18  1  0  0  0  0
 17 19  1  0  0  0  0
 17 20  1  0  0  0  0
 20 21  1  0  0  0  0
 20 22  2  0  0  0  0
 22 23  1  0  0  0  0
 22 26  1  0  0  0  0
 23 24  1  0  0  0  0
 23 25  1  0  0  0  0
 26 27  1  0  0  0  0
 26 28  1  0  0  0  0
 29 30  2  0  0  0  0
 29 31  1  0  0  0  0
 31 32  1  0  0  0  0
 31 33  1  0  0  0  0
 33 34  1  0  0  0  0
 33 35  1  0  0  0  0
 33 36  1  0  0  0  0
M  CHG  1  20   1
M  END
$$$$

  -OEChem-02172215453D

 36 35  0     1  0  0  0  0  0999 V2000
   -4.2023   -2.0947    0.7529 H   0  0  0  0  0  0  0  0  0  0  0  0
   -4.1089   -1.0624    0.4030 C   0  0  0  0  0  0  0  0  0  0  0  0
   -4.9094   -0.4673    0.8486 H   0  0  0  0  0  0  0  0  0  0  0  0
   -4.2175   -1.0533   -0.6842 H   0  0  0  0  0  0  0  0  0  0  0  0
   -2.7563   -0.4972    0.7950 C   0  0  0  0  0  0  0  0  0  0  0  0
   -2.0156   -1.1813    1.4774 O   0  0  0  0  0  0  0  0  0  0  0  0
   -2.4378    0.7938    0.4001 N   0  0  0  0  0  0  0  0  0  0  0  0
   -3.1690    1.2545   -0.1348 H   0  0  0  0  0  0  0  0  0  0  0  0
   -1.1474    1.5234    0.5173 C   0  0  1  0  0  0  0  0  0  0  0  0
   -1.3750    2.5935    0.5284 H   0  0  0  0  0  0  0  0  0  0  0  0
   -0.3321    1.2252    1.8034 C   0  0  0  0  0  0  0  0  0  0  0  0
   -0.0837    0.1637    1.8793 H   0  0  0  0  0  0  0  0  0  0  0  0
    0.6250    1.7539    1.7327 H   0  0  0  0  0  0  0  0  0  0  0  0
   -1.0168    1.7273    3.0764 C   0  0  0  0  0  0  0  0  0  0  0  0
   -1.1708    2.8100    3.0196 H   0  0  0  0  0  0  0  0  0  0  0  0
   -1.9924    1.2425    3.1867 H   0  0  0  0  0  0  0  0  0  0  0  0
   -0.1233    1.3757    4.2632 C   0  0  0  0  0  0  0  0  0  0  0  0
    0.0293    0.2904    4.2750 H   0  0  0  0  0  0  0  0  0  0  0  0
    0.8504    1.8613    4.1317 H   0  0  0  0  0  0  0  0  0  0  0  0
   -0.7373    1.8116    5.5298 N   0  3  0  0  0  0  0  0  0  0  0  0
   -1.6338    2.2916    5.4724 H   0  0  0  0  0  0  0  0  0  0  0  0
   -0.2053    1.5804    6.6951 C   0  0  0  0  0  0  0  0  0  0  0  0
    0.9859    0.9026    6.8242 N   0  0  0  0  0  0  0  0  0  0  0  0
    1.3611    0.4431    5.9962 H   0  0  0  0  0  0  0  0  0  0  0  0
    1.2358    0.5235    7.7351 H   0  0  0  0  0  0  0  0  0  0  0  0
   -0.8411    2.0177    7.8327 N   0  0  0  0  0  0  0  0  0  0  0  0
   -1.6170    2.6699    7.7388 H   0  0  0  0  0  0  0  0  0  0  0  0
   -0.3199    2.0194    8.7076 H   0  0  0  0  0  0  0  0  0  0  0  0
   -0.2768    1.2887   -0.7480 C   0  0  0  0  0  0  0  0  0  0  0  0
    0.9351    1.1346   -0.6721 O   0  0  0  0  0  0  0  0  0  0  0  0
   -0.8461    1.3703   -2.0077 N   0  0  0  0  0  0  0  0  0  0  0  0
   -1.8524    1.4782   -2.0669 H   0  0  0  0  0  0  0  0  0  0  0  0
   -0.0854    1.1986   -3.2422 C   0  0  0  0  0  0  0  0  0  0  0  0
    0.3697    0.2029   -3.2780 H   0  0  0  0  0  0  0  0  0  0  0  0
   -0.7412    1.3097   -4.1111 H   0  0  0  0  0  0  0  0  0  0  0  0
    0.7086    1.9500   -3.3119 H   0  0  0  0  0  0  0  0  0  0  0  0
  1  2  1  0  0  0  0
  2  3  1  0  0  0  0
  2  4  1  0  0  0  0
  2  5  1  0  0  0  0
  5  6  2  0  0  0  0
  5  7  1  0  0  0  0
  7  8  1  0  0  0  0
  7  9  1  0  0  0  0
  9 10  1  0  0  0  0
  9 11  1  0  0  0  0
  9 29  1  0  0  0  0
 11 12  1  0  0  0  0
 11 13  1  0  0  0  0
 11 14  1  0  0  0  0
 14 15  1  0  0  0  0
 14 16  1  0  0  0  0
 14 17  1  0  0  0  0
 17 18  1  0  0  0  0
 17 19  1  0  0  0  0
 17 20  1  0  0  0  0
 20 21  1  0  0  0  0
 20 22  2  0  0  0  0
 22 23  1  0  0  0  0
 22 26  1  0  0  0  0
 23 24  1  0  0  0  0
 23 25  1  0  0  0  0
 26 27  1  0  0  0  0
 26 28  1  0  0  0  0
 29 30  2  0  0  0  0
 29 31  1  0  0  0  0
 31 32  1  0  0  0  0
 31 33  1  0  0  0  0
 33 34  1  0  0  0  0
 33 35  1  0  0  0  0
 33 36  1  0  0  0  0
M  CHG  1  20   1
M  END
$$$$

  -OEChem-02172215453D

 36 35  0     1  0  0  0  0  0999 V2000
   -4.1509   -2.1172    0.6612 H   0  0  0  0  0  0  0  0  0  0  0  0
   -4.0642   -1.0856    0.3074 C   0  0  0  0  0  0  0  0  0  0  0  0
   -4.9263   -0.5179    0.6653 H   0  0  0  0  0  0  0  0  0  0  0  0
   -4.0666   -1.0920   -0.7852 H   0  0  0  0  0  0  0  0  0  0  0  0
   -2.7794   -0.4631    0.8210 C   0  0  0  0  0  0  0  0  0  0  0  0
   -2.1138   -1.0893    1.6263 O   0  0  0  0  0  0  0  0  0  0  0  0
   -2.4585    0.8243    0.4145 N   0  0  0  0  0  0  0  0  0  0  0  0
   -3.1272    1.2160   -0.2428 H   0  0  0  0  0  0  0  0  0  0  0  0
   -1.1637    1.5454    0.5305 C   0  0  1  0  0  0  0  0  0  0  0  0
   -1.3792    2.6179    0.5426 H   0  0  0  0  0  0  0  0  0  0  0  0
   -0.3397    1.2398    1.8076 C   0  0  0  0  0  0  0  0  0  0  0  0
   -0.0990    0.1755    1.8779 H   0  0  0  0  0  0  0  0  0  0  0  0
    0.6205    1.7613    1.7230 H   0  0  0  0  0  0  0  0  0  0  0  0
   -1.0129    1.7401    3.0879 C   0  0  0  0  0  0  0  0  0  0  0  0
   -1.1628    2.8233    3.0354 H   0  0  0  0  0  0  0  0  0  0  0  0
   -1.9901    1.2593    3.2033 H   0  0  0  0  0  0  0  0  0  0  0  0
   -0.1144    1.3822    4.2685 C   0  0  0  0  0  0  0  0  0  0  0  0
    0.0334    0.2962    4.2769 H   0  0  0  0  0  0  0  0  0  0  0  0
    0.8609    1.8631    4.1337 H   0  0  0  0  0  0  0  0  0  0  0  0
   -0.7218    1.8178    5.5382 N   0  3  0  0  0  0  0  0  0  0  0  0
   -1.6199    2.2954    5.4850 H   0  0  0  0  0  0  0  0  0  0  0  0
   -0.1866    1.5830    6.7015 C   0  0  0  0  0  0  0  0  0  0  0  0
    1.0027    0.9011    6.8266 N   0  0  0  0  0  0  0  0  0  0  0  0
    1.3683    0.4352    5.9979 H   0  0  0  0  0  0  0  0  0  0  0  0
    1.2521    0.5191    7.7365 H   0  0  0  0  0  0  0  0  0  0  0  0
   -0.8179    2.0204    7.8416 N   0  0  0  0  0  0  0  0  0  0  0  0
   -1.5958    2.6710    7.7519 H   0  0  0  0  0  0  0  0  0  0  0  0
   -0.2975    2.0154    8.7170 H   0  0  0  0  0  0  0  0  0  0  0  0
   -0.3055    1.2861   -0.7369 C   0  0  0  0  0  0  0  0  0  0  0  0
    0.8204    0.8116   -0.6685 O   0  0  0  0  0  0  0  0  0  0  0  0
   -0.7868    1.6592   -1.9808 N   0  0  0  0  0  0  0  0  0  0  0  0
   -1.6976    2.1036   -2.0273 H   0  0  0  0  0  0  0  0  0  0  0  0
   -0.0214    1.4994   -3.2139 C   0  0  0  0  0  0  0  0  0  0  0  0
    0.2313    0.4458   -3.3753 H   0  0  0  0  0  0  0  0  0  0  0  0
   -0.6044    1.8489   -4.0714 H   0  0  0  0  0  0  0  0  0  0  0  0
    0.9065    2.0796   -3.1678 H   0  0  0  0  0  0  0  0  0  0  0  0
  1  2  1  0  0  0  0
  2  3  1  0  0  0  0
  2  4  1  0  0  0  0
  2  5  1  0  0  0  0
  5  6  2  0  0  0  0
  5  7  1  0  0  0  0
  7  8  1  0  0  0  0
  7  9  1  0  0  0  0
  9 10  1  0  0  0  0
  9 11  1  0  0  0  0
  9 29  1  0  0  0  0
 11 12  1  0  0  0  0
 11 13  1  0  0  0  0
 11 14  1  0  0  0  0
 14 15  1  0  0  0  0
 14 16  1  0  0  0  0
 14 17  1  0  0  0  0
 17 18  1  0  0  0  0
 17 19  1  0  0  0  0
 17 20  1  0  0  0  0
 20 21  1  0  0  0  0
 20 22  2  0  0  0  0
 22 23  1  0  0  0  0
 22 26  1  0  0  0  0
 23 24  1  0  0  0  0
 23 25  1  0  0  0  0
 26 27  1  0  0  0  0
 26 28  1  0  0  0  0
 29 30  2  0  0  0  0
 29 31  1  0  0  0  0
 31 32  1  0  0  0  0
 31 33  1  0  0  0  0
 33 34  1  0  0  0  0
 33 35  1  0  0  0  0
 33 36  1  0  0  0  0
M  CHG  1  20   1
M  END
$$$$

  -OEChem-02172215453D

 36 35  0     1  0  0  0  0  0999 V2000
   -4.1040   -2.1256    0.6088 H   0  0  0  0  0  0  0  0  0  0  0  0
   -4.0194   -1.0991    0.2396 C   0  0  0  0  0  0  0  0  0  0  0  0
   -4.9227   -0.5506    0.5161 H   0  0  0  0  0  0  0  0  0  0  0  0
   -3.9353   -1.1282   -0.8495 H   0  0  0  0  0  0  0  0  0  0  0  0
   -2.7970   -0.4279    0.8379 C   0  0  0  0  0  0  0  0  0  0  0  0
   -2.1924   -1.0072    1.7239 O   0  0  0  0  0  0  0  0  0  0  0  0
   -2.4790    0.8579    0.4234 N   0  0  0  0  0  0  0  0  0  0  0  0
   -3.1008    1.2013   -0.3039 H   0  0  0  0  0  0  0  0  0  0  0  0
   -1.1822    1.5738    0.5411 C   0  0  1  0  0  0  0  0  0  0  0  0
   -1.3923    2.6471    0.5576 H   0  0  0  0  0  0  0  0  0  0  0  0
   -0.3509    1.2610    1.8095 C   0  0  0  0  0  0  0  0  0  0  0  0
   -0.1186    0.1942    1.8754 H   0  0  0  0  0  0  0  0  0  0  0  0
    0.6126    1.7744    1.7162 H   0  0  0  0  0  0  0  0  0  0  0  0
   -1.0171    1.7568    3.0956 C   0  0  0  0  0  0  0  0  0  0  0  0
   -1.1647    2.8405    3.0488 H   0  0  0  0  0  0  0  0  0  0  0  0
   -1.9954    1.2791    3.2149 H   0  0  0  0  0  0  0  0  0  0  0  0
   -0.1127    1.3921    4.2690 C   0  0  0  0  0  0  0  0  0  0  0  0
    0.0340    0.3059    4.2705 H   0  0  0  0  0  0  0  0  0  0  0  0
    0.8620    1.8733    4.1306 H   0  0  0  0  0  0  0  0  0  0  0  0
   -0.7125    1.8226    5.5443 N   0  3  0  0  0  0  0  0  0  0  0  0
   -1.6124    2.2976    5.4982 H   0  0  0  0  0  0  0  0  0  0  0  0
   -0.1711    1.5810    6.7031 C   0  0  0  0  0  0  0  0  0  0  0  0
    1.0177    0.8963    6.8157 N   0  0  0  0  0  0  0  0  0  0  0  0
    1.3707    0.4305    5.9815 H   0  0  0  0  0  0  0  0  0  0  0  0
    1.2663    0.5017    7.7203 H   0  0  0  0  0  0  0  0  0  0  0  0
   -0.7960    2.0103    7.8498 N   0  0  0  0  0  0  0  0  0  0  0  0
   -1.5750    2.6606    7.7691 H   0  0  0  0  0  0  0  0  0  0  0  0
   -0.2705    2.0000    8.7220 H   0  0  0  0  0  0  0  0  0  0  0  0
   -0.3281    1.3018   -0.7233 C   0  0  0  0  0  0  0  0  0  0  0  0
    0.6468    0.5632   -0.6953 O   0  0  0  0  0  0  0  0  0  0  0  0
   -0.6466    1.9343   -1.9130 N   0  0  0  0  0  0  0  0  0  0  0  0
   -1.4257    2.5852   -1.9165 H   0  0  0  0  0  0  0  0  0  0  0  0
    0.1248    1.7591   -3.1405 C   0  0  0  0  0  0  0  0  0  0  0  0
    0.1477    0.7037   -3.4327 H   0  0  0  0  0  0  0  0  0  0  0  0
   -0.3245    2.3323   -3.9576 H   0  0  0  0  0  0  0  0  0  0  0  0
    1.1541    2.1062   -3.0000 H   0  0  0  0  0  0  0  0  0  0  0  0
  1  2  1  0  0  0  0
  2  3  1  0  0  0  0
  2  4  1  0  0  0  0
  2  5  1  0  0  0  0
  5  6  2  0  0  0  0
  5  7  1  0  0  0  0
  7  8  1  0  0  0  0
  7  9  1  0  0  0  0
  9 10  1  0  0  0  0
  9 11  1  0  0  0  0
  9 29  1  0  0  0  0
 11 12  1  0  0  0  0
 11 13  1  0  0  0  0
 11 14  1  0  0  0  0
 14 15  1  0  0  0  0
 14 16  1  0  0  0  0
 14 17  1  0  0  0  0
 17 18  1  0  0  0  0
 17 19  1  0  0  0  0
 17 20  1  0  0  0  0
 20 21  1  0  0  0  0
 20 22  2  0  0  0  0
 22 23  1  0  0  0  0
 22 26  1  0  0  0  0
 23 24  1  0  0  0  0
 23 25  1  0  0  0  0
 26 27  1  0  0  0  0
 26 28  1  0  0  0  0
 29 30  2  0  0  0  0
 29 31  1  0  0  0  0
 31 32  1  0  0  0  0
 31 33  1  0  0  0  0
 33 34  1  0  0  0  0
 33 35  1  0  0  0  0
 33 36  1  0  0  0  0
M  CHG  1  20   1
M  END
$$$$

  -OEChem-02172215453D

 36 35  0     1  0  0  0  0  0999 V2000
   -4.0648   -2.1275    0.5756 H   0  0  0  0  0  0  0  0  0  0  0  0
   -3.9850   -1.1033    0.2002 C   0  0  0  0  0  0  0  0  0  0  0  0
   -4.9109   -0.5708    0.4295 H   0  0  0  0  0  0  0  0  0  0  0  0
   -3.8508   -1.1404   -0.8837 H   0  0  0  0  0  0  0  0  0  0  0  0
   -2.8058   -0.4002    0.8457 C   0  0  0  0  0  0  0  0  0  0  0  0
   -2.2412   -0.9484    1.7775 O   0  0  0  0  0  0  0  0  0  0  0  0
   -2.4939    0.8855    0.4267 N   0  0  0  0  0  0  0  0  0  0  0  0
   -3.0855    1.1976   -0.3393 H   0  0  0  0  0  0  0  0  0  0  0  0
   -1.1974    1.5992    0.5474 C   0  0  1  0  0  0  0  0  0  0  0  0
   -1.4074    2.6726    0.5693 H   0  0  0  0  0  0  0  0  0  0  0  0
   -0.3568    1.2792    1.8064 C   0  0  0  0  0  0  0  0  0  0  0  0
   -0.1291    0.2108    1.8645 H   0  0  0  0  0  0  0  0  0  0  0  0
    0.6076    1.7897    1.7075 H   0  0  0  0  0  0  0  0  0  0  0  0
   -1.0171    1.7659    3.1001 C   0  0  0  0  0  0  0  0  0  0  0  0
   -1.1673    2.8496    3.0599 H   0  0  0  0  0  0  0  0  0  0  0  0
   -1.9945    1.2870    3.2221 H   0  0  0  0  0  0  0  0  0  0  0  0
   -0.1083    1.3976    4.2690 C   0  0  0  0  0  0  0  0  0  0  0  0
    0.0407    0.3117    4.2657 H   0  0  0  0  0  0  0  0  0  0  0  0
    0.8650    1.8813    4.1315 H   0  0  0  0  0  0  0  0  0  0  0  0
   -0.7071    1.8213    5.5469 N   0  3  0  0  0  0  0  0  0  0  0  0
   -1.6107    2.2898    5.5048 H   0  0  0  0  0  0  0  0  0  0  0  0
   -0.1632    1.5765    6.7039 C   0  0  0  0  0  0  0  0  0  0  0  0
    1.0277    0.8948    6.8135 N   0  0  0  0  0  0  0  0  0  0  0  0
    1.3823    0.4321    5.9783 H   0  0  0  0  0  0  0  0  0  0  0  0
    1.2809    0.5025    7.7180 H   0  0  0  0  0  0  0  0  0  0  0  0
   -0.7883    1.9983    7.8534 N   0  0  0  0  0  0  0  0  0  0  0  0
   -1.5703    2.6456    7.7774 H   0  0  0  0  0  0  0  0  0  0  0  0
   -0.2625    1.9839    8.7254 H   0  0  0  0  0  0  0  0  0  0  0  0
   -0.3415    1.3237   -0.7123 C   0  0  0  0  0  0  0  0  0  0  0  0
    0.4254    0.3728   -0.7638 O   0  0  0  0  0  0  0  0  0  0  0  0
   -0.4400    2.1624   -1.8088 N   0  0  0  0  0  0  0  0  0  0  0  0
   -1.0673    2.9588   -1.7496 H   0  0  0  0  0  0  0  0  0  0  0  0
    0.3350    1.9703   -3.0312 C   0  0  0  0  0  0  0  0  0  0  0  0
    0.1218    0.9903   -3.4720 H   0  0  0  0  0  0  0  0  0  0  0  0
    0.0823    2.7404   -3.7666 H   0  0  0  0  0  0  0  0  0  0  0  0
    1.4078    2.0330   -2.8195 H   0  0  0  0  0  0  0  0  0  0  0  0
  1  2  1  0  0  0  0
  2  3  1  0  0  0  0
  2  4  1  0  0  0  0
  2  5  1  0  0  0  0
  5  6  2  0  0  0  0
  5  7  1  0  0  0  0
  7  8  1  0  0  0  0
  7  9  1  0  0  0  0
  9 10  1  0  0  0  0
  9 11  1  0  0  0  0
  9 29  1  0  0  0  0
 11 12  1  0  0  0  0
 11 13  1  0  0  0  0
 11 14  1  0  0  0  0
 14 15  1  0  0  0  0
 14 16  1  0  0  0  0
 14 17  1  0  0  0  0
 17 18  1  0  0  0  0
 17 19  1  0  0  0  0
 17 20  1  0  0  0  0
 20 21  1  0  0  0  0
 20 22  2  0  0  0  0
 22 23  1  0  0  0  0
 22 26  1  0  0  0  0
 23 24  1  0  0  0  0
 23 25  1  0  0  0  0
 26 27  1  0  0  0  0
 26 28  1  0  0  0  0
 29 30  2  0  0  0  0
 29 31  1  0  0  0  0
 31 32  1  0  0  0  0
 31 33  1  0  0  0  0
 33 34  1  0  0  0  0
 33 35  1  0  0  0  0
 33 36  1  0  0  0  0
M  CHG  1  20   1
M  END
$$$$

  -OEChem-02172215453D

 36 35  0     1  0  0  0  0  0999 V2000
   -4.0317   -2.1241    0.5639 H   0  0  0  0  0  0  0  0  0  0  0  0
   -3.9538   -1.1036    0.1779 C   0  0  0  0  0  0  0  0  0  0  0  0
   -4.8943   -0.5814    0.3680 H   0  0  0  0  0  0  0  0  0  0  0  0
   -3.7810   -1.1524   -0.9002 H   0  0  0  0  0  0  0  0  0  0  0  0
   -2.8074   -0.3755    0.8541 C   0  0  0  0  0  0  0  0  0  0  0  0
   -2.2694   -0.9013    1.8150 O   0  0  0  0  0  0  0  0  0  0  0  0
   -2.5014    0.9104    0.4311 N   0  0  0  0  0  0  0  0  0  0  0  0
   -3.0719    1.2003   -0.3594 H   0  0  0  0  0  0  0  0  0  0  0  0
   -1.2050    1.6233    0.5538 C   0  0  1  0  0  0  0  0  0  0  0  0
   -1.4171    2.6960    0.5799 H   0  0  0  0  0  0  0  0  0  0  0  0
   -0.3549    1.2959    1.8031 C   0  0  0  0  0  0  0  0  0  0  0  0
   -0.1275    0.2266    1.8503 H   0  0  0  0  0  0  0  0  0  0  0  0
    0.6088    1.8074    1.7024 H   0  0  0  0  0  0  0  0  0  0  0  0
   -1.0099    1.7722    3.1043 C   0  0  0  0  0  0  0  0  0  0  0  0
   -1.1621    2.8558    3.0708 H   0  0  0  0  0  0  0  0  0  0  0  0
   -1.9866    1.2930    3.2282 H   0  0  0  0  0  0  0  0  0  0  0  0
   -0.0989    1.4016    4.2709 C   0  0  0  0  0  0  0  0  0  0  0  0
    0.0525    0.3161    4.2643 H   0  0  0  0  0  0  0  0  0  0  0  0
    0.8733    1.8888    4.1365 H   0  0  0  0  0  0  0  0  0  0  0  0
   -0.7022    1.8192    5.5489 N   0  3  0  0  0  0  0  0  0  0  0  0
   -1.6102    2.2793    5.5062 H   0  0  0  0  0  0  0  0  0  0  0  0
   -0.1609    1.5733    6.7068 C   0  0  0  0  0  0  0  0  0  0  0  0
    1.0323    0.8959    6.8168 N   0  0  0  0  0  0  0  0  0  0  0  0
    1.3931    0.4419    5.9796 H   0  0  0  0  0  0  0  0  0  0  0  0
    1.2838    0.4982    7.7192 H   0  0  0  0  0  0  0  0  0  0  0  0
   -0.7936    1.9839    7.8560 N   0  0  0  0  0  0  0  0  0  0  0  0
   -1.5840    2.6210    7.7809 H   0  0  0  0  0  0  0  0  0  0  0  0
   -0.2732    1.9664    8.7312 H   0  0  0  0  0  0  0  0  0  0  0  0
   -0.3470    1.3454   -0.7028 C   0  0  0  0  0  0  0  0  0  0  0  0
    0.1720    0.2516   -0.8742 O   0  0  0  0  0  0  0  0  0  0  0  0
   -0.1920    2.3207   -1.6724 N   0  0  0  0  0  0  0  0  0  0  0  0
   -0.6400    3.2204   -1.5257 H   0  0  0  0  0  0  0  0  0  0  0  0
    0.5794    2.1130   -2.8948 C   0  0  0  0  0  0  0  0  0  0  0  0
    0.1612    1.2849   -3.4772 H   0  0  0  0  0  0  0  0  0  0  0  0
    0.5600    3.0145   -3.5151 H   0  0  0  0  0  0  0  0  0  0  0  0
    1.6227    1.8811   -2.6559 H   0  0  0  0  0  0  0  0  0  0  0  0
  1  2  1  0  0  0  0
  2  3  1  0  0  0  0
  2  4  1  0  0  0  0
  2  5  1  0  0  0  0
  5  6  2  0  0  0  0
  5  7  1  0  0  0  0
  7  8  1  0  0  0  0
  7  9  1  0  0  0  0
  9 10  1  0  0  0  0
  9 11  1  0  0  0  0
  9 29  1  0  0  0  0
 11 12  1  0  0  0  0
 11 13  1  0  0  0  0
 11 14  1  0  0  0  0
 14 15  1  0  0  0  0
 14 16  1  0  0  0  0
 14 17  1  0  0  0  0
 17 18  1  0  0  0  0
 17 19  1  0  0  0  0
 17 20  1  0  0  0  0
 20 21  1  0  0  0  0
 20 22  2  0  0  0  0
 22 23  1  0  0  0  0
 22 26  1  0  0  0  0
 23 24  1  0  0  0  0
 23 25  1  0  0  0  0
 26 27  1  0  0  0  0
 26 28  1  0  0  0  0
 29 30  2  0  0  0  0
 29 31  1  0  0  0  0
 31 32  1  0  0  0  0
 31 33  1  0  0  0  0
 33 34  1  0  0  0  0
 33 35  1  0  0  0  0
 33 36  1  0  0  0  0
M  CHG  1  20   1
M  END
$$$$

  -OEChem-02172215453D

 36 35  0     1  0  0  0  0  0999 V2000
   -4.0001   -2.1253    0.5492 H   0  0  0  0  0  0  0  0  0  0  0  0
   -3.9238   -1.1067    0.1586 C   0  0  0  0  0  0  0  0  0  0  0  0
   -4.8770   -0.5962    0.3146 H   0  0  0  0  0  0  0  0  0  0  0  0
   -3.7154   -1.1606   -0.9131 H   0  0  0  0  0  0  0  0  0  0  0  0
   -2.8092   -0.3581    0.8645 C   0  0  0  0  0  0  0  0  0  0  0  0
   -2.2926   -0.8697    1.8454 O   0  0  0  0  0  0  0  0  0  0  0  0
   -2.5047    0.9272    0.4387 N   0  0  0  0  0  0  0  0  0  0  0  0
   -3.0540    1.1970   -0.3739 H   0  0  0  0  0  0  0  0  0  0  0  0
   -1.2044    1.6338    0.5604 C   0  0  1  0  0  0  0  0  0  0  0  0
   -1.4155    2.7065    0.5870 H   0  0  0  0  0  0  0  0  0  0  0  0
   -0.3512    1.2993    1.8040 C   0  0  0  0  0  0  0  0  0  0  0  0
   -0.1288    0.2283    1.8460 H   0  0  0  0  0  0  0  0  0  0  0  0
    0.6142    1.8074    1.7037 H   0  0  0  0  0  0  0  0  0  0  0  0
   -1.0035    1.7761    3.1068 C   0  0  0  0  0  0  0  0  0  0  0  0
   -1.1506    2.8604    3.0742 H   0  0  0  0  0  0  0  0  0  0  0  0
   -1.9830    1.3032    3.2311 H   0  0  0  0  0  0  0  0  0  0  0  0
   -0.0951    1.4014    4.2736 C   0  0  0  0  0  0  0  0  0  0  0  0
    0.0505    0.3151    4.2668 H   0  0  0  0  0  0  0  0  0  0  0  0
    0.8792    1.8844    4.1412 H   0  0  0  0  0  0  0  0  0  0  0  0
   -0.6991    1.8209    5.5505 N   0  3  0  0  0  0  0  0  0  0  0  0
   -1.6049    2.2852    5.5051 H   0  0  0  0  0  0  0  0  0  0  0  0
   -0.1613    1.5732    6.7097 C   0  0  0  0  0  0  0  0  0  0  0  0
    1.0292    0.8914    6.8232 N   0  0  0  0  0  0  0  0  0  0  0  0
    1.3914    0.4365    5.9870 H   0  0  0  0  0  0  0  0  0  0  0  0
    1.2741    0.4897    7.7259 H   0  0  0  0  0  0  0  0  0  0  0  0
   -0.7948    1.9866    7.8574 N   0  0  0  0  0  0  0  0  0  0  0  0
   -1.5825    2.6270    7.7804 H   0  0  0  0  0  0  0  0  0  0  0  0
   -0.2746    1.9706    8.7329 H   0  0  0  0  0  0  0  0  0  0  0  0
   -0.3451    1.3551   -0.6943 C   0  0  0  0  0  0  0  0  0  0  0  0
   -0.0812    0.2062   -1.0194 O   0  0  0  0  0  0  0  0  0  0  0  0
    0.0761    2.3958   -1.5032 N   0  0  0  0  0  0  0  0  0  0  0  0
   -0.1777    3.3432   -1.2391 H   0  0  0  0  0  0  0  0  0  0  0  0
    0.8395    2.1910   -2.7310 C   0  0  0  0  0  0  0  0  0  0  0  0
    0.2712    1.5791   -3.4400 H   0  0  0  0  0  0  0  0  0  0  0  0
    1.0610    3.1518   -3.2058 H   0  0  0  0  0  0  0  0  0  0  0  0
    1.7872    1.6865   -2.5142 H   0  0  0  0  0  0  0  0  0  0  0  0
  1  2  1  0  0  0  0
  2  3  1  0  0  0  0
  2  4  1  0  0  0  0
  2  5  1  0  0  0  0
  5  6  2  0  0  0  0
  5  7  1  0  0  0  0
  7  8  1  0  0  0  0
  7  9  1  0  0  0  0
  9 10  1  0  0  0  0
  9 11  1  0  0  0  0
  9 29  1  0  0  0  0
 11 12  1  0  0  0  0
 11 13  1  0  0  0  0
 11 14  1  0  0  0  0
 14 15  1  0  0  0  0
 14 16  1  0  0  0  0
 14 17  1  0  0  0  0
 17 18  1  0  0  0  0
 17 19  1  0  0  0  0
 17 20  1  0  0  0  0
 20 21  1  0  0  0  0
 20 22  2  0  0  0  0
 22 23  1  0  0  0  0
 22 26  1  0  0  0  0
 23 24  1  0  0  0  0
 23 25  1  0  0  0  0
 26 27  1  0  0  0  0
 26 28  1  0  0  0  0
 29 30  2  0  0  0  0
 29 31  1  0  0  0  0
 31 32  1  0  0  0  0
 31 33  1  0  0  0  0
 33 34  1  0  0  0  0
 33 35  1  0  0  0  0
 33 36  1  0  0  0  0
M  CHG  1  20   1
M  END
$$$$

  -OEChem-02172215453D

 36 35  0     1  0  0  0  0  0999 V2000
   -4.0036   -2.1173    0.5632 H   0  0  0  0  0  0  0  0  0  0  0  0
   -3.9113   -1.1063    0.1565 C   0  0  0  0  0  0  0  0  0  0  0  0
   -4.8637   -0.5864    0.2825 H   0  0  0  0  0  0  0  0  0  0  0  0
   -3.6802   -1.1804   -0.9092 H   0  0  0  0  0  0  0  0  0  0  0  0
   -2.8064   -0.3529    0.8719 C   0  0  0  0  0  0  0  0  0  0  0  0
   -2.2934   -0.8632    1.8560 O   0  0  0  0  0  0  0  0  0  0  0  0
   -2.5018    0.9326    0.4466 N   0  0  0  0  0  0  0  0  0  0  0  0
   -3.0371    1.1909   -0.3792 H   0  0  0  0  0  0  0  0  0  0  0  0
   -1.1969    1.6323    0.5629 C   0  0  1  0  0  0  0  0  0  0  0  0
   -1.4062    2.7055    0.5903 H   0  0  0  0  0  0  0  0  0  0  0  0
   -0.3400    1.2913    1.8017 C   0  0  0  0  0  0  0  0  0  0  0  0
   -0.1246    0.2189    1.8400 H   0  0  0  0  0  0  0  0  0  0  0  0
    0.6284    1.7932    1.6994 H   0  0  0  0  0  0  0  0  0  0  0  0
   -0.9875    1.7715    3.1070 C   0  0  0  0  0  0  0  0  0  0  0  0
   -1.1303    2.8567    3.0742 H   0  0  0  0  0  0  0  0  0  0  0  0
   -1.9692    1.3031    3.2327 H   0  0  0  0  0  0  0  0  0  0  0  0
   -0.0834    1.3950    4.2769 C   0  0  0  0  0  0  0  0  0  0  0  0
    0.0585    0.3081    4.2736 H   0  0  0  0  0  0  0  0  0  0  0  0
    0.8931    1.8744    4.1459 H   0  0  0  0  0  0  0  0  0  0  0  0
   -0.6929    1.8221    5.5493 N   0  3  0  0  0  0  0  0  0  0  0  0
   -1.5991    2.2851    5.4969 H   0  0  0  0  0  0  0  0  0  0  0  0
   -0.1651    1.5779    6.7138 C   0  0  0  0  0  0  0  0  0  0  0  0
    1.0214    0.8918    6.8394 N   0  0  0  0  0  0  0  0  0  0  0  0
    1.3809    0.4216    6.0107 H   0  0  0  0  0  0  0  0  0  0  0  0
    1.2614    0.5012    7.7480 H   0  0  0  0  0  0  0  0  0  0  0  0
   -0.8069    1.9989    7.8544 N   0  0  0  0  0  0  0  0  0  0  0  0
   -1.5911    2.6425    7.7691 H   0  0  0  0  0  0  0  0  0  0  0  0
   -0.2994    1.9752    8.7370 H   0  0  0  0  0  0  0  0  0  0  0  0
   -0.3388    1.3575   -0.6948 C   0  0  0  0  0  0  0  0  0  0  0  0
   -0.3162    0.2419   -1.1963 O   0  0  0  0  0  0  0  0  0  0  0  0
    0.3404    2.3872   -1.3223 N   0  0  0  0  0  0  0  0  0  0  0  0
    0.2769    3.3191   -0.9236 H   0  0  0  0  0  0  0  0  0  0  0  0
    1.1045    2.2024   -2.5529 C   0  0  0  0  0  0  0  0  0  0  0  0
    0.4520    1.8578   -3.3622 H   0  0  0  0  0  0  0  0  0  0  0  0
    1.5657    3.1460   -2.8601 H   0  0  0  0  0  0  0  0  0  0  0  0
    1.8987    1.4628   -2.4050 H   0  0  0  0  0  0  0  0  0  0  0  0
  1  2  1  0  0  0  0
  2  3  1  0  0  0  0
  2  4  1  0  0  0  0
  2  5  1  0  0  0  0
  5  6  2  0  0  0  0
  5  7  1  0  0  0  0
  7  8  1  0  0  0  0
  7  9  1  0  0  0  0
  9 10  1  0  0  0  0
  9 11  1  0  0  0  0
  9 29  1  0  0  0  0
 11 12  1  0  0  0  0
 11 13  1  0  0  0  0
 11 14  1  0  0  0  0
 14 15  1  0  0  0  0
 14 16  1  0  0  0  0
 14 17  1  0  0  0  0
 17 18  1  0  0  0  0
 17 19  1  0  0  0  0
 17 20  1  0  0  0  0
 20 21  1  0  0  0  0
 20 22  2  0  0  0  0
 22 23  1  0  0  0  0
 22 26  1  0  0  0  0
 23 24  1  0  0  0  0
 23 25  1  0  0  0  0
 26 27  1  0  0  0  0
 26 28  1  0  0  0  0
 29 30  2  0  0  0  0
 29 31  1  0  0  0  0
 31 32  1  0  0  0  0
 31 33  1  0  0  0  0
 33 34  1  0  0  0  0
 33 35  1  0  0  0  0
 33 36  1  0  0  0  0
M  CHG  1  20   1
M  END
$$$$

  -OEChem-02172215453D

 36 35  0     1  0  0  0  0  0999 V2000
   -3.9970   -2.1155    0.5551 H   0  0  0  0  0  0  0  0  0  0  0  0
   -3.8963   -1.1063    0.1461 C   0  0  0  0  0  0  0  0  0  0  0  0
   -4.8508   -0.5856    0.2502 H   0  0  0  0  0  0  0  0  0  0  0  0
   -3.6437   -1.1841   -0.9146 H   0  0  0  0  0  0  0  0  0  0  0  0
   -2.8054   -0.3497    0.8793 C   0  0  0  0  0  0  0  0  0  0  0  0
   -2.2950   -0.8636    1.8630 O   0  0  0  0  0  0  0  0  0  0  0  0
   -2.4972    0.9358    0.4588 N   0  0  0  0  0  0  0  0  0  0  0  0
   -3.0172    1.1833   -0.3804 H   0  0  0  0  0  0  0  0  0  0  0  0
   -1.1864    1.6259    0.5683 C   0  0  1  0  0  0  0  0  0  0  0  0
   -1.3894    2.7004    0.5957 H   0  0  0  0  0  0  0  0  0  0  0  0
   -0.3303    1.2783    1.8069 C   0  0  0  0  0  0  0  0  0  0  0  0
   -0.1235    0.2048    1.8472 H   0  0  0  0  0  0  0  0  0  0  0  0
    0.6416    1.7727    1.7065 H   0  0  0  0  0  0  0  0  0  0  0  0
   -0.9748    1.7675    3.1106 C   0  0  0  0  0  0  0  0  0  0  0  0
   -1.1091    2.8537    3.0743 H   0  0  0  0  0  0  0  0  0  0  0  0
   -1.9608    1.3084    3.2357 H   0  0  0  0  0  0  0  0  0  0  0  0
   -0.0780    1.3880    4.2851 C   0  0  0  0  0  0  0  0  0  0  0  0
    0.0547    0.3001    4.2874 H   0  0  0  0  0  0  0  0  0  0  0  0
    0.9030    1.8586    4.1567 H   0  0  0  0  0  0  0  0  0  0  0  0
   -0.6893    1.8259    5.5527 N   0  3  0  0  0  0  0  0  0  0  0  0
   -1.5900    2.2987    5.4941 H   0  0  0  0  0  0  0  0  0  0  0  0
   -0.1691    1.5828    6.7207 C   0  0  0  0  0  0  0  0  0  0  0  0
    1.0108    0.8873    6.8564 N   0  0  0  0  0  0  0  0  0  0  0  0
    1.3713    0.4094    6.0326 H   0  0  0  0  0  0  0  0  0  0  0  0
    1.2424    0.5003    7.7690 H   0  0  0  0  0  0  0  0  0  0  0  0
   -0.8121    2.0162    7.8556 N   0  0  0  0  0  0  0  0  0  0  0  0
   -1.5899    2.6664    7.7631 H   0  0  0  0  0  0  0  0  0  0  0  0
   -0.3089    1.9931    8.7407 H   0  0  0  0  0  0  0  0  0  0  0  0
   -0.3367    1.3546   -0.6977 C   0  0  0  0  0  0  0  0  0  0  0  0
   -0.5357    0.3564   -1.3775 O   0  0  0  0  0  0  0  0  0  0  0  0
    0.5805    2.2910   -1.1424 N   0  0  0  0  0  0  0  0  0  0  0  0
    0.6981    3.1425   -0.6018 H   0  0  0  0  0  0  0  0  0  0  0  0
    1.3506    2.1290   -2.3729 C   0  0  0  0  0  0  0  0  0  0  0  0
    0.6831    2.0736   -3.2395 H   0  0  0  0  0  0  0  0  0  0  0  0
    2.0281    2.9771   -2.5124 H   0  0  0  0  0  0  0  0  0  0  0  0
    1.9494    1.2126   -2.3346 H   0  0  0  0  0  0  0  0  0  0  0  0
  1  2  1  0  0  0  0
  2  3  1  0  0  0  0
  2  4  1  0  0  0  0
  2  5  1  0  0  0  0
  5  6  2  0  0  0  0
  5  7  1  0  0  0  0
  7  8  1  0  0  0  0
  7  9  1  0  0  0  0
  9 10  1  0  0  0  0
  9 11  1  0  0  0  0
  9 29  1  0  0  0  0
 11 12  1  0  0  0  0
 11 13  1  0  0  0  0
 11 14  1  0  0  0  0
 14 15  1  0  0  0  0
 14 16  1  0  0  0  0
 14 17  1  0  0  0  0
 17 18  1  0  0  0  0
 17 19  1  0  0  0  0
 17 20  1  0  0  0  0
 20 21  1  0  0  0  0
 20 22  2  0  0  0  0
 22 23  1  0  0  0  0
 22 26  1  0  0  0  0
 23 24  1  0  0  0  0
 23 25  1  0  0  0  0
 26 27  1  0  0  0  0
 26 28  1  0  0  0  0
 29 30  2  0  0  0  0
 29 31  1  0  0  0  0
 31 32  1  0  0  0  0
 31 33  1  0  0  0  0
 33 34  1  0  0  0  0
 33 35  1  0  0  0  0
 33 36  1  0  0  0  0
M  CHG  1  20   1
M  END
$$$$

  -OEChem-02172215453D

 36 35  0     1  0  0  0  0  0999 V2000
   -3.9641   -2.1226    0.5247 H   0  0  0  0  0  0  0  0  0  0  0  0
   -3.8967   -1.0922    0.1647 C   0  0  0  0  0  0  0  0  0  0  0  0
   -4.8519   -0.5924    0.3410 H   0  0  0  0  0  0  0  0  0  0  0  0
   -3.6949   -1.1113   -0.9093 H   0  0  0  0  0  0  0  0  0  0  0  0
   -2.7822   -0.3574    0.8846 C   0  0  0  0  0  0  0  0  0  0  0  0
   -2.2575   -0.8900    1.8509 O   0  0  0  0  0  0  0  0  0  0  0  0
   -2.4682    0.9297    0.4741 N   0  0  0  0  0  0  0  0  0  0  0  0
   -2.9870    1.1830   -0.3649 H   0  0  0  0  0  0  0  0  0  0  0  0
   -1.1536    1.6146    0.5745 C   0  0  1  0  0  0  0  0  0  0  0  0
   -1.3501    2.6904    0.6061 H   0  0  0  0  0  0  0  0  0  0  0  0
   -0.3012    1.2580    1.8149 C   0  0  0  0  0  0  0  0  0  0  0  0
   -0.0993    0.1837    1.8565 H   0  0  0  0  0  0  0  0  0  0  0  0
    0.6744    1.7462    1.7227 H   0  0  0  0  0  0  0  0  0  0  0  0
   -0.9512    1.7553    3.1130 C   0  0  0  0  0  0  0  0  0  0  0  0
   -1.0774    2.8421    3.0717 H   0  0  0  0  0  0  0  0  0  0  0  0
   -1.9421    1.3041    3.2300 H   0  0  0  0  0  0  0  0  0  0  0  0
   -0.0701    1.3737    4.2986 C   0  0  0  0  0  0  0  0  0  0  0  0
    0.0512    0.2845    4.3084 H   0  0  0  0  0  0  0  0  0  0  0  0
    0.9169    1.8339    4.1794 H   0  0  0  0  0  0  0  0  0  0  0  0
   -0.6941    1.8235    5.5561 N   0  3  0  0  0  0  0  0  0  0  0  0
   -1.5883    2.3069    5.4829 H   0  0  0  0  0  0  0  0  0  0  0  0
   -0.1920    1.5835    6.7326 C   0  0  0  0  0  0  0  0  0  0  0  0
    0.9803    0.8795    6.8889 N   0  0  0  0  0  0  0  0  0  0  0  0
    1.3448    0.3898    6.0741 H   0  0  0  0  0  0  0  0  0  0  0  0
    1.1964    0.4976    7.8073 H   0  0  0  0  0  0  0  0  0  0  0  0
   -0.8463    2.0338    7.8542 N   0  0  0  0  0  0  0  0  0  0  0  0
   -1.6167    2.6901    7.7432 H   0  0  0  0  0  0  0  0  0  0  0  0
   -0.3529    2.0206    8.7449 H   0  0  0  0  0  0  0  0  0  0  0  0
   -0.3199    1.3504   -0.7062 C   0  0  0  0  0  0  0  0  0  0  0  0
   -0.7032    0.5390   -1.5397 O   0  0  0  0  0  0  0  0  0  0  0  0
    0.7973    2.1163   -0.9927 N   0  0  0  0  0  0  0  0  0  0  0  0
    1.0664    2.8366   -0.3299 H   0  0  0  0  0  0  0  0  0  0  0  0
    1.5591    1.9845   -2.2317 C   0  0  0  0  0  0  0  0  0  0  0  0
    0.9205    2.1857   -3.0987 H   0  0  0  0  0  0  0  0  0  0  0  0
    2.3908    2.6958   -2.2450 H   0  0  0  0  0  0  0  0  0  0  0  0
    1.9690    0.9730   -2.3247 H   0  0  0  0  0  0  0  0  0  0  0  0
  1  2  1  0  0  0  0
  2  3  1  0  0  0  0
  2  4  1  0  0  0  0
  2  5  1  0  0  0  0
  5  6  2  0  0  0  0
  5  7  1  0  0  0  0
  7  8  1  0  0  0  0
  7  9  1  0  0  0  0
  9 10  1  0  0  0  0
  9 11  1  0  0  0  0
  9 29  1  0  0  0  0
 11 12  1  0  0  0  0
 11 13  1  0  0  0  0
 11 14  1  0  0  0  0
 14 15  1  0  0  0  0
 14 16  1  0  0  0  0
 14 17  1  0  0  0  0
 17 18  1  0  0  0  0
 17 19  1  0  0  0  0
 17 20  1  0  0  0  0
 20 21  1  0  0  0  0
 20 22  2  0  0  0  0
 22 23  1  0  0  0  0
 22 26  1  0  0  0  0
 23 24  1  0  0  0  0
 23 25  1  0  0  0  0
 26 27  1  0  0  0  0
 26 28  1  0  0  0  0
 29 30  2  0  0  0  0
 29 31  1  0  0  0  0
 31 32  1  0  0  0  0
 31 33  1  0  0  0  0
 33 34  1  0  0  0  0
 33 35  1  0  0  0  0
 33 36  1  0  0  0  0
M  CHG  1  20   1
M  END
$$$$

  -OEChem-02172215453D

 36 35  0     1  0  0  0  0  0999 V2000
   -4.2131   -2.0039    0.5254 H   0  0  0  0  0  0  0  0  0  0  0  0
   -4.0614   -0.9694    0.2044 C   0  0  0  0  0  0  0  0  0  0  0  0
   -4.9176   -0.3712    0.5251 H   0  0  0  0  0  0  0  0  0  0  0  0
   -3.9992   -0.9482   -0.8868 H   0  0  0  0  0  0  0  0  0  0  0  0
   -2.7840   -0.4132    0.8039 C   0  0  0  0  0  0  0  0  0  0  0  0
   -2.1504   -1.1139    1.5783 O   0  0  0  0  0  0  0  0  0  0  0  0
   -2.4110    0.8769    0.4586 N   0  0  0  0  0  0  0  0  0  0  0  0
   -2.9802    1.2440   -0.3039 H   0  0  0  0  0  0  0  0  0  0  0  0
   -1.0851    1.5386    0.5649 C   0  0  1  0  0  0  0  0  0  0  0  0
   -1.2741    2.5701    0.8770 H   0  0  0  0  0  0  0  0  0  0  0  0
   -0.0932    0.9417    1.5926 C   0  0  0  0  0  0  0  0  0  0  0  0
    0.0861   -0.1161    1.3760 H   0  0  0  0  0  0  0  0  0  0  0  0
    0.8722    1.4470    1.4945 H   0  0  0  0  0  0  0  0  0  0  0  0
   -0.5733    1.1348    3.0407 C   0  0  0  0  0  0  0  0  0  0  0  0
   -0.6829    2.2043    3.2491 H   0  0  0  0  0  0  0  0  0  0  0  0
   -1.5497    0.6668    3.1924 H   0  0  0  0  0  0  0  0  0  0  0  0
    0.4451    0.5228    3.9975 C   0  0  0  0  0  0  0  0  0  0  0  0
    0.5599   -0.5401    3.7559 H   0  0  0  0  0  0  0  0  0  0  0  0
    1.4126    1.0187    3.8614 H   0  0  0  0  0  0  0  0  0  0  0  0
   -0.0173    0.6801    5.3880 N   0  3  0  0  0  0  0  0  0  0  0  0
   -0.9098    1.1515    5.5279 H   0  0  0  0  0  0  0  0  0  0  0  0
    0.6207    0.2030    6.4170 C   0  0  0  0  0  0  0  0  0  0  0  0
    1.7976   -0.4967    6.2781 N   0  0  0  0  0  0  0  0  0  0  0  0
    2.0568   -0.7945    5.3396 H   0  0  0  0  0  0  0  0  0  0  0  0
    2.1160   -1.0652    7.0601 H   0  0  0  0  0  0  0  0  0  0  0  0
    0.1086    0.3872    7.6793 N   0  0  0  0  0  0  0  0  0  0  0  0
   -0.6688    1.0324    7.8059 H   0  0  0  0  0  0  0  0  0  0  0  0
    0.7043    0.1901    8.4815 H   0  0  0  0  0  0  0  0  0  0  0  0
   -0.4463    1.6404   -0.8457 C   0  0  0  0  0  0  0  0  0  0  0  0
   -1.0898    1.3023   -1.8320 O   0  0  0  0  0  0  0  0  0  0  0  0
    0.7975    2.2180   -1.0375 N   0  0  0  0  0  0  0  0  0  0  0  0
    1.3054    2.5429   -0.2212 H   0  0  0  0  0  0  0  0  0  0  0  0
    1.3976    2.4018   -2.3562 C   0  0  0  0  0  0  0  0  0  0  0  0
    0.7640    3.0401   -2.9817 H   0  0  0  0  0  0  0  0  0  0  0  0
    2.3796    2.8758   -2.2649 H   0  0  0  0  0  0  0  0  0  0  0  0
    1.5266    1.4364   -2.8577 H   0  0  0  0  0  0  0  0  0  0  0  0
  1  2  1  0  0  0  0
  2  3  1  0  0  0  0
  2  4  1  0  0  0  0
  2  5  1  0  0  0  0
  5  6  2  0  0  0  0
  5  7  1  0  0  0  0
  7  8  1  0  0  0  0
  7  9  1  0  0  0  0
  9 10  1  0  0  0  0
  9 11  1  0  0  0  0
  9 29  1  0  0  0  0
 11 12  1  0  0  0  0
 11 13  1  0  0  0  0
 11 14  1  0  0  0  0
 14 15  1  0  0  0  0
 14 16  1  0  0  0  0
 14 17  1  0  0  0  0
 17 18  1  0  0  0  0
 17 19  1  0  0  0  0
 17 20  1  0  0  0  0
 20 21  1  0  0  0  0
 20 22  2  0  0  0  0
 22 23  1  0  0  0  0
 22 26  1  0  0  0  0
 23 24  1  0  0  0  0
 23 25  1  0  0  0  0
 26 27  1  0  0  0  0
 26 28  1  0  0  0  0
 29 30  2  0  0  0  0
 29 31  1  0  0  0  0
 31 32  1  0  0  0  0
 31 33  1  0  0  0  0
 33 34  1  0  0  0  0
 33 35  1  0  0  0  0
 33 36  1  0  0  0  0
M  CHG  1  20   1
M  END
$$$$

  -OEChem-02172215453D

 36 35  0     1  0  0  0  0  0999 V2000
   -4.1889   -2.0002    0.5113 H   0  0  0  0  0  0  0  0  0  0  0  0
   -4.0444   -0.9577    0.2134 C   0  0  0  0  0  0  0  0  0  0  0  0
   -4.8903   -0.3674    0.5734 H   0  0  0  0  0  0  0  0  0  0  0  0
   -4.0124   -0.9073   -0.8782 H   0  0  0  0  0  0  0  0  0  0  0  0
   -2.7503   -0.4197    0.7935 C   0  0  0  0  0  0  0  0  0  0  0  0
   -2.1020   -1.1385    1.5383 O   0  0  0  0  0  0  0  0  0  0  0  0
   -2.3760    0.8750    0.4689 N   0  0  0  0  0  0  0  0  0  0  0  0
   -2.9565    1.2685   -0.2723 H   0  0  0  0  0  0  0  0  0  0  0  0
   -1.0499    1.5350    0.5772 C   0  0  1  0  0  0  0  0  0  0  0  0
   -1.2347    2.5647    0.8978 H   0  0  0  0  0  0  0  0  0  0  0  0
   -0.0601    0.9299    1.6040 C   0  0  0  0  0  0  0  0  0  0  0  0
    0.1224   -0.1266    1.3844 H   0  0  0  0  0  0  0  0  0  0  0  0
    0.9046    1.4382    1.5173 H   0  0  0  0  0  0  0  0  0  0  0  0
   -0.5508    1.1216    3.0485 C   0  0  0  0  0  0  0  0  0  0  0  0
   -0.6622    2.1909    3.2567 H   0  0  0  0  0  0  0  0  0  0  0  0
   -1.5294    0.6532    3.1873 H   0  0  0  0  0  0  0  0  0  0  0  0
    0.4539    0.5080    4.0190 C   0  0  0  0  0  0  0  0  0  0  0  0
    0.5679   -0.5559    3.7817 H   0  0  0  0  0  0  0  0  0  0  0  0
    1.4250    1.0000    3.8958 H   0  0  0  0  0  0  0  0  0  0  0  0
   -0.0292    0.6703    5.4022 N   0  3  0  0  0  0  0  0  0  0  0  0
   -0.9218    1.1459    5.5273 H   0  0  0  0  0  0  0  0  0  0  0  0
    0.5910    0.1948    6.4429 C   0  0  0  0  0  0  0  0  0  0  0  0
    1.7682   -0.5086    6.3259 N   0  0  0  0  0  0  0  0  0  0  0  0
    2.0424   -0.8114    5.3934 H   0  0  0  0  0  0  0  0  0  0  0  0
    2.0739   -1.0726    7.1162 H   0  0  0  0  0  0  0  0  0  0  0  0
    0.0623    0.3897    7.6967 N   0  0  0  0  0  0  0  0  0  0  0  0
   -0.7094    1.0447    7.8075 H   0  0  0  0  0  0  0  0  0  0  0  0
    0.6499    0.2009    8.5069 H   0  0  0  0  0  0  0  0  0  0  0  0
   -0.4344    1.6538   -0.8429 C   0  0  0  0  0  0  0  0  0  0  0  0
   -1.1698    1.5781   -1.8203 O   0  0  0  0  0  0  0  0  0  0  0  0
    0.9044    1.9412   -1.0491 N   0  0  0  0  0  0  0  0  0  0  0  0
    1.5083    2.0143   -0.2372 H   0  0  0  0  0  0  0  0  0  0  0  0
    1.4902    2.1069   -2.3765 C   0  0  0  0  0  0  0  0  0  0  0  0
    0.9721    2.8982   -2.9292 H   0  0  0  0  0  0  0  0  0  0  0  0
    2.5467    2.3802   -2.2955 H   0  0  0  0  0  0  0  0  0  0  0  0
    1.4165    1.1752   -2.9476 H   0  0  0  0  0  0  0  0  0  0  0  0
  1  2  1  0  0  0  0
  2  3  1  0  0  0  0
  2  4  1  0  0  0  0
  2  5  1  0  0  0  0
  5  6  2  0  0  0  0
  5  7  1  0  0  0  0
  7  8  1  0  0  0  0
  7  9  1  0  0  0  0
  9 10  1  0  0  0  0
  9 11  1  0  0  0  0
  9 29  1  0  0  0  0
 11 12  1  0  0  0  0
 11 13  1  0  0  0  0
 11 14  1  0  0  0  0
 14 15  1  0  0  0  0
 14 16  1  0  0  0  0
 14 17  1  0  0  0  0
 17 18  1  0  0  0  0
 17 19  1  0  0  0  0
 17 20  1  0  0  0  0
 20 21  1  0  0  0  0
 20 22  2  0  0  0  0
 22 23  1  0  0  0  0
 22 26  1  0  0  0  0
 23 24  1  0  0  0  0
 23 25  1  0  0  0  0
 26 27  1  0  0  0  0
 26 28  1  0  0  0  0
 29 30  2  0  0  0  0
 29 31  1  0  0  0  0
 31 32  1  0  0  0  0
 31 33  1  0  0  0  0
 33 34  1  0  0  0  0
 33 35  1  0  0  0  0
 33 36  1  0  0  0  0
M  CHG  1  20   1
M  END
$$$$

  -OEChem-02172215453D

 36 35  0     1  0  0  0  0  0999 V2000
   -4.1796   -1.9944    0.5071 H   0  0  0  0  0  0  0  0  0  0  0  0
   -4.0317   -0.9513    0.2140 C   0  0  0  0  0  0  0  0  0  0  0  0
   -4.8685   -0.3574    0.5895 H   0  0  0  0  0  0  0  0  0  0  0  0
   -4.0143   -0.8947   -0.8775 H   0  0  0  0  0  0  0  0  0  0  0  0
   -2.7259   -0.4260    0.7795 C   0  0  0  0  0  0  0  0  0  0  0  0
   -2.0654   -1.1569    1.5014 O   0  0  0  0  0  0  0  0  0  0  0  0
   -2.3511    0.8717    0.4690 N   0  0  0  0  0  0  0  0  0  0  0  0
   -2.9457    1.2910   -0.2468 H   0  0  0  0  0  0  0  0  0  0  0  0
   -1.0272    1.5313    0.5870 C   0  0  1  0  0  0  0  0  0  0  0  0
   -1.2136    2.5598    0.9115 H   0  0  0  0  0  0  0  0  0  0  0  0
   -0.0399    0.9264    1.6165 C   0  0  0  0  0  0  0  0  0  0  0  0
    0.1503   -0.1286    1.3970 H   0  0  0  0  0  0  0  0  0  0  0  0
    0.9212    1.4437    1.5370 H   0  0  0  0  0  0  0  0  0  0  0  0
   -0.5408    1.1151    3.0575 C   0  0  0  0  0  0  0  0  0  0  0  0
   -0.6587    2.1839    3.2656 H   0  0  0  0  0  0  0  0  0  0  0  0
   -1.5180    0.6408    3.1869 H   0  0  0  0  0  0  0  0  0  0  0  0
    0.4576    0.5042    4.0365 C   0  0  0  0  0  0  0  0  0  0  0  0
    0.5768   -0.5595    3.8008 H   0  0  0  0  0  0  0  0  0  0  0  0
    1.4282    0.9993    3.9223 H   0  0  0  0  0  0  0  0  0  0  0  0
   -0.0383    0.6656    5.4151 N   0  3  0  0  0  0  0  0  0  0  0  0
   -0.9332    1.1394    5.5311 H   0  0  0  0  0  0  0  0  0  0  0  0
    0.5730    0.1927    6.4622 C   0  0  0  0  0  0  0  0  0  0  0  0
    1.7529   -0.5078    6.3590 N   0  0  0  0  0  0  0  0  0  0  0  0
    2.0385   -0.8119    5.4304 H   0  0  0  0  0  0  0  0  0  0  0  0
    2.0562   -1.0644    7.1555 H   0  0  0  0  0  0  0  0  0  0  0  0
    0.0326    0.3909    7.7102 N   0  0  0  0  0  0  0  0  0  0  0  0
   -0.7401    1.0462    7.8117 H   0  0  0  0  0  0  0  0  0  0  0  0
    0.6120    0.2041    8.5266 H   0  0  0  0  0  0  0  0  0  0  0  0
   -0.4197    1.6587   -0.8345 C   0  0  0  0  0  0  0  0  0  0  0  0
   -1.1782    1.8323   -1.7808 O   0  0  0  0  0  0  0  0  0  0  0  0
    0.9441    1.6451   -1.0749 N   0  0  0  0  0  0  0  0  0  0  0  0
    1.5623    1.4464   -0.2954 H   0  0  0  0  0  0  0  0  0  0  0  0
    1.5204    1.7733   -2.4107 C   0  0  0  0  0  0  0  0  0  0  0  0
    1.1854    2.7010   -2.8874 H   0  0  0  0  0  0  0  0  0  0  0  0
    2.6131    1.7934   -2.3538 H   0  0  0  0  0  0  0  0  0  0  0  0
    1.2218    0.9280   -3.0400 H   0  0  0  0  0  0  0  0  0  0  0  0
  1  2  1  0  0  0  0
  2  3  1  0  0  0  0
  2  4  1  0  0  0  0
  2  5  1  0  0  0  0
  5  6  2  0  0  0  0
  5  7  1  0  0  0  0
  7  8  1  0  0  0  0
  7  9  1  0  0  0  0
  9 10  1  0  0  0  0
  9 11  1  0  0  0  0
  9 29  1  0  0  0  0
 11 12  1  0  0  0  0
 11 13  1  0  0  0  0
 11 14  1  0  0  0  0
 14 15  1  0  0  0  0
 14 16  1  0  0  0  0
 14 17  1  0  0  0  0
 17 18  1  0  0  0  0
 17 19  1  0  0  0  0
 17 20  1  0  0  0  0
 20 21  1  0  0  0  0
 20 22  2  0  0  0  0
 22 23  1  0  0  0  0
 22 26  1  0  0  0  0
 23 24  1  0  0  0  0
 23 25  1  0  0  0  0
 26 27  1  0  0  0  0
 26 28  1  0  0  0  0
 29 30  2  0  0  0  0
 29 31  1  0  0  0  0
 31 32  1  0  0  0  0
 31 33  1  0  0  0  0
 33 34  1  0  0  0  0
 33 35  1  0  0  0  0
 33 36  1  0  0  0  0
M  CHG  1  20   1
M  END
$$$$

  -OEChem-02172215453D

 36 35  0     1  0  0  0  0  0999 V2000
   -4.1832   -1.9881    0.5203 H   0  0  0  0  0  0  0  0  0  0  0  0
   -4.0299   -0.9474    0.2215 C   0  0  0  0  0  0  0  0  0  0  0  0
   -4.8538   -0.3441    0.6100 H   0  0  0  0  0  0  0  0  0  0  0  0
   -4.0321   -0.8926   -0.8703 H   0  0  0  0  0  0  0  0  0  0  0  0
   -2.7086   -0.4345    0.7621 C   0  0  0  0  0  0  0  0  0  0  0  0
   -2.0325   -1.1755    1.4586 O   0  0  0  0  0  0  0  0  0  0  0  0
   -2.3337    0.8643    0.4582 N   0  0  0  0  0  0  0  0  0  0  0  0
   -2.9449    1.3074   -0.2284 H   0  0  0  0  0  0  0  0  0  0  0  0
   -1.0136    1.5266    0.5898 C   0  0  1  0  0  0  0  0  0  0  0  0
   -1.2051    2.5545    0.9133 H   0  0  0  0  0  0  0  0  0  0  0  0
   -0.0299    0.9285    1.6247 C   0  0  0  0  0  0  0  0  0  0  0  0
    0.1702   -0.1253    1.4086 H   0  0  0  0  0  0  0  0  0  0  0  0
    0.9266    1.4555    1.5463 H   0  0  0  0  0  0  0  0  0  0  0  0
   -0.5407    1.1139    3.0620 C   0  0  0  0  0  0  0  0  0  0  0  0
   -0.6693    2.1813    3.2702 H   0  0  0  0  0  0  0  0  0  0  0  0
   -1.5146    0.6301    3.1832 H   0  0  0  0  0  0  0  0  0  0  0  0
    0.4566    0.5088    4.0454 C   0  0  0  0  0  0  0  0  0  0  0  0
    0.5846   -0.5540    3.8099 H   0  0  0  0  0  0  0  0  0  0  0  0
    1.4242    1.0108    3.9346 H   0  0  0  0  0  0  0  0  0  0  0  0
   -0.0461    0.6655    5.4226 N   0  3  0  0  0  0  0  0  0  0  0  0
   -0.9400    1.1412    5.5376 H   0  0  0  0  0  0  0  0  0  0  0  0
    0.5642    0.1949    6.4711 C   0  0  0  0  0  0  0  0  0  0  0  0
    1.7487   -0.4980    6.3692 N   0  0  0  0  0  0  0  0  0  0  0  0
    2.0369   -0.7991    5.4404 H   0  0  0  0  0  0  0  0  0  0  0  0
    2.0512   -1.0569    7.1643 H   0  0  0  0  0  0  0  0  0  0  0  0
    0.0178    0.3867    7.7176 N   0  0  0  0  0  0  0  0  0  0  0  0
   -0.7577    1.0389    7.8176 H   0  0  0  0  0  0  0  0  0  0  0  0
    0.5958    0.2020    8.5355 H   0  0  0  0  0  0  0  0  0  0  0  0
   -0.4001    1.6555   -0.8263 C   0  0  0  0  0  0  0  0  0  0  0  0
   -1.1212    2.0510   -1.7332 O   0  0  0  0  0  0  0  0  0  0  0  0
    0.9206    1.3485   -1.1074 N   0  0  0  0  0  0  0  0  0  0  0  0
    1.4734    0.9242   -0.3695 H   0  0  0  0  0  0  0  0  0  0  0  0
    1.4862    1.4227   -2.4515 C   0  0  0  0  0  0  0  0  0  0  0  0
    1.3781    2.4337   -2.8590 H   0  0  0  0  0  0  0  0  0  0  0  0
    2.5517    1.1740   -2.4300 H   0  0  0  0  0  0  0  0  0  0  0  0
    0.9798    0.7192   -3.1210 H   0  0  0  0  0  0  0  0  0  0  0  0
  1  2  1  0  0  0  0
  2  3  1  0  0  0  0
  2  4  1  0  0  0  0
  2  5  1  0  0  0  0
  5  6  2  0  0  0  0
  5  7  1  0  0  0  0
  7  8  1  0  0  0  0
  7  9  1  0  0  0  0
  9 10  1  0  0  0  0
  9 11  1  0  0  0  0
  9 29  1  0  0  0  0
 11 12  1  0  0  0  0
 11 13  1  0  0  0  0
 11 14  1  0  0  0  0
 14 15  1  0  0  0  0
 14 16  1  0  0  0  0
 14 17  1  0  0  0  0
 17 18  1  0  0  0  0
 17 19  1  0  0  0  0
 17 20  1  0  0  0  0
 20 21  1  0  0  0  0
 20 22  2  0  0  0  0
 22 23  1  0  0  0  0
 22 26  1  0  0  0  0
 23 24  1  0  0  0  0
 23 25  1  0  0  0  0
 26 27  1  0  0  0  0
 26 28  1  0  0  0  0
 29 30  2  0  0  0  0
 29 31  1  0  0  0  0
 31 32  1  0  0  0  0
 31 33  1  0  0  0  0
 33 34  1  0  0  0  0
 33 35  1  0  0  0  0
 33 36  1  0  0  0  0
M  CHG  1  20   1
M  END
$$$$

  -OEChem-02172215453D

 36 35  0     1  0  0  0  0  0999 V2000
   -4.2039   -1.9833    0.5479 H   0  0  0  0  0  0  0  0  0  0  0  0
   -4.0456   -0.9445    0.2445 C   0  0  0  0  0  0  0  0  0  0  0  0
   -4.8499   -0.3313    0.6578 H   0  0  0  0  0  0  0  0  0  0  0  0
   -4.0795   -0.8897   -0.8464 H   0  0  0  0  0  0  0  0  0  0  0  0
   -2.7030   -0.4472    0.7460 C   0  0  0  0  0  0  0  0  0  0  0  0
   -2.0117   -1.1976    1.4168 O   0  0  0  0  0  0  0  0  0  0  0  0
   -2.3249    0.8508    0.4425 N   0  0  0  0  0  0  0  0  0  0  0  0
   -2.9540    1.3148   -0.2130 H   0  0  0  0  0  0  0  0  0  0  0  0
   -1.0066    1.5135    0.5826 C   0  0  1  0  0  0  0  0  0  0  0  0
   -1.2031    2.5414    0.9042 H   0  0  0  0  0  0  0  0  0  0  0  0
   -0.0242    0.9217    1.6223 C   0  0  0  0  0  0  0  0  0  0  0  0
    0.1802   -0.1321    1.4119 H   0  0  0  0  0  0  0  0  0  0  0  0
    0.9307    1.4522    1.5401 H   0  0  0  0  0  0  0  0  0  0  0  0
   -0.5400    1.1078    3.0572 C   0  0  0  0  0  0  0  0  0  0  0  0
   -0.6726    2.1752    3.2626 H   0  0  0  0  0  0  0  0  0  0  0  0
   -1.5124    0.6193    3.1744 H   0  0  0  0  0  0  0  0  0  0  0  0
    0.4566    0.5088    4.0456 C   0  0  0  0  0  0  0  0  0  0  0  0
    0.5895   -0.5536    3.8117 H   0  0  0  0  0  0  0  0  0  0  0  0
    1.4227    1.0141    3.9379 H   0  0  0  0  0  0  0  0  0  0  0  0
   -0.0493    0.6657    5.4214 N   0  3  0  0  0  0  0  0  0  0  0  0
   -0.9435    1.1412    5.5336 H   0  0  0  0  0  0  0  0  0  0  0  0
    0.5606    0.1995    6.4723 C   0  0  0  0  0  0  0  0  0  0  0  0
    1.7482   -0.4888    6.3747 N   0  0  0  0  0  0  0  0  0  0  0  0
    2.0426   -0.7873    5.4470 H   0  0  0  0  0  0  0  0  0  0  0  0
    2.0521   -1.0451    7.1712 H   0  0  0  0  0  0  0  0  0  0  0  0
    0.0117    0.3935    7.7173 N   0  0  0  0  0  0  0  0  0  0  0  0
   -0.7669    1.0425    7.8139 H   0  0  0  0  0  0  0  0  0  0  0  0
    0.5886    0.2133    8.5371 H   0  0  0  0  0  0  0  0  0  0  0  0
   -0.3788    1.6419   -0.8242 C   0  0  0  0  0  0  0  0  0  0  0  0
   -1.0070    2.2507   -1.6794 O   0  0  0  0  0  0  0  0  0  0  0  0
    0.8329    1.0625   -1.1595 N   0  0  0  0  0  0  0  0  0  0  0  0
    1.2606    0.4452   -0.4763 H   0  0  0  0  0  0  0  0  0  0  0  0
    1.3884    1.1053   -2.5088 C   0  0  0  0  0  0  0  0  0  0  0  0
    1.5147    2.1418   -2.8399 H   0  0  0  0  0  0  0  0  0  0  0  0
    2.3673    0.6162   -2.5329 H   0  0  0  0  0  0  0  0  0  0  0  0
    0.7258    0.5909   -3.2130 H   0  0  0  0  0  0  0  0  0  0  0  0
  1  2  1  0  0  0  0
  2  3  1  0  0  0  0
  2  4  1  0  0  0  0
  2  5  1  0  0  0  0
  5  6  2  0  0  0  0
  5  7  1  0  0  0  0
  7  8  1  0  0  0  0
  7  9  1  0  0  0  0
  9 10  1  0  0  0  0
  9 11  1  0  0  0  0
  9 29  1  0  0  0  0
 11 12  1  0  0  0  0
 11 13  1  0  0  0  0
 11 14  1  0  0  0  0
 14 15  1  0  0  0  0
 14 16  1  0  0  0  0
 14 17  1  0  0  0  0
 17 18  1  0  0  0  0
 17 19  1  0  0  0  0
 17 20  1  0  0  0  0
 20 21  1  0  0  0  0
 20 22  2  0  0  0  0
 22 23  1  0  0  0  0
 22 26  1  0  0  0  0
 23 24  1  0  0  0  0
 23 25  1  0  0  0  0
 26 27  1  0  0  0  0
 26 28  1  0  0  0  0
 29 30  2  0  0  0  0
 29 31  1  0  0  0  0
 31 32  1  0  0  0  0
 31 33  1  0  0  0  0
 33 34  1  0  0  0  0
 33 35  1  0  0  0  0
 33 36  1  0  0  0  0
M  CHG  1  20   1
M  END
$$$$

  -OEChem-02172215453D

 36 35  0     1  0  0  0  0  0999 V2000
   -4.2278   -1.9794    0.5660 H   0  0  0  0  0  0  0  0  0  0  0  0
   -4.0685   -0.9416    0.2589 C   0  0  0  0  0  0  0  0  0  0  0  0
   -4.8576   -0.3219    0.6914 H   0  0  0  0  0  0  0  0  0  0  0  0
   -4.1281   -0.8861   -0.8309 H   0  0  0  0  0  0  0  0  0  0  0  0
   -2.7097   -0.4574    0.7282 C   0  0  0  0  0  0  0  0  0  0  0  0
   -2.0005   -1.2199    1.3650 O   0  0  0  0  0  0  0  0  0  0  0  0
   -2.3267    0.8382    0.4231 N   0  0  0  0  0  0  0  0  0  0  0  0
   -2.9768    1.3285   -0.1908 H   0  0  0  0  0  0  0  0  0  0  0  0
   -1.0086    1.4963    0.5744 C   0  0  1  0  0  0  0  0  0  0  0  0
   -1.2074    2.5254    0.8921 H   0  0  0  0  0  0  0  0  0  0  0  0
   -0.0279    0.9129    1.6197 C   0  0  0  0  0  0  0  0  0  0  0  0
    0.1781   -0.1420    1.4181 H   0  0  0  0  0  0  0  0  0  0  0  0
    0.9271    1.4427    1.5317 H   0  0  0  0  0  0  0  0  0  0  0  0
   -0.5464    1.1027    3.0519 C   0  0  0  0  0  0  0  0  0  0  0  0
   -0.6861    2.1698    3.2549 H   0  0  0  0  0  0  0  0  0  0  0  0
   -1.5153    0.6071    3.1686 H   0  0  0  0  0  0  0  0  0  0  0  0
    0.4539    0.5108    4.0408 C   0  0  0  0  0  0  0  0  0  0  0  0
    0.5916   -0.5515    3.8095 H   0  0  0  0  0  0  0  0  0  0  0  0
    1.4173    1.0212    3.9291 H   0  0  0  0  0  0  0  0  0  0  0  0
   -0.0497    0.6685    5.4171 N   0  3  0  0  0  0  0  0  0  0  0  0
   -0.9447    1.1422    5.5308 H   0  0  0  0  0  0  0  0  0  0  0  0
    0.5658    0.2071    6.4671 C   0  0  0  0  0  0  0  0  0  0  0  0
    1.7567   -0.4755    6.3671 N   0  0  0  0  0  0  0  0  0  0  0  0
    2.0568   -0.7676    5.4394 H   0  0  0  0  0  0  0  0  0  0  0  0
    2.0734   -1.0217    7.1655 H   0  0  0  0  0  0  0  0  0  0  0  0
    0.0196    0.3994    7.7137 N   0  0  0  0  0  0  0  0  0  0  0  0
   -0.7579    1.0489    7.8131 H   0  0  0  0  0  0  0  0  0  0  0  0
    0.5994    0.2201    8.5314 H   0  0  0  0  0  0  0  0  0  0  0  0
   -0.3616    1.6191   -0.8212 C   0  0  0  0  0  0  0  0  0  0  0  0
   -0.8293    2.4312   -1.6063 O   0  0  0  0  0  0  0  0  0  0  0  0
    0.6778    0.8001   -1.2255 N   0  0  0  0  0  0  0  0  0  0  0  0
    0.9219    0.0256   -0.6150 H   0  0  0  0  0  0  0  0  0  0  0  0
    1.2278    0.8257   -2.5771 C   0  0  0  0  0  0  0  0  0  0  0  0
    1.5910    1.8290   -2.8247 H   0  0  0  0  0  0  0  0  0  0  0  0
    2.0667    0.1276   -2.6596 H   0  0  0  0  0  0  0  0  0  0  0  0
    0.4642    0.5392   -3.3079 H   0  0  0  0  0  0  0  0  0  0  0  0
  1  2  1  0  0  0  0
  2  3  1  0  0  0  0
  2  4  1  0  0  0  0
  2  5  1  0  0  0  0
  5  6  2  0  0  0  0
  5  7  1  0  0  0  0
  7  8  1  0  0  0  0
  7  9  1  0  0  0  0
  9 10  1  0  0  0  0
  9 11  1  0  0  0  0
  9 29  1  0  0  0  0
 11 12  1  0  0  0  0
 11 13  1  0  0  0  0
 11 14  1  0  0  0  0
 14 15  1  0  0  0  0
 14 16  1  0  0  0  0
 14 17  1  0  0  0  0
 17 18  1  0  0  0  0
 17 19  1  0  0  0  0
 17 20  1  0  0  0  0
 20 21  1  0  0  0  0
 20 22  2  0  0  0  0
 22 23  1  0  0  0  0
 22 26  1  0  0  0  0
 23 24  1  0  0  0  0
 23 25  1  0  0  0  0
 26 27  1  0  0  0  0
 26 28  1  0  0  0  0
 29 30  2  0  0  0  0
 29 31  1  0  0  0  0
 31 32  1  0  0  0  0
 31 33  1  0  0  0  0
 33 34  1  0  0  0  0
 33 35  1  0  0  0  0
 33 36  1  0  0  0  0
M  CHG  1  20   1
M  END
$$$$

  -OEChem-02172215453D

 36 35  0     1  0  0  0  0  0999 V2000
   -4.2612   -1.9761    0.6153 H   0  0  0  0  0  0  0  0  0  0  0  0
   -4.1028   -0.9408    0.3002 C   0  0  0  0  0  0  0  0  0  0  0  0
   -4.8711   -0.3129    0.7577 H   0  0  0  0  0  0  0  0  0  0  0  0
   -4.1994   -0.8878   -0.7871 H   0  0  0  0  0  0  0  0  0  0  0  0
   -2.7241   -0.4685    0.7220 C   0  0  0  0  0  0  0  0  0  0  0  0
   -1.9954   -1.2394    1.3254 O   0  0  0  0  0  0  0  0  0  0  0  0
   -2.3391    0.8233    0.4036 N   0  0  0  0  0  0  0  0  0  0  0  0
   -3.0119    1.3303   -0.1703 H   0  0  0  0  0  0  0  0  0  0  0  0
   -1.0228    1.4850    0.5581 C   0  0  1  0  0  0  0  0  0  0  0  0
   -1.2250    2.5153    0.8698 H   0  0  0  0  0  0  0  0  0  0  0  0
   -0.0409    0.9096    1.6055 C   0  0  0  0  0  0  0  0  0  0  0  0
    0.1733   -0.1442    1.4069 H   0  0  0  0  0  0  0  0  0  0  0  0
    0.9111    1.4445    1.5132 H   0  0  0  0  0  0  0  0  0  0  0  0
   -0.5581    1.0989    3.0378 C   0  0  0  0  0  0  0  0  0  0  0  0
   -0.7034    2.1658    3.2388 H   0  0  0  0  0  0  0  0  0  0  0  0
   -1.5242    0.5973    3.1556 H   0  0  0  0  0  0  0  0  0  0  0  0
    0.4484    0.5128    4.0242 C   0  0  0  0  0  0  0  0  0  0  0  0
    0.5913   -0.5487    3.7929 H   0  0  0  0  0  0  0  0  0  0  0  0
    1.4091    1.0273    3.9087 H   0  0  0  0  0  0  0  0  0  0  0  0
   -0.0500    0.6680    5.4031 N   0  3  0  0  0  0  0  0  0  0  0  0
   -0.9456    1.1395    5.5217 H   0  0  0  0  0  0  0  0  0  0  0  0
    0.5733    0.2095    6.4497 C   0  0  0  0  0  0  0  0  0  0  0  0
    1.7673   -0.4667    6.3427 N   0  0  0  0  0  0  0  0  0  0  0  0
    2.0654   -0.7547    5.4128 H   0  0  0  0  0  0  0  0  0  0  0  0
    2.0902   -1.0140    7.1380 H   0  0  0  0  0  0  0  0  0  0  0  0
    0.0328    0.3986    7.6996 N   0  0  0  0  0  0  0  0  0  0  0  0
   -0.7484    1.0434    7.8032 H   0  0  0  0  0  0  0  0  0  0  0  0
    0.6198    0.2251    8.5136 H   0  0  0  0  0  0  0  0  0  0  0  0
   -0.3555    1.5947   -0.8270 C   0  0  0  0  0  0  0  0  0  0  0  0
   -0.6031    2.5669   -1.5244 O   0  0  0  0  0  0  0  0  0  0  0  0
    0.4652    0.5921   -1.3110 N   0  0  0  0  0  0  0  0  0  0  0  0
    0.5167   -0.2661   -0.7683 H   0  0  0  0  0  0  0  0  0  0  0  0
    1.0331    0.6092   -2.6551 C   0  0  0  0  0  0  0  0  0  0  0  0
    1.6333    1.5128   -2.8072 H   0  0  0  0  0  0  0  0  0  0  0  0
    1.6797   -0.2605   -2.8050 H   0  0  0  0  0  0  0  0  0  0  0  0
    0.2387    0.5845   -3.4086 H   0  0  0  0  0  0  0  0  0  0  0  0
  1  2  1  0  0  0  0
  2  3  1  0  0  0  0
  2  4  1  0  0  0  0
  2  5  1  0  0  0  0
  5  6  2  0  0  0  0
  5  7  1  0  0  0  0
  7  8  1  0  0  0  0
  7  9  1  0  0  0  0
  9 10  1  0  0  0  0
  9 11  1  0  0  0  0
  9 29  1  0  0  0  0
 11 12  1  0  0  0  0
 11 13  1  0  0  0  0
 11 14  1  0  0  0  0
 14 15  1  0  0  0  0
 14 16  1  0  0  0  0
 14 17  1  0  0  0  0
 17 18  1  0  0  0  0
 17 19  1  0  0  0  0
 17 20  1  0  0  0  0
 20 21  1  0  0  0  0
 20 22  2  0  0  0  0
 22 23  1  0  0  0  0
 22 26  1  0  0  0  0
 23 24  1  0  0  0  0
 23 25  1  0  0  0  0
 26 27  1  0  0  0  0
 26 28  1  0  0  0  0
 29 30  2  0  0  0  0
 29 31  1  0  0  0  0
 31 32  1  0  0  0  0
 31 33  1  0  0  0  0
 33 34  1  0  0  0  0
 33 35  1  0  0  0  0
 33 36  1  0  0  0  0
M  CHG  1  20   1
M  END
$$$$

  -OEChem-02172215453D

 36 35  0     1  0  0  0  0  0999 V2000
   -4.3028   -1.9697    0.6953 H   0  0  0  0  0  0  0  0  0  0  0  0
   -4.1458   -0.9389    0.3644 C   0  0  0  0  0  0  0  0  0  0  0  0
   -4.8847   -0.2974    0.8507 H   0  0  0  0  0  0  0  0  0  0  0  0
   -4.2905   -0.8925   -0.7179 H   0  0  0  0  0  0  0  0  0  0  0  0
   -2.7441   -0.4806    0.7199 C   0  0  0  0  0  0  0  0  0  0  0  0
   -1.9925   -1.2600    1.2820 O   0  0  0  0  0  0  0  0  0  0  0  0
   -2.3608    0.8074    0.3851 N   0  0  0  0  0  0  0  0  0  0  0  0
   -3.0579    1.3288   -0.1444 H   0  0  0  0  0  0  0  0  0  0  0  0
   -1.0471    1.4768    0.5382 C   0  0  1  0  0  0  0  0  0  0  0  0
   -1.2558    2.5075    0.8447 H   0  0  0  0  0  0  0  0  0  0  0  0
   -0.0595    0.9086    1.5834 C   0  0  0  0  0  0  0  0  0  0  0  0
    0.1647   -0.1427    1.3826 H   0  0  0  0  0  0  0  0  0  0  0  0
    0.8874    1.4518    1.4890 H   0  0  0  0  0  0  0  0  0  0  0  0
   -0.5732    1.0940    3.0172 C   0  0  0  0  0  0  0  0  0  0  0  0
   -0.7243    2.1598    3.2191 H   0  0  0  0  0  0  0  0  0  0  0  0
   -1.5347    0.5851    3.1383 H   0  0  0  0  0  0  0  0  0  0  0  0
    0.4406    0.5144    3.9999 C   0  0  0  0  0  0  0  0  0  0  0  0
    0.5908   -0.5460    3.7674 H   0  0  0  0  0  0  0  0  0  0  0  0
    1.3967    1.0366    3.8815 H   0  0  0  0  0  0  0  0  0  0  0  0
   -0.0521    0.6644    5.3812 N   0  3  0  0  0  0  0  0  0  0  0  0
   -0.9497    1.1304    5.5049 H   0  0  0  0  0  0  0  0  0  0  0  0
    0.5802    0.2086    6.4237 C   0  0  0  0  0  0  0  0  0  0  0  0
    1.7782   -0.4591    6.3096 N   0  0  0  0  0  0  0  0  0  0  0  0
    2.0753   -0.7410    5.3775 H   0  0  0  0  0  0  0  0  0  0  0  0
    2.1087   -1.0061    7.1019 H   0  0  0  0  0  0  0  0  0  0  0  0
    0.0449    0.3919    7.6764 N   0  0  0  0  0  0  0  0  0  0  0  0
   -0.7411    1.0300    7.7844 H   0  0  0  0  0  0  0  0  0  0  0  0
    0.6375    0.2230    8.4872 H   0  0  0  0  0  0  0  0  0  0  0  0
   -0.3613    1.5742   -0.8375 C   0  0  0  0  0  0  0  0  0  0  0  0
   -0.3401    2.6475   -1.4207 O   0  0  0  0  0  0  0  0  0  0  0  0
    0.2091    0.4575   -1.4205 N   0  0  0  0  0  0  0  0  0  0  0  0
    0.0743   -0.4328   -0.9469 H   0  0  0  0  0  0  0  0  0  0  0  0
    0.8160    0.4696   -2.7473 C   0  0  0  0  0  0  0  0  0  0  0  0
    1.6263    1.2053   -2.7922 H   0  0  0  0  0  0  0  0  0  0  0  0
    1.2323   -0.5146   -2.9839 H   0  0  0  0  0  0  0  0  0  0  0  0
    0.0706    0.7233   -3.5087 H   0  0  0  0  0  0  0  0  0  0  0  0
  1  2  1  0  0  0  0
  2  3  1  0  0  0  0
  2  4  1  0  0  0  0
  2  5  1  0  0  0  0
  5  6  2  0  0  0  0
  5  7  1  0  0  0  0
  7  8  1  0  0  0  0
  7  9  1  0  0  0  0
  9 10  1  0  0  0  0
  9 11  1  0  0  0  0
  9 29  1  0  0  0  0
 11 12  1  0  0  0  0
 11 13  1  0  0  0  0
 11 14  1  0  0  0  0
 14 15  1  0  0  0  0
 14 16  1  0  0  0  0
 14 17  1  0  0  0  0
 17 18  1  0  0  0  0
 17 19  1  0  0  0  0
 17 20  1  0  0  0  0
 20 21  1  0  0  0  0
 20 22  2  0  0  0  0
 22 23  1  0  0  0  0
 22 26  1  0  0  0  0
 23 24  1  0  0  0  0
 23 25  1  0  0  0  0
 26 27  1  0  0  0  0
 26 28  1  0  0  0  0
 29 30  2  0  0  0  0
 29 31  1  0  0  0  0
 31 32  1  0  0  0  0
 31 33  1  0  0  0  0
 33 34  1  0  0  0  0
 33 35  1  0  0  0  0
 33 36  1  0  0  0  0
M  CHG  1  20   1
M  END
$$$$

  -OEChem-02172215453D

 36 35  0     1  0  0  0  0  0999 V2000
   -4.3424   -1.9668    0.7280 H   0  0  0  0  0  0  0  0  0  0  0  0
   -4.1872   -0.9365    0.3952 C   0  0  0  0  0  0  0  0  0  0  0  0
   -4.9157   -0.2934    0.8948 H   0  0  0  0  0  0  0  0  0  0  0  0
   -4.3513   -0.8901   -0.6843 H   0  0  0  0  0  0  0  0  0  0  0  0
   -2.7780   -0.4833    0.7270 C   0  0  0  0  0  0  0  0  0  0  0  0
   -2.0182   -1.2658    1.2727 O   0  0  0  0  0  0  0  0  0  0  0  0
   -2.3932    0.7999    0.3764 N   0  0  0  0  0  0  0  0  0  0  0  0
   -3.1015    1.3254   -0.1335 H   0  0  0  0  0  0  0  0  0  0  0  0
   -1.0811    1.4757    0.5264 C   0  0  1  0  0  0  0  0  0  0  0  0
   -1.2918    2.5084    0.8249 H   0  0  0  0  0  0  0  0  0  0  0  0
   -0.0888    0.9138    1.5692 C   0  0  0  0  0  0  0  0  0  0  0  0
    0.1395   -0.1363    1.3653 H   0  0  0  0  0  0  0  0  0  0  0  0
    0.8555    1.4612    1.4703 H   0  0  0  0  0  0  0  0  0  0  0  0
   -0.5937    1.0950    3.0061 C   0  0  0  0  0  0  0  0  0  0  0  0
   -0.7501    2.1596    3.2111 H   0  0  0  0  0  0  0  0  0  0  0  0
   -1.5510    0.5800    3.1335 H   0  0  0  0  0  0  0  0  0  0  0  0
    0.4327    0.5186    3.9780 C   0  0  0  0  0  0  0  0  0  0  0  0
    0.5872   -0.5402    3.7411 H   0  0  0  0  0  0  0  0  0  0  0  0
    1.3848    1.0462    3.8511 H   0  0  0  0  0  0  0  0  0  0  0  0
   -0.0474    0.6623    5.3644 N   0  3  0  0  0  0  0  0  0  0  0  0
   -0.9464    1.1228    5.4984 H   0  0  0  0  0  0  0  0  0  0  0  0
    0.5977    0.2076    6.3993 C   0  0  0  0  0  0  0  0  0  0  0  0
    1.7987   -0.4528    6.2723 N   0  0  0  0  0  0  0  0  0  0  0  0
    2.0937   -0.7244    5.3364 H   0  0  0  0  0  0  0  0  0  0  0  0
    2.1407   -1.0002    7.0594 H   0  0  0  0  0  0  0  0  0  0  0  0
    0.0713    0.3816    7.6572 N   0  0  0  0  0  0  0  0  0  0  0  0
   -0.7191    1.0127    7.7749 H   0  0  0  0  0  0  0  0  0  0  0  0
    0.6713    0.2125    8.4626 H   0  0  0  0  0  0  0  0  0  0  0  0
   -0.3799    1.5596   -0.8417 C   0  0  0  0  0  0  0  0  0  0  0  0
   -0.0783    2.6520   -1.2978 O   0  0  0  0  0  0  0  0  0  0  0  0
   -0.0761    0.4065   -1.5410 N   0  0  0  0  0  0  0  0  0  0  0  0
   -0.3640   -0.4784   -1.1290 H   0  0  0  0  0  0  0  0  0  0  0  0
    0.5724    0.4075   -2.8476 C   0  0  0  0  0  0  0  0  0  0  0  0
    1.5459    0.9066   -2.7931 H   0  0  0  0  0  0  0  0  0  0  0  0
    0.7307   -0.6185   -3.1938 H   0  0  0  0  0  0  0  0  0  0  0  0
   -0.0488    0.9285   -3.5840 H   0  0  0  0  0  0  0  0  0  0  0  0
  1  2  1  0  0  0  0
  2  3  1  0  0  0  0
  2  4  1  0  0  0  0
  2  5  1  0  0  0  0
  5  6  2  0  0  0  0
  5  7  1  0  0  0  0
  7  8  1  0  0  0  0
  7  9  1  0  0  0  0
  9 10  1  0  0  0  0
  9 11  1  0  0  0  0
  9 29  1  0  0  0  0
 11 12  1  0  0  0  0
 11 13  1  0  0  0  0
 11 14  1  0  0  0  0
 14 15  1  0  0  0  0
 14 16  1  0  0  0  0
 14 17  1  0  0  0  0
 17 18  1  0  0  0  0
 17 19  1  0  0  0  0
 17 20  1  0  0  0  0
 20 21  1  0  0  0  0
 20 22  2  0  0  0  0
 22 23  1  0  0  0  0
 22 26  1  0  0  0  0
 23 24  1  0  0  0  0
 23 25  1  0  0  0  0
 26 27  1  0  0  0  0
 26 28  1  0  0  0  0
 29 30  2  0  0  0  0
 29 31  1  0  0  0  0
 31 32  1  0  0  0  0
 31 33  1  0  0  0  0
 33 34  1  0  0  0  0
 33 35  1  0  0  0  0
 33 36  1  0  0  0  0
M  CHG  1  20   1
M  END
$$$$

  -OEChem-02172215453D

 36 35  0     1  0  0  0  0  0999 V2000
   -4.3770   -1.9725    0.7703 H   0  0  0  0  0  0  0  0  0  0  0  0
   -4.2261   -0.9430    0.4326 C   0  0  0  0  0  0  0  0  0  0  0  0
   -4.9473   -0.2981    0.9406 H   0  0  0  0  0  0  0  0  0  0  0  0
   -4.4041   -0.8989   -0.6448 H   0  0  0  0  0  0  0  0  0  0  0  0
   -2.8123   -0.4898    0.7439 C   0  0  0  0  0  0  0  0  0  0  0  0
   -2.0478   -1.2727    1.2812 O   0  0  0  0  0  0  0  0  0  0  0  0
   -2.4289    0.7903    0.3793 N   0  0  0  0  0  0  0  0  0  0  0  0
   -3.1469    1.3175   -0.1147 H   0  0  0  0  0  0  0  0  0  0  0  0
   -1.1159    1.4707    0.5168 C   0  0  1  0  0  0  0  0  0  0  0  0
   -1.3278    2.5045    0.8103 H   0  0  0  0  0  0  0  0  0  0  0  0
   -0.1211    0.9112    1.5579 C   0  0  0  0  0  0  0  0  0  0  0  0
    0.1037   -0.1394    1.3538 H   0  0  0  0  0  0  0  0  0  0  0  0
    0.8247    1.4552    1.4541 H   0  0  0  0  0  0  0  0  0  0  0  0
   -0.6168    1.0965    2.9972 C   0  0  0  0  0  0  0  0  0  0  0  0
   -0.7664    2.1621    3.2011 H   0  0  0  0  0  0  0  0  0  0  0  0
   -1.5747    0.5848    3.1336 H   0  0  0  0  0  0  0  0  0  0  0  0
    0.4180    0.5191    3.9587 C   0  0  0  0  0  0  0  0  0  0  0  0
    0.5682   -0.5399    3.7196 H   0  0  0  0  0  0  0  0  0  0  0  0
    1.3691    1.0455    3.8212 H   0  0  0  0  0  0  0  0  0  0  0  0
   -0.0458    0.6631    5.3503 N   0  3  0  0  0  0  0  0  0  0  0  0
   -0.9391    1.1308    5.4952 H   0  0  0  0  0  0  0  0  0  0  0  0
    0.6112    0.2064    6.3769 C   0  0  0  0  0  0  0  0  0  0  0  0
    1.8092   -0.4560    6.2341 N   0  0  0  0  0  0  0  0  0  0  0  0
    2.0876   -0.7336    5.2948 H   0  0  0  0  0  0  0  0  0  0  0  0
    2.1634   -0.9998    7.0183 H   0  0  0  0  0  0  0  0  0  0  0  0
    0.1044    0.3853    7.6421 N   0  0  0  0  0  0  0  0  0  0  0  0
   -0.6788    1.0229    7.7700 H   0  0  0  0  0  0  0  0  0  0  0  0
    0.7162    0.2155    8.4383 H   0  0  0  0  0  0  0  0  0  0  0  0
   -0.4029    1.5527   -0.8465 C   0  0  0  0  0  0  0  0  0  0  0  0
    0.1522    2.5919   -1.1703 O   0  0  0  0  0  0  0  0  0  0  0  0
   -0.3573    0.4534   -1.6837 N   0  0  0  0  0  0  0  0  0  0  0  0
   -0.7716   -0.4099   -1.3408 H   0  0  0  0  0  0  0  0  0  0  0  0
    0.3341    0.4513   -2.9682 C   0  0  0  0  0  0  0  0  0  0  0  0
    1.3992    0.6662   -2.8310 H   0  0  0  0  0  0  0  0  0  0  0  0
    0.2377   -0.5266   -3.4504 H   0  0  0  0  0  0  0  0  0  0  0  0
   -0.0935    1.2081   -3.6346 H   0  0  0  0  0  0  0  0  0  0  0  0
  1  2  1  0  0  0  0
  2  3  1  0  0  0  0
  2  4  1  0  0  0  0
  2  5  1  0  0  0  0
  5  6  2  0  0  0  0
  5  7  1  0  0  0  0
  7  8  1  0  0  0  0
  7  9  1  0  0  0  0
  9 10  1  0  0  0  0
  9 11  1  0  0  0  0
  9 29  1  0  0  0  0
 11 12  1  0  0  0  0
 11 13  1  0  0  0  0
 11 14  1  0  0  0  0
 14 15  1  0  0  0  0
 14 16  1  0  0  0  0
 14 17  1  0  0  0  0
 17 18  1  0  0  0  0
 17 19  1  0  0  0  0
 17 20  1  0  0  0  0
 20 21  1  0  0  0  0
 20 22  2  0  0  0  0
 22 23  1  0  0  0  0
 22 26  1  0  0  0  0
 23 24  1  0  0  0  0
 23 25  1  0  0  0  0
 26 27  1  0  0  0  0
 26 28  1  0  0  0  0
 29 30  2  0  0  0  0
 29 31  1  0  0  0  0
 31 32  1  0  0  0  0
 31 33  1  0  0  0  0
 33 34  1  0  0  0  0
 33 35  1  0  0  0  0
 33 36  1  0  0  0  0
M  CHG  1  20   1
M  END
$$$$

  -OEChem-02172215453D

 36 35  0     1  0  0  0  0  0999 V2000
   -4.3906   -1.9794    0.7913 H   0  0  0  0  0  0  0  0  0  0  0  0
   -4.2440   -0.9490    0.4544 C   0  0  0  0  0  0  0  0  0  0  0  0
   -4.9657   -0.3068    0.9650 H   0  0  0  0  0  0  0  0  0  0  0  0
   -4.4253   -0.9043   -0.6225 H   0  0  0  0  0  0  0  0  0  0  0  0
   -2.8309   -0.4922    0.7628 C   0  0  0  0  0  0  0  0  0  0  0  0
   -2.0707   -1.2673    1.3167 O   0  0  0  0  0  0  0  0  0  0  0  0
   -2.4504    0.7855    0.3850 N   0  0  0  0  0  0  0  0  0  0  0  0
   -3.1731    1.3067   -0.1080 H   0  0  0  0  0  0  0  0  0  0  0  0
   -1.1392    1.4746    0.5121 C   0  0  1  0  0  0  0  0  0  0  0  0
   -1.3531    2.5093    0.8004 H   0  0  0  0  0  0  0  0  0  0  0  0
   -0.1444    0.9173    1.5548 C   0  0  0  0  0  0  0  0  0  0  0  0
    0.0827   -0.1329    1.3499 H   0  0  0  0  0  0  0  0  0  0  0  0
    0.8010    1.4623    1.4525 H   0  0  0  0  0  0  0  0  0  0  0  0
   -0.6364    1.1039    2.9952 C   0  0  0  0  0  0  0  0  0  0  0  0
   -0.7849    2.1697    3.1995 H   0  0  0  0  0  0  0  0  0  0  0  0
   -1.5933    0.5917    3.1364 H   0  0  0  0  0  0  0  0  0  0  0  0
    0.4044    0.5256    3.9491 C   0  0  0  0  0  0  0  0  0  0  0  0
    0.5529   -0.5327    3.7067 H   0  0  0  0  0  0  0  0  0  0  0  0
    1.3547    1.0519    3.8048 H   0  0  0  0  0  0  0  0  0  0  0  0
   -0.0464    0.6658    5.3452 N   0  3  0  0  0  0  0  0  0  0  0  0
   -0.9413    1.1274    5.5001 H   0  0  0  0  0  0  0  0  0  0  0  0
    0.6223    0.2057    6.3626 C   0  0  0  0  0  0  0  0  0  0  0  0
    1.8186   -0.4552    6.2018 N   0  0  0  0  0  0  0  0  0  0  0  0
    2.0865   -0.7238    5.2568 H   0  0  0  0  0  0  0  0  0  0  0  0
    2.1778   -1.0098    6.9760 H   0  0  0  0  0  0  0  0  0  0  0  0
    0.1296    0.3775    7.6342 N   0  0  0  0  0  0  0  0  0  0  0  0
   -0.6499    1.0172    7.7742 H   0  0  0  0  0  0  0  0  0  0  0  0
    0.7507    0.2030    8.4222 H   0  0  0  0  0  0  0  0  0  0  0  0
   -0.4181    1.5533   -0.8493 C   0  0  0  0  0  0  0  0  0  0  0  0
    0.3384    2.4873   -1.0705 O   0  0  0  0  0  0  0  0  0  0  0  0
   -0.6086    0.5784   -1.8113 N   0  0  0  0  0  0  0  0  0  0  0  0
   -1.1550   -0.2349   -1.5414 H   0  0  0  0  0  0  0  0  0  0  0  0
    0.0843    0.5722   -3.0951 C   0  0  0  0  0  0  0  0  0  0  0  0
    1.1665    0.4940   -2.9472 H   0  0  0  0  0  0  0  0  0  0  0  0
   -0.2453   -0.2783   -3.7002 H   0  0  0  0  0  0  0  0  0  0  0  0
   -0.1284    1.4921   -3.6502 H   0  0  0  0  0  0  0  0  0  0  0  0
  1  2  1  0  0  0  0
  2  3  1  0  0  0  0
  2  4  1  0  0  0  0
  2  5  1  0  0  0  0
  5  6  2  0  0  0  0
  5  7  1  0  0  0  0
  7  8  1  0  0  0  0
  7  9  1  0  0  0  0
  9 10  1  0  0  0  0
  9 11  1  0  0  0  0
  9 29  1  0  0  0  0
 11 12  1  0  0  0  0
 11 13  1  0  0  0  0
 11 14  1  0  0  0  0
 14 15  1  0  0  0  0
 14 16  1  0  0  0  0
 14 17  1  0  0  0  0
 17 18  1  0  0  0  0
 17 19  1  0  0  0  0
 17 20  1  0  0  0  0
 20 21  1  0  0  0  0
 20 22  2  0  0  0  0
 22 23  1  0  0  0  0
 22 26  1  0  0  0  0
 23 24  1  0  0  0  0
 23 25  1  0  0  0  0
 26 27  1  0  0  0  0
 26 28  1  0  0  0  0
 29 30  2  0  0  0  0
 29 31  1  0  0  0  0
 31 32  1  0  0  0  0
 31 33  1  0  0  0  0
 33 34  1  0  0  0  0
 33 35  1  0  0  0  0
 33 36  1  0  0  0  0
M  CHG  1  20   1
M  END
$$$$

  -OEChem-02172215453D

 36 35  0     1  0  0  0  0  0999 V2000
   -4.3997   -1.9864    0.8171 H   0  0  0  0  0  0  0  0  0  0  0  0
   -4.2535   -0.9578    0.4743 C   0  0  0  0  0  0  0  0  0  0  0  0
   -4.9704   -0.3120    0.9870 H   0  0  0  0  0  0  0  0  0  0  0  0
   -4.4424   -0.9178   -0.6012 H   0  0  0  0  0  0  0  0  0  0  0  0
   -2.8373   -0.5025    0.7716 C   0  0  0  0  0  0  0  0  0  0  0  0
   -2.0803   -1.2750    1.3328 O   0  0  0  0  0  0  0  0  0  0  0  0
   -2.4589    0.7750    0.3884 N   0  0  0  0  0  0  0  0  0  0  0  0
   -3.1908    1.3012   -0.0854 H   0  0  0  0  0  0  0  0  0  0  0  0
   -1.1470    1.4674    0.5063 C   0  0  1  0  0  0  0  0  0  0  0  0
   -1.3612    2.5026    0.7912 H   0  0  0  0  0  0  0  0  0  0  0  0
   -0.1550    0.9109    1.5554 C   0  0  0  0  0  0  0  0  0  0  0  0
    0.0687   -0.1407    1.3544 H   0  0  0  0  0  0  0  0  0  0  0  0
    0.7940    1.4501    1.4563 H   0  0  0  0  0  0  0  0  0  0  0  0
   -0.6454    1.1051    2.9952 C   0  0  0  0  0  0  0  0  0  0  0  0
   -0.7888    2.1721    3.1962 H   0  0  0  0  0  0  0  0  0  0  0  0
   -1.6041    0.5980    3.1403 H   0  0  0  0  0  0  0  0  0  0  0  0
    0.3961    0.5257    3.9477 C   0  0  0  0  0  0  0  0  0  0  0  0
    0.5397   -0.5339    3.7072 H   0  0  0  0  0  0  0  0  0  0  0  0
    1.3477    1.0483    3.7981 H   0  0  0  0  0  0  0  0  0  0  0  0
   -0.0470    0.6697    5.3458 N   0  3  0  0  0  0  0  0  0  0  0  0
   -0.9404    1.1325    5.5055 H   0  0  0  0  0  0  0  0  0  0  0  0
    0.6265    0.2085    6.3595 C   0  0  0  0  0  0  0  0  0  0  0  0
    1.8198   -0.4564    6.1921 N   0  0  0  0  0  0  0  0  0  0  0  0
    2.0832   -0.7238    5.2454 H   0  0  0  0  0  0  0  0  0  0  0  0
    2.1814   -1.0121    6.9642 H   0  0  0  0  0  0  0  0  0  0  0  0
    0.1420    0.3815    7.6339 N   0  0  0  0  0  0  0  0  0  0  0  0
   -0.6357    1.0225    7.7783 H   0  0  0  0  0  0  0  0  0  0  0  0
    0.7686    0.2076    8.4175 H   0  0  0  0  0  0  0  0  0  0  0  0
   -0.4227    1.5495   -0.8567 C   0  0  0  0  0  0  0  0  0  0  0  0
    0.4955    2.3442   -0.9985 O   0  0  0  0  0  0  0  0  0  0  0  0
   -0.8204    0.7710   -1.9288 N   0  0  0  0  0  0  0  0  0  0  0  0
   -1.5027    0.0429   -1.7397 H   0  0  0  0  0  0  0  0  0  0  0  0
   -0.1520    0.7927   -3.2259 C   0  0  0  0  0  0  0  0  0  0  0  0
    0.8898    0.4698   -3.1272 H   0  0  0  0  0  0  0  0  0  0  0  0
   -0.6586    0.1207   -3.9255 H   0  0  0  0  0  0  0  0  0  0  0  0
   -0.1672    1.8032   -3.6484 H   0  0  0  0  0  0  0  0  0  0  0  0
  1  2  1  0  0  0  0
  2  3  1  0  0  0  0
  2  4  1  0  0  0  0
  2  5  1  0  0  0  0
  5  6  2  0  0  0  0
  5  7  1  0  0  0  0
  7  8  1  0  0  0  0
  7  9  1  0  0  0  0
  9 10  1  0  0  0  0
  9 11  1  0  0  0  0
  9 29  1  0  0  0  0
 11 12  1  0  0  0  0
 11 13  1  0  0  0  0
 11 14  1  0  0  0  0
 14 15  1  0  0  0  0
 14 16  1  0  0  0  0
 14 17  1  0  0  0  0
 17 18  1  0  0  0  0
 17 19  1  0  0  0  0
 17 20  1  0  0  0  0
 20 21  1  0  0  0  0
 20 22  2  0  0  0  0
 22 23  1  0  0  0  0
 22 26  1  0  0  0  0
 23 24  1  0  0  0  0
 23 25  1  0  0  0  0
 26 27  1  0  0  0  0
 26 28  1  0  0  0  0
 29 30  2  0  0  0  0
 29 31  1  0  0  0  0
 31 32  1  0  0  0  0
 31 33  1  0  0  0  0
 33 34  1  0  0  0  0
 33 35  1  0  0  0  0
 33 36  1  0  0  0  0
M  CHG  1  20   1
M  END
$$$$

  -OEChem-02172215453D

 36 35  0     1  0  0  0  0  0999 V2000
   -4.3937   -1.9917    0.8492 H   0  0  0  0  0  0  0  0  0  0  0  0
   -4.2476   -0.9668    0.4955 C   0  0  0  0  0  0  0  0  0  0  0  0
   -4.9549   -0.3137    1.0125 H   0  0  0  0  0  0  0  0  0  0  0  0
   -4.4508   -0.9361   -0.5777 H   0  0  0  0  0  0  0  0  0  0  0  0
   -2.8254   -0.5153    0.7703 C   0  0  0  0  0  0  0  0  0  0  0  0
   -2.0668   -1.2877    1.3292 O   0  0  0  0  0  0  0  0  0  0  0  0
   -2.4533    0.7647    0.3873 N   0  0  0  0  0  0  0  0  0  0  0  0
   -3.1981    1.2987   -0.0563 H   0  0  0  0  0  0  0  0  0  0  0  0
   -1.1429    1.4626    0.4987 C   0  0  1  0  0  0  0  0  0  0  0  0
   -1.3584    2.4974    0.7832 H   0  0  0  0  0  0  0  0  0  0  0  0
   -0.1547    0.9063    1.5542 C   0  0  0  0  0  0  0  0  0  0  0  0
    0.0704   -0.1454    1.3550 H   0  0  0  0  0  0  0  0  0  0  0  0
    0.7955    1.4440    1.4623 H   0  0  0  0  0  0  0  0  0  0  0  0
   -0.6474    1.1044    2.9925 C   0  0  0  0  0  0  0  0  0  0  0  0
   -0.7903    2.1719    3.1915 H   0  0  0  0  0  0  0  0  0  0  0  0
   -1.6069    0.5985    3.1371 H   0  0  0  0  0  0  0  0  0  0  0  0
    0.3929    0.5240    3.9463 C   0  0  0  0  0  0  0  0  0  0  0  0
    0.5345   -0.5363    3.7078 H   0  0  0  0  0  0  0  0  0  0  0  0
    1.3460    1.0437    3.7962 H   0  0  0  0  0  0  0  0  0  0  0  0
   -0.0502    0.6709    5.3439 N   0  3  0  0  0  0  0  0  0  0  0  0
   -0.9415    1.1378    5.5031 H   0  0  0  0  0  0  0  0  0  0  0  0
    0.6225    0.2094    6.3578 C   0  0  0  0  0  0  0  0  0  0  0  0
    1.8144   -0.4585    6.1914 N   0  0  0  0  0  0  0  0  0  0  0  0
    2.0755   -0.7301    5.2452 H   0  0  0  0  0  0  0  0  0  0  0  0
    2.1746   -1.0136    6.9648 H   0  0  0  0  0  0  0  0  0  0  0  0
    0.1372    0.3849    7.6316 N   0  0  0  0  0  0  0  0  0  0  0  0
   -0.6393    1.0277    7.7741 H   0  0  0  0  0  0  0  0  0  0  0  0
    0.7620    0.2094    8.4165 H   0  0  0  0  0  0  0  0  0  0  0  0
   -0.4236    1.5515   -0.8698 C   0  0  0  0  0  0  0  0  0  0  0  0
    0.6222    2.1791   -0.9642 O   0  0  0  0  0  0  0  0  0  0  0  0
   -0.9922    1.0210   -2.0143 N   0  0  0  0  0  0  0  0  0  0  0  0
   -1.7956    0.4137   -1.8877 H   0  0  0  0  0  0  0  0  0  0  0  0
   -0.3553    1.0799   -3.3264 C   0  0  0  0  0  0  0  0  0  0  0  0
    0.5983    0.5412   -3.3158 H   0  0  0  0  0  0  0  0  0  0  0  0
   -1.0021    0.6247   -4.0830 H   0  0  0  0  0  0  0  0  0  0  0  0
   -0.1678    2.1195   -3.6166 H   0  0  0  0  0  0  0  0  0  0  0  0
  1  2  1  0  0  0  0
  2  3  1  0  0  0  0
  2  4  1  0  0  0  0
  2  5  1  0  0  0  0
  5  6  2  0  0  0  0
  5  7  1  0  0  0  0
  7  8  1  0  0  0  0
  7  9  1  0  0  0  0
  9 10  1  0  0  0  0
  9 11  1  0  0  0  0
  9 29  1  0  0  0  0
 11 12  1  0  0  0  0
 11 13  1  0  0  0  0
 11 14  1  0  0  0  0
 14 15  1  0  0  0  0
 14 16  1  0  0  0  0
 14 17  1  0  0  0  0
 17 18  1  0  0  0  0
 17 19  1  0  0  0  0
 17 20  1  0  0  0  0
 20 21  1  0  0  0  0
 20 22  2  0  0  0  0
 22 23  1  0  0  0  0
 22 26  1  0  0  0  0
 23 24  1  0  0  0  0
 23 25  1  0  0  0  0
 26 27  1  0  0  0  0
 26 28  1  0  0  0  0
 29 30  2  0  0  0  0
 29 31  1  0  0  0  0
 31 32  1  0  0  0  0
 31 33  1  0  0  0  0
 33 34  1  0  0  0  0
 33 35  1  0  0  0  0
 33 36  1  0  0  0  0
M  CHG  1  20   1
M  END
$$$$

  -OEChem-02172215453D

 36 35  0     1  0  0  0  0  0999 V2000
   -4.3741   -1.9992    0.8364 H   0  0  0  0  0  0  0  0  0  0  0  0
   -4.2300   -0.9739    0.4833 C   0  0  0  0  0  0  0  0  0  0  0  0
   -4.9423   -0.3234    0.9965 H   0  0  0  0  0  0  0  0  0  0  0  0
   -4.4273   -0.9445   -0.5910 H   0  0  0  0  0  0  0  0  0  0  0  0
   -2.8105   -0.5173    0.7646 C   0  0  0  0  0  0  0  0  0  0  0  0
   -2.0539   -1.2860    1.3314 O   0  0  0  0  0  0  0  0  0  0  0  0
   -2.4443    0.7655    0.3836 N   0  0  0  0  0  0  0  0  0  0  0  0
   -3.1987    1.3030   -0.0377 H   0  0  0  0  0  0  0  0  0  0  0  0
   -1.1366    1.4694    0.4957 C   0  0  1  0  0  0  0  0  0  0  0  0
   -1.3547    2.5037    0.7792 H   0  0  0  0  0  0  0  0  0  0  0  0
   -0.1531    0.9132    1.5581 C   0  0  0  0  0  0  0  0  0  0  0  0
    0.0763   -0.1373    1.3581 H   0  0  0  0  0  0  0  0  0  0  0  0
    0.7973    1.4520    1.4766 H   0  0  0  0  0  0  0  0  0  0  0  0
   -0.6519    1.1102    2.9942 C   0  0  0  0  0  0  0  0  0  0  0  0
   -0.7943    2.1774    3.1941 H   0  0  0  0  0  0  0  0  0  0  0  0
   -1.6114    0.6031    3.1353 H   0  0  0  0  0  0  0  0  0  0  0  0
    0.3871    0.5286    3.9484 C   0  0  0  0  0  0  0  0  0  0  0  0
    0.5293   -0.5304    3.7059 H   0  0  0  0  0  0  0  0  0  0  0  0
    1.3397    1.0492    3.8001 H   0  0  0  0  0  0  0  0  0  0  0  0
   -0.0553    0.6706    5.3467 N   0  3  0  0  0  0  0  0  0  0  0  0
   -0.9476    1.1348    5.5078 H   0  0  0  0  0  0  0  0  0  0  0  0
    0.6193    0.2060    6.3582 C   0  0  0  0  0  0  0  0  0  0  0  0
    1.8117   -0.4599    6.1879 N   0  0  0  0  0  0  0  0  0  0  0  0
    2.0740   -0.7242    5.2400 H   0  0  0  0  0  0  0  0  0  0  0  0
    2.1728   -1.0195    6.9575 H   0  0  0  0  0  0  0  0  0  0  0  0
    0.1378    0.3775    7.6339 N   0  0  0  0  0  0  0  0  0  0  0  0
   -0.6363    1.0217    7.7812 H   0  0  0  0  0  0  0  0  0  0  0  0
    0.7654    0.1989    8.4156 H   0  0  0  0  0  0  0  0  0  0  0  0
   -0.4261    1.5582   -0.8810 C   0  0  0  0  0  0  0  0  0  0  0  0
    0.7239    1.9691   -0.9577 O   0  0  0  0  0  0  0  0  0  0  0  0
   -1.1170    1.3087   -2.0543 N   0  0  0  0  0  0  0  0  0  0  0  0
   -2.0244    0.8639   -1.9669 H   0  0  0  0  0  0  0  0  0  0  0  0
   -0.5042    1.3940   -3.3763 C   0  0  0  0  0  0  0  0  0  0  0  0
    0.3115    0.6690   -3.4689 H   0  0  0  0  0  0  0  0  0  0  0  0
   -1.2458    1.1832   -4.1531 H   0  0  0  0  0  0  0  0  0  0  0  0
   -0.1025    2.3983   -3.5495 H   0  0  0  0  0  0  0  0  0  0  0  0
  1  2  1  0  0  0  0
  2  3  1  0  0  0  0
  2  4  1  0  0  0  0
  2  5  1  0  0  0  0
  5  6  2  0  0  0  0
  5  7  1  0  0  0  0
  7  8  1  0  0  0  0
  7  9  1  0  0  0  0
  9 10  1  0  0  0  0
  9 11  1  0  0  0  0
  9 29  1  0  0  0  0
 11 12  1  0  0  0  0
 11 13  1  0  0  0  0
 11 14  1  0  0  0  0
 14 15  1  0  0  0  0
 14 16  1  0  0  0  0
 14 17  1  0  0  0  0
 17 18  1  0  0  0  0
 17 19  1  0  0  0  0
 17 20  1  0  0  0  0
 20 21  1  0  0  0  0
 20 22  2  0  0  0  0
 22 23  1  0  0  0  0
 22 26  1  0  0  0  0
 23 24  1  0  0  0  0
 23 25  1  0  0  0  0
 26 27  1  0  0  0  0
 26 28  1  0  0  0  0
 29 30  2  0  0  0  0
 29 31  1  0  0  0  0
 31 32  1  0  0  0  0
 31 33  1  0  0  0  0
 33 34  1  0  0  0  0
 33 35  1  0  0  0  0
 33 36  1  0  0  0  0
M  CHG  1  20   1
M  END
$$$$

  -OEChem-02172215453D

 36 35  0     1  0  0  0  0  0999 V2000
   -4.3536   -2.0115    0.8150 H   0  0  0  0  0  0  0  0  0  0  0  0
   -4.2123   -0.9847    0.4648 C   0  0  0  0  0  0  0  0  0  0  0  0
   -4.9308   -0.3386    0.9750 H   0  0  0  0  0  0  0  0  0  0  0  0
   -4.4035   -0.9540   -0.6107 H   0  0  0  0  0  0  0  0  0  0  0  0
   -2.7963   -0.5223    0.7545 C   0  0  0  0  0  0  0  0  0  0  0  0
   -2.0434   -1.2870    1.3319 O   0  0  0  0  0  0  0  0  0  0  0  0
   -2.4342    0.7640    0.3790 N   0  0  0  0  0  0  0  0  0  0  0  0
   -3.1924    1.3001   -0.0352 H   0  0  0  0  0  0  0  0  0  0  0  0
   -1.1270    1.4685    0.4929 C   0  0  1  0  0  0  0  0  0  0  0  0
   -1.3444    2.5023    0.7777 H   0  0  0  0  0  0  0  0  0  0  0  0
   -0.1479    0.9137    1.5613 C   0  0  0  0  0  0  0  0  0  0  0  0
    0.0852   -0.1363    1.3633 H   0  0  0  0  0  0  0  0  0  0  0  0
    0.8012    1.4552    1.4846 H   0  0  0  0  0  0  0  0  0  0  0  0
   -0.6512    1.1133    2.9956 C   0  0  0  0  0  0  0  0  0  0  0  0
   -0.7955    2.1804    3.1944 H   0  0  0  0  0  0  0  0  0  0  0  0
   -1.6103    0.6056    3.1348 H   0  0  0  0  0  0  0  0  0  0  0  0
    0.3858    0.5318    3.9517 C   0  0  0  0  0  0  0  0  0  0  0  0
    0.5290   -0.5275    3.7097 H   0  0  0  0  0  0  0  0  0  0  0  0
    1.3385    1.0532    3.8046 H   0  0  0  0  0  0  0  0  0  0  0  0
   -0.0580    0.6745    5.3497 N   0  3  0  0  0  0  0  0  0  0  0  0
   -0.9511    1.1371    5.5107 H   0  0  0  0  0  0  0  0  0  0  0  0
    0.6163    0.2091    6.3610 C   0  0  0  0  0  0  0  0  0  0  0  0
    1.8081   -0.4572    6.1880 N   0  0  0  0  0  0  0  0  0  0  0  0
    2.0675   -0.7206    5.2390 H   0  0  0  0  0  0  0  0  0  0  0  0
    2.1684   -1.0204    6.9552 H   0  0  0  0  0  0  0  0  0  0  0  0
    0.1347    0.3776    7.6373 N   0  0  0  0  0  0  0  0  0  0  0  0
   -0.6421    1.0184    7.7860 H   0  0  0  0  0  0  0  0  0  0  0  0
    0.7629    0.2001    8.4188 H   0  0  0  0  0  0  0  0  0  0  0  0
   -0.4280    1.5591   -0.8920 C   0  0  0  0  0  0  0  0  0  0  0  0
    0.7850    1.6969   -0.9779 O   0  0  0  0  0  0  0  0  0  0  0  0
   -1.1750    1.6197   -2.0568 N   0  0  0  0  0  0  0  0  0  0  0  0
   -2.1668    1.4217   -1.9872 H   0  0  0  0  0  0  0  0  0  0  0  0
   -0.5774    1.7391   -3.3841 C   0  0  0  0  0  0  0  0  0  0  0  0
    0.0502    0.8686   -3.6022 H   0  0  0  0  0  0  0  0  0  0  0  0
   -1.3581    1.8042   -4.1485 H   0  0  0  0  0  0  0  0  0  0  0  0
    0.0406    2.6414   -3.4473 H   0  0  0  0  0  0  0  0  0  0  0  0
  1  2  1  0  0  0  0
  2  3  1  0  0  0  0
  2  4  1  0  0  0  0
  2  5  1  0  0  0  0
  5  6  2  0  0  0  0
  5  7  1  0  0  0  0
  7  8  1  0  0  0  0
  7  9  1  0  0  0  0
  9 10  1  0  0  0  0
  9 11  1  0  0  0  0
  9 29  1  0  0  0  0
 11 12  1  0  0  0  0
 11 13  1  0  0  0  0
 11 14  1  0  0  0  0
 14 15  1  0  0  0  0
 14 16  1  0  0  0  0
 14 17  1  0  0  0  0
 17 18  1  0  0  0  0
 17 19  1  0  0  0  0
 17 20  1  0  0  0  0
 20 21  1  0  0  0  0
 20 22  2  0  0  0  0
 22 23  1  0  0  0  0
 22 26  1  0  0  0  0
 23 24  1  0  0  0  0
 23 25  1  0  0  0  0
 26 27  1  0  0  0  0
 26 28  1  0  0  0  0
 29 30  2  0  0  0  0
 29 31  1  0  0  0  0
 31 32  1  0  0  0  0
 31 33  1  0  0  0  0
 33 34  1  0  0  0  0
 33 35  1  0  0  0  0
 33 36  1  0  0  0  0
M  CHG  1  20   1
M  END
$$$$

  -OEChem-02172215453D

 36 35  0     1  0  0  0  0  0999 V2000
   -4.3269   -2.0352    0.7251 H   0  0  0  0  0  0  0  0  0  0  0  0
   -4.1909   -1.0022    0.3916 C   0  0  0  0  0  0  0  0  0  0  0  0
   -4.9510   -0.3770    0.8661 H   0  0  0  0  0  0  0  0  0  0  0  0
   -4.3228   -0.9670   -0.6926 H   0  0  0  0  0  0  0  0  0  0  0  0
   -2.8040   -0.5106    0.7629 C   0  0  0  0  0  0  0  0  0  0  0  0
   -2.0832   -1.2500    1.4105 O   0  0  0  0  0  0  0  0  0  0  0  0
   -2.4394    0.7753    0.3881 N   0  0  0  0  0  0  0  0  0  0  0  0
   -3.1672    1.2724   -0.1170 H   0  0  0  0  0  0  0  0  0  0  0  0
   -1.1283    1.4713    0.5019 C   0  0  1  0  0  0  0  0  0  0  0  0
   -1.3387    2.5061    0.7883 H   0  0  0  0  0  0  0  0  0  0  0  0
   -0.1498    0.9155    1.5686 C   0  0  0  0  0  0  0  0  0  0  0  0
    0.0753   -0.1374    1.3720 H   0  0  0  0  0  0  0  0  0  0  0  0
    0.8010    1.4536    1.4832 H   0  0  0  0  0  0  0  0  0  0  0  0
   -0.6480    1.1199    3.0043 C   0  0  0  0  0  0  0  0  0  0  0  0
   -0.7855    2.1879    3.2018 H   0  0  0  0  0  0  0  0  0  0  0  0
   -1.6101    0.6196    3.1485 H   0  0  0  0  0  0  0  0  0  0  0  0
    0.3893    0.5358    3.9577 C   0  0  0  0  0  0  0  0  0  0  0  0
    0.5263   -0.5245    3.7165 H   0  0  0  0  0  0  0  0  0  0  0  0
    1.3440    1.0518    3.8067 H   0  0  0  0  0  0  0  0  0  0  0  0
   -0.0495    0.6825    5.3569 N   0  3  0  0  0  0  0  0  0  0  0  0
   -0.9452    1.1399    5.5186 H   0  0  0  0  0  0  0  0  0  0  0  0
    0.6267    0.2158    6.3664 C   0  0  0  0  0  0  0  0  0  0  0  0
    1.8153   -0.4554    6.1901 N   0  0  0  0  0  0  0  0  0  0  0  0
    2.0703   -0.7207    5.2404 H   0  0  0  0  0  0  0  0  0  0  0  0
    2.1733   -1.0220    6.9560 H   0  0  0  0  0  0  0  0  0  0  0  0
    0.1505    0.3857    7.6446 N   0  0  0  0  0  0  0  0  0  0  0  0
   -0.6238    1.0286    7.7971 H   0  0  0  0  0  0  0  0  0  0  0  0
    0.7809    0.2045    8.4236 H   0  0  0  0  0  0  0  0  0  0  0  0
   -0.4407    1.5551   -0.8889 C   0  0  0  0  0  0  0  0  0  0  0  0
    0.7603    1.3616   -1.0224 O   0  0  0  0  0  0  0  0  0  0  0  0
   -1.1686    1.9290   -2.0068 N   0  0  0  0  0  0  0  0  0  0  0  0
   -2.1594    2.1108   -1.8929 H   0  0  0  0  0  0  0  0  0  0  0  0
   -0.5794    2.0677   -3.3359 C   0  0  0  0  0  0  0  0  0  0  0  0
   -0.1683    1.1108   -3.6753 H   0  0  0  0  0  0  0  0  0  0  0  0
   -1.3367    2.3925   -4.0563 H   0  0  0  0  0  0  0  0  0  0  0  0
    0.2251    2.8111   -3.3240 H   0  0  0  0  0  0  0  0  0  0  0  0
  1  2  1  0  0  0  0
  2  3  1  0  0  0  0
  2  4  1  0  0  0  0
  2  5  1  0  0  0  0
  5  6  2  0  0  0  0
  5  7  1  0  0  0  0
  7  8  1  0  0  0  0
  7  9  1  0  0  0  0
  9 10  1  0  0  0  0
  9 11  1  0  0  0  0
  9 29  1  0  0  0  0
 11 12  1  0  0  0  0
 11 13  1  0  0  0  0
 11 14  1  0  0  0  0
 14 15  1  0  0  0  0
 14 16  1  0  0  0  0
 14 17  1  0  0  0  0
 17 18  1  0  0  0  0
 17 19  1  0  0  0  0
 17 20  1  0  0  0  0
 20 21  1  0  0  0  0
 20 22  2  0  0  0  0
 22 23  1  0  0  0  0
 22 26  1  0  0  0  0
 23 24  1  0  0  0  0
 23 25  1  0  0  0  0
 26 27  1  0  0  0  0
 26 28  1  0  0  0  0
 29 30  2  0  0  0  0
 29 31  1  0  0  0  0
 31 32  1  0  0  0  0
 31 33  1  0  0  0  0
 33 34  1  0  0  0  0
 33 35  1  0  0  0  0
 33 36  1  0  0  0  0
M  CHG  1  20   1
M  END
$$$$

  -OEChem-02172215453D

 36 35  0     1  0  0  0  0  0999 V2000
   -4.3046   -2.0502    0.6193 H   0  0  0  0  0  0  0  0  0  0  0  0
   -4.1724   -1.0116    0.3018 C   0  0  0  0  0  0  0  0  0  0  0  0
   -4.9790   -0.4088    0.7254 H   0  0  0  0  0  0  0  0  0  0  0  0
   -4.2286   -0.9717   -0.7887 H   0  0  0  0  0  0  0  0  0  0  0  0
   -2.8284   -0.4878    0.7718 C   0  0  0  0  0  0  0  0  0  0  0  0
   -2.1503   -1.2009    1.4916 O   0  0  0  0  0  0  0  0  0  0  0  0
   -2.4571    0.7965    0.3982 N   0  0  0  0  0  0  0  0  0  0  0  0
   -3.1328    1.2447   -0.2147 H   0  0  0  0  0  0  0  0  0  0  0  0
   -1.1388    1.4755    0.5147 C   0  0  1  0  0  0  0  0  0  0  0  0
   -1.3372    2.5117    0.8041 H   0  0  0  0  0  0  0  0  0  0  0  0
   -0.1567    0.9168    1.5746 C   0  0  0  0  0  0  0  0  0  0  0  0
    0.0514   -0.1404    1.3810 H   0  0  0  0  0  0  0  0  0  0  0  0
    0.7992    1.4427    1.4706 H   0  0  0  0  0  0  0  0  0  0  0  0
   -0.6417    1.1254    3.0148 C   0  0  0  0  0  0  0  0  0  0  0  0
   -0.7686    2.1949    3.2108 H   0  0  0  0  0  0  0  0  0  0  0  0
   -1.6072    0.6349    3.1701 H   0  0  0  0  0  0  0  0  0  0  0  0
    0.3994    0.5370    3.9615 C   0  0  0  0  0  0  0  0  0  0  0  0
    0.5277   -0.5250    3.7225 H   0  0  0  0  0  0  0  0  0  0  0  0
    1.3568    1.0462    3.8030 H   0  0  0  0  0  0  0  0  0  0  0  0
   -0.0320    0.6905    5.3621 N   0  3  0  0  0  0  0  0  0  0  0  0
   -0.9249    1.1529    5.5254 H   0  0  0  0  0  0  0  0  0  0  0  0
    0.6444    0.2240    6.3714 C   0  0  0  0  0  0  0  0  0  0  0  0
    1.8286   -0.4551    6.1950 N   0  0  0  0  0  0  0  0  0  0  0  0
    2.0749   -0.7319    5.2463 H   0  0  0  0  0  0  0  0  0  0  0  0
    2.1853   -1.0193    6.9632 H   0  0  0  0  0  0  0  0  0  0  0  0
    0.1711    0.4023    7.6495 N   0  0  0  0  0  0  0  0  0  0  0  0
   -0.6012    1.0485    7.7997 H   0  0  0  0  0  0  0  0  0  0  0  0
    0.8006    0.2198    8.4292 H   0  0  0  0  0  0  0  0  0  0  0  0
   -0.4630    1.5486   -0.8791 C   0  0  0  0  0  0  0  0  0  0  0  0
    0.6370    1.0550   -1.0876 O   0  0  0  0  0  0  0  0  0  0  0  0
   -1.0940    2.2187   -1.9140 N   0  0  0  0  0  0  0  0  0  0  0  0
   -1.9669    2.6952   -1.7124 H   0  0  0  0  0  0  0  0  0  0  0  0
   -0.5040    2.3736   -3.2407 C   0  0  0  0  0  0  0  0  0  0  0  0
   -0.3230    1.3947   -3.6976 H   0  0  0  0  0  0  0  0  0  0  0  0
   -1.1772    2.9379   -3.8933 H   0  0  0  0  0  0  0  0  0  0  0  0
    0.4475    2.9125   -3.1777 H   0  0  0  0  0  0  0  0  0  0  0  0
  1  2  1  0  0  0  0
  2  3  1  0  0  0  0
  2  4  1  0  0  0  0
  2  5  1  0  0  0  0
  5  6  2  0  0  0  0
  5  7  1  0  0  0  0
  7  8  1  0  0  0  0
  7  9  1  0  0  0  0
  9 10  1  0  0  0  0
  9 11  1  0  0  0  0
  9 29  1  0  0  0  0
 11 12  1  0  0  0  0
 11 13  1  0  0  0  0
 11 14  1  0  0  0  0
 14 15  1  0  0  0  0
 14 16  1  0  0  0  0
 14 17  1  0  0  0  0
 17 18  1  0  0  0  0
 17 19  1  0  0  0  0
 17 20  1  0  0  0  0
 20 21  1  0  0  0  0
 20 22  2  0  0  0  0
 22 23  1  0  0  0  0
 22 26  1  0  0  0  0
 23 24  1  0  0  0  0
 23 25  1  0  0  0  0
 26 27  1  0  0  0  0
 26 28  1  0  0  0  0
 29 30  2  0  0  0  0
 29 31  1  0  0  0  0
 31 32  1  0  0  0  0
 31 33  1  0  0  0  0
 33 34  1  0  0  0  0
 33 35  1  0  0  0  0
 33 36  1  0  0  0  0
M  CHG  1  20   1
M  END
$$$$

  -OEChem-02172215453D

 36 35  0     1  0  0  0  0  0999 V2000
   -4.3112   -2.0303    0.6102 H   0  0  0  0  0  0  0  0  0  0  0  0
   -4.1615   -1.0049    0.2596 C   0  0  0  0  0  0  0  0  0  0  0  0
   -4.9858   -0.3863    0.6224 H   0  0  0  0  0  0  0  0  0  0  0  0
   -4.1680   -1.0066   -0.8332 H   0  0  0  0  0  0  0  0  0  0  0  0
   -2.8386   -0.4636    0.7693 C   0  0  0  0  0  0  0  0  0  0  0  0
   -2.1794   -1.1615    1.5217 O   0  0  0  0  0  0  0  0  0  0  0  0
   -2.4688    0.8207    0.3941 N   0  0  0  0  0  0  0  0  0  0  0  0
   -3.1200    1.2450   -0.2616 H   0  0  0  0  0  0  0  0  0  0  0  0
   -1.1558    1.5043    0.5245 C   0  0  1  0  0  0  0  0  0  0  0  0
   -1.3587    2.5395    0.8142 H   0  0  0  0  0  0  0  0  0  0  0  0
   -0.1733    0.9485    1.5840 C   0  0  0  0  0  0  0  0  0  0  0  0
    0.0364   -0.1078    1.3869 H   0  0  0  0  0  0  0  0  0  0  0  0
    0.7798    1.4782    1.4767 H   0  0  0  0  0  0  0  0  0  0  0  0
   -0.6567    1.1419    3.0276 C   0  0  0  0  0  0  0  0  0  0  0  0
   -0.7907    2.2087    3.2337 H   0  0  0  0  0  0  0  0  0  0  0  0
   -1.6176    0.6438    3.1846 H   0  0  0  0  0  0  0  0  0  0  0  0
    0.3939    0.5529    3.9642 C   0  0  0  0  0  0  0  0  0  0  0  0
    0.5294   -0.5056    3.7136 H   0  0  0  0  0  0  0  0  0  0  0  0
    1.3460    1.0716    3.8061 H   0  0  0  0  0  0  0  0  0  0  0  0
   -0.0285    0.6878    5.3695 N   0  3  0  0  0  0  0  0  0  0  0  0
   -0.9254    1.1383    5.5436 H   0  0  0  0  0  0  0  0  0  0  0  0
    0.6595    0.2158    6.3687 C   0  0  0  0  0  0  0  0  0  0  0  0
    1.8481   -0.4516    6.1759 N   0  0  0  0  0  0  0  0  0  0  0  0
    2.0886   -0.7171    5.2223 H   0  0  0  0  0  0  0  0  0  0  0  0
    2.2159   -1.0206    6.9354 H   0  0  0  0  0  0  0  0  0  0  0  0
    0.1928    0.3744    7.6519 N   0  0  0  0  0  0  0  0  0  0  0  0
   -0.5874    1.0078    7.8150 H   0  0  0  0  0  0  0  0  0  0  0  0
    0.8266    0.1864    8.4264 H   0  0  0  0  0  0  0  0  0  0  0  0
   -0.4718    1.5684   -0.8633 C   0  0  0  0  0  0  0  0  0  0  0  0
    0.4767    0.8482   -1.1425 O   0  0  0  0  0  0  0  0  0  0  0  0
   -0.9242    2.4717   -1.8101 N   0  0  0  0  0  0  0  0  0  0  0  0
   -1.6761    3.1023   -1.5496 H   0  0  0  0  0  0  0  0  0  0  0  0
   -0.3226    2.6098   -3.1336 C   0  0  0  0  0  0  0  0  0  0  0  0
   -0.3775    1.6630   -3.6819 H   0  0  0  0  0  0  0  0  0  0  0  0
   -0.8506    3.3735   -3.7132 H   0  0  0  0  0  0  0  0  0  0  0  0
    0.7286    2.9061   -3.0494 H   0  0  0  0  0  0  0  0  0  0  0  0
  1  2  1  0  0  0  0
  2  3  1  0  0  0  0
  2  4  1  0  0  0  0
  2  5  1  0  0  0  0
  5  6  2  0  0  0  0
  5  7  1  0  0  0  0
  7  8  1  0  0  0  0
  7  9  1  0  0  0  0
  9 10  1  0  0  0  0
  9 11  1  0  0  0  0
  9 29  1  0  0  0  0
 11 12  1  0  0  0  0
 11 13  1  0  0  0  0
 11 14  1  0  0  0  0
 14 15  1  0  0  0  0
 14 16  1  0  0  0  0
 14 17  1  0  0  0  0
 17 18  1  0  0  0  0
 17 19  1  0  0  0  0
 17 20  1  0  0  0  0
 20 21  1  0  0  0  0
 20 22  2  0  0  0  0
 22 23  1  0  0  0  0
 22 26  1  0  0  0  0
 23 24  1  0  0  0  0
 23 25  1  0  0  0  0
 26 27  1  0  0  0  0
 26 28  1  0  0  0  0
 29 30  2  0  0  0  0
 29 31  1  0  0  0  0
 31 32  1  0  0  0  0
 31 33  1  0  0  0  0
 33 34  1  0  0  0  0
 33 35  1  0  0  0  0
 33 36  1  0  0  0  0
M  CHG  1  20   1
M  END
$$$$

  -OEChem-02172215453D

 36 35  0     1  0  0  0  0  0999 V2000
   -4.2876   -2.0339    0.5791 H   0  0  0  0  0  0  0  0  0  0  0  0
   -4.1469   -1.0044    0.2369 C   0  0  0  0  0  0  0  0  0  0  0  0
   -4.9866   -0.3993    0.5869 H   0  0  0  0  0  0  0  0  0  0  0  0
   -4.1320   -0.9998   -0.8558 H   0  0  0  0  0  0  0  0  0  0  0  0
   -2.8421   -0.4471    0.7744 C   0  0  0  0  0  0  0  0  0  0  0  0
   -2.1943   -1.1359    1.5454 O   0  0  0  0  0  0  0  0  0  0  0  0
   -2.4765    0.8390    0.4003 N   0  0  0  0  0  0  0  0  0  0  0  0
   -3.1142    1.2498   -0.2772 H   0  0  0  0  0  0  0  0  0  0  0  0
   -1.1642    1.5221    0.5315 C   0  0  1  0  0  0  0  0  0  0  0  0
   -1.3700    2.5543    0.8295 H   0  0  0  0  0  0  0  0  0  0  0  0
   -0.1734    0.9623    1.5801 C   0  0  0  0  0  0  0  0  0  0  0  0
    0.0330   -0.0934    1.3754 H   0  0  0  0  0  0  0  0  0  0  0  0
    0.7796    1.4915    1.4671 H   0  0  0  0  0  0  0  0  0  0  0  0
   -0.6511    1.1461    3.0282 C   0  0  0  0  0  0  0  0  0  0  0  0
   -0.7857    2.2114    3.2406 H   0  0  0  0  0  0  0  0  0  0  0  0
   -1.6115    0.6478    3.1879 H   0  0  0  0  0  0  0  0  0  0  0  0
    0.4015    0.5559    3.9610 C   0  0  0  0  0  0  0  0  0  0  0  0
    0.5383   -0.5015    3.7072 H   0  0  0  0  0  0  0  0  0  0  0  0
    1.3526    1.0767    3.8044 H   0  0  0  0  0  0  0  0  0  0  0  0
   -0.0236    0.6863    5.3660 N   0  3  0  0  0  0  0  0  0  0  0  0
   -0.9201    1.1377    5.5399 H   0  0  0  0  0  0  0  0  0  0  0  0
    0.6622    0.2136    6.3660 C   0  0  0  0  0  0  0  0  0  0  0  0
    1.8521   -0.4516    6.1760 N   0  0  0  0  0  0  0  0  0  0  0  0
    2.0904   -0.7220    5.2235 H   0  0  0  0  0  0  0  0  0  0  0  0
    2.2159   -1.0220    6.9364 H   0  0  0  0  0  0  0  0  0  0  0  0
    0.1927    0.3706    7.6481 N   0  0  0  0  0  0  0  0  0  0  0  0
   -0.5879    1.0036    7.8104 H   0  0  0  0  0  0  0  0  0  0  0  0
    0.8247    0.1809    8.4237 H   0  0  0  0  0  0  0  0  0  0  0  0
   -0.4800    1.5898   -0.8538 C   0  0  0  0  0  0  0  0  0  0  0  0
    0.2638    0.6962   -1.2321 O   0  0  0  0  0  0  0  0  0  0  0  0
   -0.7015    2.6746   -1.6843 N   0  0  0  0  0  0  0  0  0  0  0  0
   -1.3081    3.4179   -1.3512 H   0  0  0  0  0  0  0  0  0  0  0  0
   -0.0907    2.8067   -3.0038 C   0  0  0  0  0  0  0  0  0  0  0  0
   -0.3884    1.9737   -3.6498 H   0  0  0  0  0  0  0  0  0  0  0  0
   -0.4080    3.7407   -3.4779 H   0  0  0  0  0  0  0  0  0  0  0  0
    1.0015    2.8152   -2.9227 H   0  0  0  0  0  0  0  0  0  0  0  0
  1  2  1  0  0  0  0
  2  3  1  0  0  0  0
  2  4  1  0  0  0  0
  2  5  1  0  0  0  0
  5  6  2  0  0  0  0
  5  7  1  0  0  0  0
  7  8  1  0  0  0  0
  7  9  1  0  0  0  0
  9 10  1  0  0  0  0
  9 11  1  0  0  0  0
  9 29  1  0  0  0  0
 11 12  1  0  0  0  0
 11 13  1  0  0  0  0
 11 14  1  0  0  0  0
 14 15  1  0  0  0  0
 14 16  1  0  0  0  0
 14 17  1  0  0  0  0
 17 18  1  0  0  0  0
 17 19  1  0  0  0  0
 17 20  1  0  0  0  0
 20 21  1  0  0  0  0
 20 22  2  0  0  0  0
 22 23  1  0  0  0  0
 22 26  1  0  0  0  0
 23 24  1  0  0  0  0
 23 25  1  0  0  0  0
 26 27  1  0  0  0  0
 26 28  1  0  0  0  0
 29 30  2  0  0  0  0
 29 31  1  0  0  0  0
 31 32  1  0  0  0  0
 31 33  1  0  0  0  0
 33 34  1  0  0  0  0
 33 35  1  0  0  0  0
 33 36  1  0  0  0  0
M  CHG  1  20   1
M  END
$$$$

  -OEChem-02172215453D

 36 35  0     1  0  0  0  0  0999 V2000
   -4.2734   -2.0281    0.5614 H   0  0  0  0  0  0  0  0  0  0  0  0
   -4.1306   -1.0007    0.2140 C   0  0  0  0  0  0  0  0  0  0  0  0
   -4.9822   -0.3980    0.5381 H   0  0  0  0  0  0  0  0  0  0  0  0
   -4.0892   -1.0054   -0.8781 H   0  0  0  0  0  0  0  0  0  0  0  0
   -2.8427   -0.4304    0.7776 C   0  0  0  0  0  0  0  0  0  0  0  0
   -2.2054   -1.1104    1.5656 O   0  0  0  0  0  0  0  0  0  0  0  0
   -2.4798    0.8562    0.4037 N   0  0  0  0  0  0  0  0  0  0  0  0
   -3.1016    1.2517   -0.2976 H   0  0  0  0  0  0  0  0  0  0  0  0
   -1.1688    1.5401    0.5400 C   0  0  1  0  0  0  0  0  0  0  0  0
   -1.3801    2.5700    0.8412 H   0  0  0  0  0  0  0  0  0  0  0  0
   -0.1754    0.9789    1.5835 C   0  0  0  0  0  0  0  0  0  0  0  0
    0.0326   -0.0755    1.3730 H   0  0  0  0  0  0  0  0  0  0  0  0
    0.7760    1.5108    1.4712 H   0  0  0  0  0  0  0  0  0  0  0  0
   -0.6520    1.1544    3.0335 C   0  0  0  0  0  0  0  0  0  0  0  0
   -0.7881    2.2191    3.2493 H   0  0  0  0  0  0  0  0  0  0  0  0
   -1.6117    0.6557    3.1939 H   0  0  0  0  0  0  0  0  0  0  0  0
    0.4023    0.5634    3.9642 C   0  0  0  0  0  0  0  0  0  0  0  0
    0.5417   -0.4927    3.7069 H   0  0  0  0  0  0  0  0  0  0  0  0
    1.3523    1.0867    3.8100 H   0  0  0  0  0  0  0  0  0  0  0  0
   -0.0227    0.6863    5.3698 N   0  3  0  0  0  0  0  0  0  0  0  0
   -0.9224    1.1302    5.5464 H   0  0  0  0  0  0  0  0  0  0  0  0
    0.6662    0.2105    6.3661 C   0  0  0  0  0  0  0  0  0  0  0  0
    1.8577   -0.4498    6.1697 N   0  0  0  0  0  0  0  0  0  0  0  0
    2.0942   -0.7127    5.2147 H   0  0  0  0  0  0  0  0  0  0  0  0
    2.2196   -1.0291    6.9242 H   0  0  0  0  0  0  0  0  0  0  0  0
    0.1982    0.3569    7.6498 N   0  0  0  0  0  0  0  0  0  0  0  0
   -0.5862    0.9837    7.8175 H   0  0  0  0  0  0  0  0  0  0  0  0
    0.8330    0.1667    8.4229 H   0  0  0  0  0  0  0  0  0  0  0  0
   -0.4772    1.6089   -0.8403 C   0  0  0  0  0  0  0  0  0  0  0  0
    0.0157    0.6060   -1.3357 O   0  0  0  0  0  0  0  0  0  0  0  0
   -0.4299    2.7999   -1.5437 N   0  0  0  0  0  0  0  0  0  0  0  0
   -0.8583    3.6213   -1.1274 H   0  0  0  0  0  0  0  0  0  0  0  0
    0.1809    2.9215   -2.8645 C   0  0  0  0  0  0  0  0  0  0  0  0
   -0.3262    2.2694   -3.5838 H   0  0  0  0  0  0  0  0  0  0  0  0
    0.1086    3.9528   -3.2237 H   0  0  0  0  0  0  0  0  0  0  0  0
    1.2399    2.6440   -2.8253 H   0  0  0  0  0  0  0  0  0  0  0  0
  1  2  1  0  0  0  0
  2  3  1  0  0  0  0
  2  4  1  0  0  0  0
  2  5  1  0  0  0  0
  5  6  2  0  0  0  0
  5  7  1  0  0  0  0
  7  8  1  0  0  0  0
  7  9  1  0  0  0  0
  9 10  1  0  0  0  0
  9 11  1  0  0  0  0
  9 29  1  0  0  0  0
 11 12  1  0  0  0  0
 11 13  1  0  0  0  0
 11 14  1  0  0  0  0
 14 15  1  0  0  0  0
 14 16  1  0  0  0  0
 14 17  1  0  0  0  0
 17 18  1  0  0  0  0
 17 19  1  0  0  0  0
 17 20  1  0  0  0  0
 20 21  1  0  0  0  0
 20 22  2  0  0  0  0
 22 23  1  0  0  0  0
 22 26  1  0  0  0  0
 23 24  1  0  0  0  0
 23 25  1  0  0  0  0
 26 27  1  0  0  0  0
 26 28  1  0  0  0  0
 29 30  2  0  0  0  0
 29 31  1  0  0  0  0
 31 32  1  0  0  0  0
 31 33  1  0  0  0  0
 33 34  1  0  0  0  0
 33 35  1  0  0  0  0
 33 36  1  0  0  0  0
M  CHG  1  20   1
M  END
$$$$

  -OEChem-02172215453D

 36 35  0     1  0  0  0  0  0999 V2000
   -4.2556   -2.0242    0.5507 H   0  0  0  0  0  0  0  0  0  0  0  0
   -4.1157   -0.9950    0.2073 C   0  0  0  0  0  0  0  0  0  0  0  0
   -4.9728   -0.3973    0.5260 H   0  0  0  0  0  0  0  0  0  0  0  0
   -4.0646   -0.9957   -0.8845 H   0  0  0  0  0  0  0  0  0  0  0  0
   -2.8362   -0.4193    0.7837 C   0  0  0  0  0  0  0  0  0  0  0  0
   -2.2056   -1.0965    1.5800 O   0  0  0  0  0  0  0  0  0  0  0  0
   -2.4725    0.8674    0.4111 N   0  0  0  0  0  0  0  0  0  0  0  0
   -3.0802    1.2506   -0.3093 H   0  0  0  0  0  0  0  0  0  0  0  0
   -1.1580    1.5456    0.5438 C   0  0  1  0  0  0  0  0  0  0  0  0
   -1.3687    2.5747    0.8481 H   0  0  0  0  0  0  0  0  0  0  0  0
   -0.1614    0.9778    1.5785 C   0  0  0  0  0  0  0  0  0  0  0  0
    0.0402   -0.0766    1.3625 H   0  0  0  0  0  0  0  0  0  0  0  0
    0.7918    1.5060    1.4650 H   0  0  0  0  0  0  0  0  0  0  0  0
   -0.6355    1.1529    3.0300 C   0  0  0  0  0  0  0  0  0  0  0  0
   -0.7667    2.2179    3.2463 H   0  0  0  0  0  0  0  0  0  0  0  0
   -1.5981    0.6608    3.1910 H   0  0  0  0  0  0  0  0  0  0  0  0
    0.4139    0.5584    3.9634 C   0  0  0  0  0  0  0  0  0  0  0  0
    0.5490   -0.4988    3.7078 H   0  0  0  0  0  0  0  0  0  0  0  0
    1.3667    1.0778    3.8127 H   0  0  0  0  0  0  0  0  0  0  0  0
   -0.0191    0.6863    5.3663 N   0  3  0  0  0  0  0  0  0  0  0  0
   -0.9193    1.1324    5.5361 H   0  0  0  0  0  0  0  0  0  0  0  0
    0.6600    0.2108    6.3694 C   0  0  0  0  0  0  0  0  0  0  0  0
    1.8501   -0.4551    6.1846 N   0  0  0  0  0  0  0  0  0  0  0  0
    2.0921   -0.7243    5.2328 H   0  0  0  0  0  0  0  0  0  0  0  0
    2.2043   -1.0321    6.9446 H   0  0  0  0  0  0  0  0  0  0  0  0
    0.1824    0.3628    7.6492 N   0  0  0  0  0  0  0  0  0  0  0  0
   -0.6021    0.9918    7.8092 H   0  0  0  0  0  0  0  0  0  0  0  0
    0.8088    0.1696    8.4286 H   0  0  0  0  0  0  0  0  0  0  0  0
   -0.4674    1.6185   -0.8364 C   0  0  0  0  0  0  0  0  0  0  0  0
   -0.2490    0.5952   -1.4685 O   0  0  0  0  0  0  0  0  0  0  0  0
   -0.1384    2.8403   -1.3967 N   0  0  0  0  0  0  0  0  0  0  0  0
   -0.3612    3.6835   -0.8762 H   0  0  0  0  0  0  0  0  0  0  0  0
    0.4580    2.9733   -2.7228 C   0  0  0  0  0  0  0  0  0  0  0  0
   -0.2076    2.5571   -3.4866 H   0  0  0  0  0  0  0  0  0  0  0  0
    0.6342    4.0278   -2.9569 H   0  0  0  0  0  0  0  0  0  0  0  0
    1.4167    2.4454   -2.7679 H   0  0  0  0  0  0  0  0  0  0  0  0
  1  2  1  0  0  0  0
  2  3  1  0  0  0  0
  2  4  1  0  0  0  0
  2  5  1  0  0  0  0
  5  6  2  0  0  0  0
  5  7  1  0  0  0  0
  7  8  1  0  0  0  0
  7  9  1  0  0  0  0
  9 10  1  0  0  0  0
  9 11  1  0  0  0  0
  9 29  1  0  0  0  0
 11 12  1  0  0  0  0
 11 13  1  0  0  0  0
 11 14  1  0  0  0  0
 14 15  1  0  0  0  0
 14 16  1  0  0  0  0
 14 17  1  0  0  0  0
 17 18  1  0  0  0  0
 17 19  1  0  0  0  0
 17 20  1  0  0  0  0
 20 21  1  0  0  0  0
 20 22  2  0  0  0  0
 22 23  1  0  0  0  0
 22 26  1  0  0  0  0
 23 24  1  0  0  0  0
 23 25  1  0  0  0  0
 26 27  1  0  0  0  0
 26 28  1  0  0  0  0
 29 30  2  0  0  0  0
 29 31  1  0  0  0  0
 31 32  1  0  0  0  0
 31 33  1  0  0  0  0
 33 34  1  0  0  0  0
 33 35  1  0  0  0  0
 33 36  1  0  0  0  0
M  CHG  1  20   1
M  END
$$$$

  -OEChem-02172215453D

 36 35  0     1  0  0  0  0  0999 V2000
   -4.2475   -2.0218    0.5212 H   0  0  0  0  0  0  0  0  0  0  0  0
   -4.1035   -0.9914    0.1839 C   0  0  0  0  0  0  0  0  0  0  0  0
   -4.9705   -0.3981    0.4833 H   0  0  0  0  0  0  0  0  0  0  0  0
   -4.0272   -0.9899   -0.9064 H   0  0  0  0  0  0  0  0  0  0  0  0
   -2.8400   -0.4110    0.7905 C   0  0  0  0  0  0  0  0  0  0  0  0
   -2.2225   -1.0855    1.5999 O   0  0  0  0  0  0  0  0  0  0  0  0
   -2.4708    0.8745    0.4209 N   0  0  0  0  0  0  0  0  0  0  0  0
   -3.0563    1.2422   -0.3258 H   0  0  0  0  0  0  0  0  0  0  0  0
   -1.1492    1.5401    0.5477 C   0  0  1  0  0  0  0  0  0  0  0  0
   -1.3535    2.5706    0.8522 H   0  0  0  0  0  0  0  0  0  0  0  0
   -0.1534    0.9666    1.5792 C   0  0  0  0  0  0  0  0  0  0  0  0
    0.0368   -0.0905    1.3659 H   0  0  0  0  0  0  0  0  0  0  0  0
    0.8044    1.4855    1.4623 H   0  0  0  0  0  0  0  0  0  0  0  0
   -0.6226    1.1513    3.0318 C   0  0  0  0  0  0  0  0  0  0  0  0
   -0.7437    2.2183    3.2444 H   0  0  0  0  0  0  0  0  0  0  0  0
   -1.5897    0.6692    3.1971 H   0  0  0  0  0  0  0  0  0  0  0  0
    0.4222    0.5518    3.9677 C   0  0  0  0  0  0  0  0  0  0  0  0
    0.5486   -0.5078    3.7177 H   0  0  0  0  0  0  0  0  0  0  0  0
    1.3792    1.0624    3.8144 H   0  0  0  0  0  0  0  0  0  0  0  0
   -0.0108    0.6911    5.3696 N   0  3  0  0  0  0  0  0  0  0  0  0
   -0.9080    1.1448    5.5348 H   0  0  0  0  0  0  0  0  0  0  0  0
    0.6621    0.2158    6.3770 C   0  0  0  0  0  0  0  0  0  0  0  0
    1.8466   -0.4617    6.1988 N   0  0  0  0  0  0  0  0  0  0  0  0
    2.0891   -0.7381    5.2493 H   0  0  0  0  0  0  0  0  0  0  0  0
    2.1956   -1.0355    6.9636 H   0  0  0  0  0  0  0  0  0  0  0  0
    0.1816    0.3794    7.6543 N   0  0  0  0  0  0  0  0  0  0  0  0
   -0.6006    1.0126    7.8079 H   0  0  0  0  0  0  0  0  0  0  0  0
    0.8034    0.1864    8.4373 H   0  0  0  0  0  0  0  0  0  0  0  0
   -0.4620    1.6170   -0.8349 C   0  0  0  0  0  0  0  0  0  0  0  0
   -0.5229    0.6700   -1.6063 O   0  0  0  0  0  0  0  0  0  0  0  0
    0.1505    2.7856   -1.2524 N   0  0  0  0  0  0  0  0  0  0  0  0
    0.1446    3.5820   -0.6223 H   0  0  0  0  0  0  0  0  0  0  0  0
    0.7397    2.9462   -2.5790 C   0  0  0  0  0  0  0  0  0  0  0  0
   -0.0198    2.8071   -3.3560 H   0  0  0  0  0  0  0  0  0  0  0  0
    1.1645    3.9490   -2.6882 H   0  0  0  0  0  0  0  0  0  0  0  0
    1.5395    2.2143   -2.7355 H   0  0  0  0  0  0  0  0  0  0  0  0
  1  2  1  0  0  0  0
  2  3  1  0  0  0  0
  2  4  1  0  0  0  0
  2  5  1  0  0  0  0
  5  6  2  0  0  0  0
  5  7  1  0  0  0  0
  7  8  1  0  0  0  0
  7  9  1  0  0  0  0
  9 10  1  0  0  0  0
  9 11  1  0  0  0  0
  9 29  1  0  0  0  0
 11 12  1  0  0  0  0
 11 13  1  0  0  0  0
 11 14  1  0  0  0  0
 14 15  1  0  0  0  0
 14 16  1  0  0  0  0
 14 17  1  0  0  0  0
 17 18  1  0  0  0  0
 17 19  1  0  0  0  0
 17 20  1  0  0  0  0
 20 21  1  0  0  0  0
 20 22  2  0  0  0  0
 22 23  1  0  0  0  0
 22 26  1  0  0  0  0
 23 24  1  0  0  0  0
 23 25  1  0  0  0  0
 26 27  1  0  0  0  0
 26 28  1  0  0  0  0
 29 30  2  0  0  0  0
 29 31  1  0  0  0  0
 31 32  1  0  0  0  0
 31 33  1  0  0  0  0
 33 34  1  0  0  0  0
 33 35  1  0  0  0  0
 33 36  1  0  0  0  0
M  CHG  1  20   1
M  END
$$$$

  -OEChem-02172215453D

 36 35  0     1  0  0  0  0  0999 V2000
   -4.2393   -2.0178    0.5245 H   0  0  0  0  0  0  0  0  0  0  0  0
   -4.0924   -0.9874    0.1883 C   0  0  0  0  0  0  0  0  0  0  0  0
   -4.9592   -0.3925    0.4855 H   0  0  0  0  0  0  0  0  0  0  0  0
   -4.0120   -0.9845   -0.9019 H   0  0  0  0  0  0  0  0  0  0  0  0
   -2.8298   -0.4093    0.7991 C   0  0  0  0  0  0  0  0  0  0  0  0
   -2.2119   -1.0878    1.6051 O   0  0  0  0  0  0  0  0  0  0  0  0
   -2.4577    0.8756    0.4316 N   0  0  0  0  0  0  0  0  0  0  0  0
   -3.0302    1.2330   -0.3309 H   0  0  0  0  0  0  0  0  0  0  0  0
   -1.1320    1.5355    0.5481 C   0  0  1  0  0  0  0  0  0  0  0  0
   -1.3298    2.5677    0.8513 H   0  0  0  0  0  0  0  0  0  0  0  0
   -0.1376    0.9545    1.5779 C   0  0  0  0  0  0  0  0  0  0  0  0
    0.0441   -0.1046    1.3670 H   0  0  0  0  0  0  0  0  0  0  0  0
    0.8246    1.4647    1.4617 H   0  0  0  0  0  0  0  0  0  0  0  0
   -0.6065    1.1477    3.0296 C   0  0  0  0  0  0  0  0  0  0  0  0
   -0.7196    2.2165    3.2374 H   0  0  0  0  0  0  0  0  0  0  0  0
   -1.5782    0.6753    3.1947 H   0  0  0  0  0  0  0  0  0  0  0  0
    0.4295    0.5435    3.9726 C   0  0  0  0  0  0  0  0  0  0  0  0
    0.5473   -0.5184    3.7283 H   0  0  0  0  0  0  0  0  0  0  0  0
    1.3920    1.0447    3.8219 H   0  0  0  0  0  0  0  0  0  0  0  0
   -0.0092    0.6937    5.3717 N   0  3  0  0  0  0  0  0  0  0  0  0
   -0.9031    1.1564    5.5306 H   0  0  0  0  0  0  0  0  0  0  0  0
    0.6545    0.2176    6.3849 C   0  0  0  0  0  0  0  0  0  0  0  0
    1.8340   -0.4714    6.2170 N   0  0  0  0  0  0  0  0  0  0  0  0
    2.0757   -0.7612    5.2712 H   0  0  0  0  0  0  0  0  0  0  0  0
    2.1747   -1.0409    6.9887 H   0  0  0  0  0  0  0  0  0  0  0  0
    0.1684    0.3909    7.6587 N   0  0  0  0  0  0  0  0  0  0  0  0
   -0.6121    1.0278    7.8061 H   0  0  0  0  0  0  0  0  0  0  0  0
    0.7824    0.1930    8.4466 H   0  0  0  0  0  0  0  0  0  0  0  0
   -0.4545    1.6171   -0.8408 C   0  0  0  0  0  0  0  0  0  0  0  0
   -0.7580    0.8273   -1.7250 O   0  0  0  0  0  0  0  0  0  0  0  0
    0.4142    2.6526   -1.1392 N   0  0  0  0  0  0  0  0  0  0  0  0
    0.6029    3.3425   -0.4185 H   0  0  0  0  0  0  0  0  0  0  0  0
    1.0042    2.8416   -2.4615 C   0  0  0  0  0  0  0  0  0  0  0  0
    0.2218    2.9902   -3.2137 H   0  0  0  0  0  0  0  0  0  0  0  0
    1.6566    3.7202   -2.4648 H   0  0  0  0  0  0  0  0  0  0  0  0
    1.6014    1.9679   -2.7446 H   0  0  0  0  0  0  0  0  0  0  0  0
  1  2  1  0  0  0  0
  2  3  1  0  0  0  0
  2  4  1  0  0  0  0
  2  5  1  0  0  0  0
  5  6  2  0  0  0  0
  5  7  1  0  0  0  0
  7  8  1  0  0  0  0
  7  9  1  0  0  0  0
  9 10  1  0  0  0  0
  9 11  1  0  0  0  0
  9 29  1  0  0  0  0
 11 12  1  0  0  0  0
 11 13  1  0  0  0  0
 11 14  1  0  0  0  0
 14 15  1  0  0  0  0
 14 16  1  0  0  0  0
 14 17  1  0  0  0  0
 17 18  1  0  0  0  0
 17 19  1  0  0  0  0
 17 20  1  0  0  0  0
 20 21  1  0  0  0  0
 20 22  2  0  0  0  0
 22 23  1  0  0  0  0
 22 26  1  0  0  0  0
 23 24  1  0  0  0  0
 23 25  1  0  0  0  0
 26 27  1  0  0  0  0
 26 28  1  0  0  0  0
 29 30  2  0  0  0  0
 29 31  1  0  0  0  0
 31 32  1  0  0  0  0
 31 33  1  0  0  0  0
 33 34  1  0  0  0  0
 33 35  1  0  0  0  0
 33 36  1  0  0  0  0
M  CHG  1  20   1
M  END
$$$$

  -OEChem-02172215453D

 36 35  0     1  0  0  0  0  0999 V2000
   -4.2374   -2.0072    0.5332 H   0  0  0  0  0  0  0  0  0  0  0  0
   -4.0822   -0.9781    0.1970 C   0  0  0  0  0  0  0  0  0  0  0  0
   -4.9427   -0.3756    0.4971 H   0  0  0  0  0  0  0  0  0  0  0  0
   -4.0058   -0.9743   -0.8934 H   0  0  0  0  0  0  0  0  0  0  0  0
   -2.8125   -0.4112    0.8031 C   0  0  0  0  0  0  0  0  0  0  0  0
   -2.1883   -1.0991    1.5963 O   0  0  0  0  0  0  0  0  0  0  0  0
   -2.4390    0.8751    0.4435 N   0  0  0  0  0  0  0  0  0  0  0  0
   -3.0047    1.2303   -0.3262 H   0  0  0  0  0  0  0  0  0  0  0  0
   -1.1128    1.5357    0.5533 C   0  0  1  0  0  0  0  0  0  0  0  0
   -1.3066    2.5685    0.8582 H   0  0  0  0  0  0  0  0  0  0  0  0
   -0.1188    0.9476    1.5818 C   0  0  0  0  0  0  0  0  0  0  0  0
    0.0596   -0.1113    1.3690 H   0  0  0  0  0  0  0  0  0  0  0  0
    0.8460    1.4532    1.4722 H   0  0  0  0  0  0  0  0  0  0  0  0
   -0.5910    1.1416    3.0328 C   0  0  0  0  0  0  0  0  0  0  0  0
   -0.7016    2.2108    3.2408 H   0  0  0  0  0  0  0  0  0  0  0  0
   -1.5649    0.6716    3.1938 H   0  0  0  0  0  0  0  0  0  0  0  0
    0.4378    0.5342    3.9814 C   0  0  0  0  0  0  0  0  0  0  0  0
    0.5526   -0.5285    3.7387 H   0  0  0  0  0  0  0  0  0  0  0  0
    1.4025    1.0328    3.8364 H   0  0  0  0  0  0  0  0  0  0  0  0
   -0.0102    0.6883    5.3771 N   0  3  0  0  0  0  0  0  0  0  0  0
   -0.9059    1.1502    5.5274 H   0  0  0  0  0  0  0  0  0  0  0  0
    0.6425    0.2126    6.3975 C   0  0  0  0  0  0  0  0  0  0  0  0
    1.8212   -0.4809    6.2425 N   0  0  0  0  0  0  0  0  0  0  0  0
    2.0753   -0.7685    5.2993 H   0  0  0  0  0  0  0  0  0  0  0  0
    2.1541   -1.0496    7.0183 H   0  0  0  0  0  0  0  0  0  0  0  0
    0.1435    0.3894    7.6661 N   0  0  0  0  0  0  0  0  0  0  0  0
   -0.6373    1.0282    7.8041 H   0  0  0  0  0  0  0  0  0  0  0  0
    0.7488    0.1922    8.4609 H   0  0  0  0  0  0  0  0  0  0  0  0
   -0.4509    1.6254   -0.8453 C   0  0  0  0  0  0  0  0  0  0  0  0
   -0.9496    1.0471   -1.8027 O   0  0  0  0  0  0  0  0  0  0  0  0
    0.6324    2.4590   -1.0652 N   0  0  0  0  0  0  0  0  0  0  0  0
    0.9969    2.9886   -0.2797 H   0  0  0  0  0  0  0  0  0  0  0  0
    1.2330    2.6545   -2.3817 C   0  0  0  0  0  0  0  0  0  0  0  0
    0.5011    3.0752   -3.0797 H   0  0  0  0  0  0  0  0  0  0  0  0
    2.0805    3.3437   -2.3150 H   0  0  0  0  0  0  0  0  0  0  0  0
    1.5938    1.7017   -2.7844 H   0  0  0  0  0  0  0  0  0  0  0  0
  1  2  1  0  0  0  0
  2  3  1  0  0  0  0
  2  4  1  0  0  0  0
  2  5  1  0  0  0  0
  5  6  2  0  0  0  0
  5  7  1  0  0  0  0
  7  8  1  0  0  0  0
  7  9  1  0  0  0  0
  9 10  1  0  0  0  0
  9 11  1  0  0  0  0
  9 29  1  0  0  0  0
 11 12  1  0  0  0  0
 11 13  1  0  0  0  0
 11 14  1  0  0  0  0
 14 15  1  0  0  0  0
 14 16  1  0  0  0  0
 14 17  1  0  0  0  0
 17 18  1  0  0  0  0
 17 19  1  0  0  0  0
 17 20  1  0  0  0  0
 20 21  1  0  0  0  0
 20 22  2  0  0  0  0
 22 23  1  0  0  0  0
 22 26  1  0  0  0  0
 23 24  1  0  0  0  0
 23 25  1  0  0  0  0
 26 27  1  0  0  0  0
 26 28  1  0  0  0  0
 29 30  2  0  0  0  0
 29 31  1  0  0  0  0
 31 32  1  0  0  0  0
 31 33  1  0  0  0  0
 33 34  1  0  0  0  0
 33 35  1  0  0  0  0
 33 36  1  0  0  0  0
M  CHG  1  20   1
M  END
$$$$

  -OEChem-02172215453D

 36 35  0     1  0  0  0  0  0999 V2000
   -4.4400   -1.8718    0.6118 H   0  0  0  0  0  0  0  0  0  0  0  0
   -4.2281   -0.8435    0.3054 C   0  0  0  0  0  0  0  0  0  0  0  0
   -4.9567   -0.1791    0.7757 H   0  0  0  0  0  0  0  0  0  0  0  0
   -4.3303   -0.7736   -0.7807 H   0  0  0  0  0  0  0  0  0  0  0  0
   -2.8223   -0.4495    0.7178 C   0  0  0  0  0  0  0  0  0  0  0  0
   -2.1225   -1.2867    1.2662 O   0  0  0  0  0  0  0  0  0  0  0  0
   -2.3905    0.8310    0.4093 N   0  0  0  0  0  0  0  0  0  0  0  0
   -3.0199    1.3139   -0.2326 H   0  0  0  0  0  0  0  0  0  0  0  0
   -1.0468    1.4577    0.4987 C   0  0  1  0  0  0  0  0  0  0  0  0
   -1.1908    2.3839    1.0632 H   0  0  0  0  0  0  0  0  0  0  0  0
    0.0598    0.6821    1.2561 C   0  0  0  0  0  0  0  0  0  0  0  0
    0.1755   -0.3120    0.8115 H   0  0  0  0  0  0  0  0  0  0  0  0
    1.0155    1.1996    1.1304 H   0  0  0  0  0  0  0  0  0  0  0  0
   -0.2150    0.5652    2.7685 C   0  0  0  0  0  0  0  0  0  0  0  0
   -0.2679    1.5706    3.1995 H   0  0  0  0  0  0  0  0  0  0  0  0
   -1.1690    0.0774    2.9740 H   0  0  0  0  0  0  0  0  0  0  0  0
    0.9170   -0.2131    3.4333 C   0  0  0  0  0  0  0  0  0  0  0  0
    0.9835   -1.2031    2.9681 H   0  0  0  0  0  0  0  0  0  0  0  0
    1.8644    0.3129    3.2719 H   0  0  0  0  0  0  0  0  0  0  0  0
    0.6466   -0.3494    4.8760 N   0  3  0  0  0  0  0  0  0  0  0  0
   -0.1924    0.1048    5.2338 H   0  0  0  0  0  0  0  0  0  0  0  0
    1.4097   -1.0151    5.6933 C   0  0  0  0  0  0  0  0  0  0  0  0
    2.5496   -1.6531    5.2589 N   0  0  0  0  0  0  0  0  0  0  0  0
    2.6933   -1.7491    4.2555 H   0  0  0  0  0  0  0  0  0  0  0  0
    3.0229   -2.3047    5.8811 H   0  0  0  0  0  0  0  0  0  0  0  0
    1.0759   -1.0851    7.0253 N   0  0  0  0  0  0  0  0  0  0  0  0
    0.1660   -0.7486    7.3347 H   0  0  0  0  0  0  0  0  0  0  0  0
    1.6134   -1.6860    7.6471 H   0  0  0  0  0  0  0  0  0  0  0  0
   -0.5973    1.9293   -0.9089 C   0  0  0  0  0  0  0  0  0  0  0  0
   -1.3768    1.8560   -1.8512 O   0  0  0  0  0  0  0  0  0  0  0  0
    0.6239    2.5504   -1.1104 N   0  0  0  0  0  0  0  0  0  0  0  0
    1.2488    2.6467   -0.3167 H   0  0  0  0  0  0  0  0  0  0  0  0
    1.0454    3.0815   -2.4040 C   0  0  0  0  0  0  0  0  0  0  0  0
    0.3262    3.8230   -2.7689 H   0  0  0  0  0  0  0  0  0  0  0  0
    2.0230    3.5659   -2.3170 H   0  0  0  0  0  0  0  0  0  0  0  0
    1.1233    2.2759   -3.1420 H   0  0  0  0  0  0  0  0  0  0  0  0
  1  2  1  0  0  0  0
  2  3  1  0  0  0  0
  2  4  1  0  0  0  0
  2  5  1  0  0  0  0
  5  6  2  0  0  0  0
  5  7  1  0  0  0  0
  7  8  1  0  0  0  0
  7  9  1  0  0  0  0
  9 10  1  0  0  0  0
  9 11  1  0  0  0  0
  9 29  1  0  0  0  0
 11 12  1  0  0  0  0
 11 13  1  0  0  0  0
 11 14  1  0  0  0  0
 14 15  1  0  0  0  0
 14 16  1  0  0  0  0
 14 17  1  0  0  0  0
 17 18  1  0  0  0  0
 17 19  1  0  0  0  0
 17 20  1  0  0  0  0
 20 21  1  0  0  0  0
 20 22  2  0  0  0  0
 22 23  1  0  0  0  0
 22 26  1  0  0  0  0
 23 24  1  0  0  0  0
 23 25  1  0  0  0  0
 26 27  1  0  0  0  0
 26 28  1  0  0  0  0
 29 30  2  0  0  0  0
 29 31  1  0  0  0  0
 31 32  1  0  0  0  0
 31 33  1  0  0  0  0
 33 34  1  0  0  0  0
 33 35  1  0  0  0  0
 33 36  1  0  0  0  0
M  CHG  1  20   1
M  END
$$$$

  -OEChem-02172215453D

 36 35  0     1  0  0  0  0  0999 V2000
   -4.4154   -1.8669    0.5989 H   0  0  0  0  0  0  0  0  0  0  0  0
   -4.2015   -0.8371    0.2990 C   0  0  0  0  0  0  0  0  0  0  0  0
   -4.9272   -0.1739    0.7757 H   0  0  0  0  0  0  0  0  0  0  0  0
   -4.3062   -0.7591   -0.7862 H   0  0  0  0  0  0  0  0  0  0  0  0
   -2.7941   -0.4489    0.7109 C   0  0  0  0  0  0  0  0  0  0  0  0
   -2.0900   -1.2938    1.2421 O   0  0  0  0  0  0  0  0  0  0  0  0
   -2.3618    0.8348    0.4173 N   0  0  0  0  0  0  0  0  0  0  0  0
   -2.9987    1.3377   -0.2023 H   0  0  0  0  0  0  0  0  0  0  0  0
   -1.0190    1.4611    0.5125 C   0  0  1  0  0  0  0  0  0  0  0  0
   -1.1606    2.3856    1.0809 H   0  0  0  0  0  0  0  0  0  0  0  0
    0.0835    0.6797    1.2715 C   0  0  0  0  0  0  0  0  0  0  0  0
    0.2036   -0.3124    0.8237 H   0  0  0  0  0  0  0  0  0  0  0  0
    1.0395    1.1996    1.1594 H   0  0  0  0  0  0  0  0  0  0  0  0
   -0.2023    0.5594    2.7810 C   0  0  0  0  0  0  0  0  0  0  0  0
   -0.2584    1.5635    3.2143 H   0  0  0  0  0  0  0  0  0  0  0  0
   -1.1589    0.0715    2.9756 H   0  0  0  0  0  0  0  0  0  0  0  0
    0.9219   -0.2233    3.4536 C   0  0  0  0  0  0  0  0  0  0  0  0
    0.9901   -1.2127    2.9873 H   0  0  0  0  0  0  0  0  0  0  0  0
    1.8721    0.3007    3.3025 H   0  0  0  0  0  0  0  0  0  0  0  0
    0.6378   -0.3608    4.8935 N   0  3  0  0  0  0  0  0  0  0  0  0
   -0.2000    0.0999    5.2457 H   0  0  0  0  0  0  0  0  0  0  0  0
    1.3913   -1.0300    5.7165 C   0  0  0  0  0  0  0  0  0  0  0  0
    2.5331   -1.6712    5.2917 N   0  0  0  0  0  0  0  0  0  0  0  0
    2.6853   -1.7684    4.2899 H   0  0  0  0  0  0  0  0  0  0  0  0
    3.0030   -2.3195    5.9196 H   0  0  0  0  0  0  0  0  0  0  0  0
    1.0463   -1.0990    7.0456 N   0  0  0  0  0  0  0  0  0  0  0  0
    0.1359   -0.7573    7.3475 H   0  0  0  0  0  0  0  0  0  0  0  0
    1.5725   -1.7075    7.6697 H   0  0  0  0  0  0  0  0  0  0  0  0
   -0.5873    1.9430   -0.8978 C   0  0  0  0  0  0  0  0  0  0  0  0
   -1.4435    2.1066   -1.7592 O   0  0  0  0  0  0  0  0  0  0  0  0
    0.7203    2.2880   -1.1951 N   0  0  0  0  0  0  0  0  0  0  0  0
    1.4251    2.1525   -0.4782 H   0  0  0  0  0  0  0  0  0  0  0  0
    1.1379    2.7831   -2.5038 C   0  0  0  0  0  0  0  0  0  0  0  0
    0.5778    3.6862   -2.7703 H   0  0  0  0  0  0  0  0  0  0  0  0
    2.2039    3.0304   -2.4948 H   0  0  0  0  0  0  0  0  0  0  0  0
    0.9654    2.0239   -3.2742 H   0  0  0  0  0  0  0  0  0  0  0  0
  1  2  1  0  0  0  0
  2  3  1  0  0  0  0
  2  4  1  0  0  0  0
  2  5  1  0  0  0  0
  5  6  2  0  0  0  0
  5  7  1  0  0  0  0
  7  8  1  0  0  0  0
  7  9  1  0  0  0  0
  9 10  1  0  0  0  0
  9 11  1  0  0  0  0
  9 29  1  0  0  0  0
 11 12  1  0  0  0  0
 11 13  1  0  0  0  0
 11 14  1  0  0  0  0
 14 15  1  0  0  0  0
 14 16  1  0  0  0  0
 14 17  1  0  0  0  0
 17 18  1  0  0  0  0
 17 19  1  0  0  0  0
 17 20  1  0  0  0  0
 20 21  1  0  0  0  0
 20 22  2  0  0  0  0
 22 23  1  0  0  0  0
 22 26  1  0  0  0  0
 23 24  1  0  0  0  0
 23 25  1  0  0  0  0
 26 27  1  0  0  0  0
 26 28  1  0  0  0  0
 29 30  2  0  0  0  0
 29 31  1  0  0  0  0
 31 32  1  0  0  0  0
 31 33  1  0  0  0  0
 33 34  1  0  0  0  0
 33 35  1  0  0  0  0
 33 36  1  0  0  0  0
M  CHG  1  20   1
M  END
$$$$

  -OEChem-02172215453D

 36 35  0     1  0  0  0  0  0999 V2000
   -4.4020   -1.8595    0.6113 H   0  0  0  0  0  0  0  0  0  0  0  0
   -4.1881   -0.8312    0.3069 C   0  0  0  0  0  0  0  0  0  0  0  0
   -4.9015   -0.1639    0.7964 H   0  0  0  0  0  0  0  0  0  0  0  0
   -4.3118   -0.7529   -0.7762 H   0  0  0  0  0  0  0  0  0  0  0  0
   -2.7708   -0.4528    0.6931 C   0  0  0  0  0  0  0  0  0  0  0  0
   -2.0574   -1.3056    1.1982 O   0  0  0  0  0  0  0  0  0  0  0  0
   -2.3376    0.8332    0.4130 N   0  0  0  0  0  0  0  0  0  0  0  0
   -2.9889    1.3639   -0.1673 H   0  0  0  0  0  0  0  0  0  0  0  0
   -0.9955    1.4574    0.5191 C   0  0  1  0  0  0  0  0  0  0  0  0
   -1.1380    2.3788    1.0923 H   0  0  0  0  0  0  0  0  0  0  0  0
    0.1054    0.6759    1.2792 C   0  0  0  0  0  0  0  0  0  0  0  0
    0.2356   -0.3133    0.8279 H   0  0  0  0  0  0  0  0  0  0  0  0
    1.0576    1.2050    1.1780 H   0  0  0  0  0  0  0  0  0  0  0  0
   -0.1927    0.5515    2.7853 C   0  0  0  0  0  0  0  0  0  0  0  0
   -0.2578    1.5539    3.2215 H   0  0  0  0  0  0  0  0  0  0  0  0
   -1.1490    0.0572    2.9666 H   0  0  0  0  0  0  0  0  0  0  0  0
    0.9268   -0.2294    3.4672 C   0  0  0  0  0  0  0  0  0  0  0  0
    1.0029   -1.2180    3.0004 H   0  0  0  0  0  0  0  0  0  0  0  0
    1.8764    0.2984    3.3260 H   0  0  0  0  0  0  0  0  0  0  0  0
    0.6287   -0.3693    4.9040 N   0  3  0  0  0  0  0  0  0  0  0  0
   -0.2173    0.0840    5.2464 H   0  0  0  0  0  0  0  0  0  0  0  0
    1.3746   -1.0373    5.7352 C   0  0  0  0  0  0  0  0  0  0  0  0
    2.5229   -1.6759    5.3241 N   0  0  0  0  0  0  0  0  0  0  0  0
    2.6904   -1.7692    4.3244 H   0  0  0  0  0  0  0  0  0  0  0  0
    2.9867   -2.3239    5.9570 H   0  0  0  0  0  0  0  0  0  0  0  0
    1.0127   -1.1095    7.0597 N   0  0  0  0  0  0  0  0  0  0  0  0
    0.1037   -0.7577    7.3542 H   0  0  0  0  0  0  0  0  0  0  0  0
    1.5339   -1.7137    7.6920 H   0  0  0  0  0  0  0  0  0  0  0  0
   -0.5676    1.9486   -0.8878 C   0  0  0  0  0  0  0  0  0  0  0  0
   -1.4350    2.3401   -1.6591 O   0  0  0  0  0  0  0  0  0  0  0  0
    0.7556    2.0107   -1.2913 N   0  0  0  0  0  0  0  0  0  0  0  0
    1.4602    1.6301   -0.6683 H   0  0  0  0  0  0  0  0  0  0  0  0
    1.1641    2.4619   -2.6186 C   0  0  0  0  0  0  0  0  0  0  0  0
    0.7946    3.4750   -2.8112 H   0  0  0  0  0  0  0  0  0  0  0  0
    2.2555    2.4745   -2.6972 H   0  0  0  0  0  0  0  0  0  0  0  0
    0.7686    1.7923   -3.3898 H   0  0  0  0  0  0  0  0  0  0  0  0
  1  2  1  0  0  0  0
  2  3  1  0  0  0  0
  2  4  1  0  0  0  0
  2  5  1  0  0  0  0
  5  6  2  0  0  0  0
  5  7  1  0  0  0  0
  7  8  1  0  0  0  0
  7  9  1  0  0  0  0
  9 10  1  0  0  0  0
  9 11  1  0  0  0  0
  9 29  1  0  0  0  0
 11 12  1  0  0  0  0
 11 13  1  0  0  0  0
 11 14  1  0  0  0  0
 14 15  1  0  0  0  0
 14 16  1  0  0  0  0
 14 17  1  0  0  0  0
 17 18  1  0  0  0  0
 17 19  1  0  0  0  0
 17 20  1  0  0  0  0
 20 21  1  0  0  0  0
 20 22  2  0  0  0  0
 22 23  1  0  0  0  0
 22 26  1  0  0  0  0
 23 24  1  0  0  0  0
 23 25  1  0  0  0  0
 26 27  1  0  0  0  0
 26 28  1  0  0  0  0
 29 30  2  0  0  0  0
 29 31  1  0  0  0  0
 31 32  1  0  0  0  0
 31 33  1  0  0  0  0
 33 34  1  0  0  0  0
 33 35  1  0  0  0  0
 33 36  1  0  0  0  0
M  CHG  1  20   1
M  END
$$$$

  -OEChem-02172215453D

 36 35  0     1  0  0  0  0  0999 V2000
   -4.3979   -1.8549    0.6145 H   0  0  0  0  0  0  0  0  0  0  0  0
   -4.1828   -0.8265    0.3109 C   0  0  0  0  0  0  0  0  0  0  0  0
   -4.8852   -0.1576    0.8141 H   0  0  0  0  0  0  0  0  0  0  0  0
   -4.3235   -0.7433   -0.7699 H   0  0  0  0  0  0  0  0  0  0  0  0
   -2.7577   -0.4564    0.6764 C   0  0  0  0  0  0  0  0  0  0  0  0
   -2.0374   -1.3140    1.1631 O   0  0  0  0  0  0  0  0  0  0  0  0
   -2.3228    0.8297    0.4009 N   0  0  0  0  0  0  0  0  0  0  0  0
   -2.9861    1.3808   -0.1454 H   0  0  0  0  0  0  0  0  0  0  0  0
   -0.9818    1.4508    0.5192 C   0  0  1  0  0  0  0  0  0  0  0  0
   -1.1276    2.3723    1.0918 H   0  0  0  0  0  0  0  0  0  0  0  0
    0.1169    0.6721    1.2848 C   0  0  0  0  0  0  0  0  0  0  0  0
    0.2527   -0.3173    0.8356 H   0  0  0  0  0  0  0  0  0  0  0  0
    1.0668    1.2075    1.1856 H   0  0  0  0  0  0  0  0  0  0  0  0
   -0.1895    0.5453    2.7887 C   0  0  0  0  0  0  0  0  0  0  0  0
   -0.2612    1.5472    3.2248 H   0  0  0  0  0  0  0  0  0  0  0  0
   -1.1455    0.0464    2.9611 H   0  0  0  0  0  0  0  0  0  0  0  0
    0.9281   -0.2326    3.4774 C   0  0  0  0  0  0  0  0  0  0  0  0
    1.0100   -1.2207    3.0106 H   0  0  0  0  0  0  0  0  0  0  0  0
    1.8771    0.2976    3.3420 H   0  0  0  0  0  0  0  0  0  0  0  0
    0.6217   -0.3744    4.9122 N   0  3  0  0  0  0  0  0  0  0  0  0
   -0.2246    0.0807    5.2513 H   0  0  0  0  0  0  0  0  0  0  0  0
    1.3650   -1.0408    5.7471 C   0  0  0  0  0  0  0  0  0  0  0  0
    2.5176   -1.6755    5.3423 N   0  0  0  0  0  0  0  0  0  0  0  0
    2.6922   -1.7667    4.3435 H   0  0  0  0  0  0  0  0  0  0  0  0
    2.9796   -2.3227    5.9775 H   0  0  0  0  0  0  0  0  0  0  0  0
    0.9980   -1.1114    7.0703 N   0  0  0  0  0  0  0  0  0  0  0  0
    0.0903   -0.7558    7.3643 H   0  0  0  0  0  0  0  0  0  0  0  0
    1.5290   -1.6971    7.7118 H   0  0  0  0  0  0  0  0  0  0  0  0
   -0.5473    1.9401   -0.8830 C   0  0  0  0  0  0  0  0  0  0  0  0
   -1.3672    2.5414   -1.5649 O   0  0  0  0  0  0  0  0  0  0  0  0
    0.7214    1.7248   -1.3933 N   0  0  0  0  0  0  0  0  0  0  0  0
    1.3488    1.1312   -0.8605 H   0  0  0  0  0  0  0  0  0  0  0  0
    1.1184    2.1360   -2.7364 C   0  0  0  0  0  0  0  0  0  0  0  0
    0.9753    3.2144   -2.8658 H   0  0  0  0  0  0  0  0  0  0  0  0
    2.1748    1.9076   -2.9075 H   0  0  0  0  0  0  0  0  0  0  0  0
    0.5236    1.6099   -3.4909 H   0  0  0  0  0  0  0  0  0  0  0  0
  1  2  1  0  0  0  0
  2  3  1  0  0  0  0
  2  4  1  0  0  0  0
  2  5  1  0  0  0  0
  5  6  2  0  0  0  0
  5  7  1  0  0  0  0
  7  8  1  0  0  0  0
  7  9  1  0  0  0  0
  9 10  1  0  0  0  0
  9 11  1  0  0  0  0
  9 29  1  0  0  0  0
 11 12  1  0  0  0  0
 11 13  1  0  0  0  0
 11 14  1  0  0  0  0
 14 15  1  0  0  0  0
 14 16  1  0  0  0  0
 14 17  1  0  0  0  0
 17 18  1  0  0  0  0
 17 19  1  0  0  0  0
 17 20  1  0  0  0  0
 20 21  1  0  0  0  0
 20 22  2  0  0  0  0
 22 23  1  0  0  0  0
 22 26  1  0  0  0  0
 23 24  1  0  0  0  0
 23 25  1  0  0  0  0
 26 27  1  0  0  0  0
 26 28  1  0  0  0  0
 29 30  2  0  0  0  0
 29 31  1  0  0  0  0
 31 32  1  0  0  0  0
 31 33  1  0  0  0  0
 33 34  1  0  0  0  0
 33 35  1  0  0  0  0
 33 36  1  0  0  0  0
M  CHG  1  20   1
M  END
$$$$

  -OEChem-02172215453D

 36 35  0     1  0  0  0  0  0999 V2000
   -4.4057   -1.8506    0.6421 H   0  0  0  0  0  0  0  0  0  0  0  0
   -4.1898   -0.8244    0.3318 C   0  0  0  0  0  0  0  0  0  0  0  0
   -4.8741   -0.1495    0.8515 H   0  0  0  0  0  0  0  0  0  0  0  0
   -4.3566   -0.7412   -0.7451 H   0  0  0  0  0  0  0  0  0  0  0  0
   -2.7530   -0.4647    0.6610 C   0  0  0  0  0  0  0  0  0  0  0  0
   -2.0244   -1.3270    1.1268 O   0  0  0  0  0  0  0  0  0  0  0  0
   -2.3167    0.8202    0.3829 N   0  0  0  0  0  0  0  0  0  0  0  0
   -2.9961    1.3908   -0.1212 H   0  0  0  0  0  0  0  0  0  0  0  0
   -0.9770    1.4407    0.5114 C   0  0  1  0  0  0  0  0  0  0  0  0
   -1.1274    2.3634    1.0811 H   0  0  0  0  0  0  0  0  0  0  0  0
    0.1207    0.6679    1.2829 C   0  0  0  0  0  0  0  0  0  0  0  0
    0.2643   -0.3218    0.8375 H   0  0  0  0  0  0  0  0  0  0  0  0
    1.0678    1.2087    1.1822 H   0  0  0  0  0  0  0  0  0  0  0  0
   -0.1928    0.5415    2.7848 C   0  0  0  0  0  0  0  0  0  0  0  0
   -0.2727    1.5433    3.2205 H   0  0  0  0  0  0  0  0  0  0  0  0
   -1.1465    0.0356    2.9504 H   0  0  0  0  0  0  0  0  0  0  0  0
    0.9258   -0.2305    3.4789 C   0  0  0  0  0  0  0  0  0  0  0  0
    1.0148   -1.2180    3.0123 H   0  0  0  0  0  0  0  0  0  0  0  0
    1.8721    0.3057    3.3477 H   0  0  0  0  0  0  0  0  0  0  0  0
    0.6163   -0.3745    4.9130 N   0  3  0  0  0  0  0  0  0  0  0  0
   -0.2332    0.0761    5.2500 H   0  0  0  0  0  0  0  0  0  0  0  0
    1.3614   -1.0372    5.7496 C   0  0  0  0  0  0  0  0  0  0  0  0
    2.5185   -1.6650    5.3470 N   0  0  0  0  0  0  0  0  0  0  0  0
    2.6972   -1.7517    4.3487 H   0  0  0  0  0  0  0  0  0  0  0  0
    2.9828   -2.3102    5.9825 H   0  0  0  0  0  0  0  0  0  0  0  0
    0.9922   -1.1123    7.0720 N   0  0  0  0  0  0  0  0  0  0  0  0
    0.0833   -0.7598    7.3661 H   0  0  0  0  0  0  0  0  0  0  0  0
    1.5306   -1.6885    7.7162 H   0  0  0  0  0  0  0  0  0  0  0  0
   -0.5260    1.9232   -0.8849 C   0  0  0  0  0  0  0  0  0  0  0  0
   -1.2407    2.7189   -1.4787 O   0  0  0  0  0  0  0  0  0  0  0  0
    0.6227    1.4543   -1.4985 N   0  0  0  0  0  0  0  0  0  0  0  0
    1.1167    0.6916   -1.0455 H   0  0  0  0  0  0  0  0  0  0  0  0
    1.0095    1.8312   -2.8546 C   0  0  0  0  0  0  0  0  0  0  0  0
    1.1121    2.9187   -2.9365 H   0  0  0  0  0  0  0  0  0  0  0  0
    1.9697    1.3758   -3.1167 H   0  0  0  0  0  0  0  0  0  0  0  0
    0.2573    1.4945   -3.5760 H   0  0  0  0  0  0  0  0  0  0  0  0
  1  2  1  0  0  0  0
  2  3  1  0  0  0  0
  2  4  1  0  0  0  0
  2  5  1  0  0  0  0
  5  6  2  0  0  0  0
  5  7  1  0  0  0  0
  7  8  1  0  0  0  0
  7  9  1  0  0  0  0
  9 10  1  0  0  0  0
  9 11  1  0  0  0  0
  9 29  1  0  0  0  0
 11 12  1  0  0  0  0
 11 13  1  0  0  0  0
 11 14  1  0  0  0  0
 14 15  1  0  0  0  0
 14 16  1  0  0  0  0
 14 17  1  0  0  0  0
 17 18  1  0  0  0  0
 17 19  1  0  0  0  0
 17 20  1  0  0  0  0
 20 21  1  0  0  0  0
 20 22  2  0  0  0  0
 22 23  1  0  0  0  0
 22 26  1  0  0  0  0
 23 24  1  0  0  0  0
 23 25  1  0  0  0  0
 26 27  1  0  0  0  0
 26 28  1  0  0  0  0
 29 30  2  0  0  0  0
 29 31  1  0  0  0  0
 31 32  1  0  0  0  0
 31 33  1  0  0  0  0
 33 34  1  0  0  0  0
 33 35  1  0  0  0  0
 33 36  1  0  0  0  0
M  CHG  1  20   1
M  END
$$$$

  -OEChem-02172215453D

 36 35  0     1  0  0  0  0  0999 V2000
   -4.4111   -1.8538    0.6667 H   0  0  0  0  0  0  0  0  0  0  0  0
   -4.2018   -0.8265    0.3552 C   0  0  0  0  0  0  0  0  0  0  0  0
   -4.8736   -0.1527    0.8924 H   0  0  0  0  0  0  0  0  0  0  0  0
   -4.3930   -0.7398   -0.7174 H   0  0  0  0  0  0  0  0  0  0  0  0
   -2.7575   -0.4709    0.6541 C   0  0  0  0  0  0  0  0  0  0  0  0
   -2.0196   -1.3363    1.0984 O   0  0  0  0  0  0  0  0  0  0  0  0
   -2.3204    0.8116    0.3664 N   0  0  0  0  0  0  0  0  0  0  0  0
   -3.0145    1.3966   -0.0987 H   0  0  0  0  0  0  0  0  0  0  0  0
   -0.9810    1.4307    0.5014 C   0  0  1  0  0  0  0  0  0  0  0  0
   -1.1347    2.3556    1.0674 H   0  0  0  0  0  0  0  0  0  0  0  0
    0.1156    0.6635    1.2783 C   0  0  0  0  0  0  0  0  0  0  0  0
    0.2637   -0.3278    0.8376 H   0  0  0  0  0  0  0  0  0  0  0  0
    1.0610    1.2076    1.1743 H   0  0  0  0  0  0  0  0  0  0  0  0
   -0.2010    0.5393    2.7791 C   0  0  0  0  0  0  0  0  0  0  0  0
   -0.2882    1.5409    3.2137 H   0  0  0  0  0  0  0  0  0  0  0  0
   -1.1521    0.0269    2.9414 H   0  0  0  0  0  0  0  0  0  0  0  0
    0.9205   -0.2278    3.4731 C   0  0  0  0  0  0  0  0  0  0  0  0
    1.0130   -1.2153    3.0069 H   0  0  0  0  0  0  0  0  0  0  0  0
    1.8646    0.3116    3.3390 H   0  0  0  0  0  0  0  0  0  0  0  0
    0.6136   -0.3725    4.9076 N   0  3  0  0  0  0  0  0  0  0  0  0
   -0.2328    0.0817    5.2478 H   0  0  0  0  0  0  0  0  0  0  0  0
    1.3628   -1.0322    5.7427 C   0  0  0  0  0  0  0  0  0  0  0  0
    2.5215   -1.6555    5.3370 N   0  0  0  0  0  0  0  0  0  0  0  0
    2.7005   -1.7380    4.3382 H   0  0  0  0  0  0  0  0  0  0  0  0
    2.9888   -2.3011    5.9698 H   0  0  0  0  0  0  0  0  0  0  0  0
    0.9961   -1.1070    7.0658 N   0  0  0  0  0  0  0  0  0  0  0  0
    0.0892   -0.7521    7.3629 H   0  0  0  0  0  0  0  0  0  0  0  0
    1.5415   -1.6736    7.7125 H   0  0  0  0  0  0  0  0  0  0  0  0
   -0.5084    1.9013   -0.8892 C   0  0  0  0  0  0  0  0  0  0  0  0
   -1.0594    2.8688   -1.3941 O   0  0  0  0  0  0  0  0  0  0  0  0
    0.4590    1.2163   -1.6028 N   0  0  0  0  0  0  0  0  0  0  0  0
    0.7756    0.3291   -1.2230 H   0  0  0  0  0  0  0  0  0  0  0  0
    0.8378    1.5696   -2.9672 C   0  0  0  0  0  0  0  0  0  0  0  0
    1.1891    2.6063   -3.0122 H   0  0  0  0  0  0  0  0  0  0  0  0
    1.6446    0.9187   -3.3181 H   0  0  0  0  0  0  0  0  0  0  0  0
   -0.0162    1.4594   -3.6442 H   0  0  0  0  0  0  0  0  0  0  0  0
  1  2  1  0  0  0  0
  2  3  1  0  0  0  0
  2  4  1  0  0  0  0
  2  5  1  0  0  0  0
  5  6  2  0  0  0  0
  5  7  1  0  0  0  0
  7  8  1  0  0  0  0
  7  9  1  0  0  0  0
  9 10  1  0  0  0  0
  9 11  1  0  0  0  0
  9 29  1  0  0  0  0
 11 12  1  0  0  0  0
 11 13  1  0  0  0  0
 11 14  1  0  0  0  0
 14 15  1  0  0  0  0
 14 16  1  0  0  0  0
 14 17  1  0  0  0  0
 17 18  1  0  0  0  0
 17 19  1  0  0  0  0
 17 20  1  0  0  0  0
 20 21  1  0  0  0  0
 20 22  2  0  0  0  0
 22 23  1  0  0  0  0
 22 26  1  0  0  0  0
 23 24  1  0  0  0  0
 23 25  1  0  0  0  0
 26 27  1  0  0  0  0
 26 28  1  0  0  0  0
 29 30  2  0  0  0  0
 29 31  1  0  0  0  0
 31 32  1  0  0  0  0
 31 33  1  0  0  0  0
 33 34  1  0  0  0  0
 33 35  1  0  0  0  0
 33 36  1  0  0  0  0
M  CHG  1  20   1
M  END
$$$$

  -OEChem-02172215453D

 36 35  0     1  0  0  0  0  0999 V2000
   -4.4154   -1.8736    0.6200 H   0  0  0  0  0  0  0  0  0  0  0  0
   -4.2189   -0.8310    0.3541 C   0  0  0  0  0  0  0  0  0  0  0  0
   -4.8807   -0.1878    0.9391 H   0  0  0  0  0  0  0  0  0  0  0  0
   -4.4357   -0.6942   -0.7084 H   0  0  0  0  0  0  0  0  0  0  0  0
   -2.7703   -0.4805    0.6358 C   0  0  0  0  0  0  0  0  0  0  0  0
   -2.0264   -1.3505    1.0601 O   0  0  0  0  0  0  0  0  0  0  0  0
   -2.3320    0.8005    0.3443 N   0  0  0  0  0  0  0  0  0  0  0  0
   -3.0365    1.3975   -0.0877 H   0  0  0  0  0  0  0  0  0  0  0  0
   -0.9944    1.4197    0.4942 C   0  0  1  0  0  0  0  0  0  0  0  0
   -1.1559    2.3439    1.0597 H   0  0  0  0  0  0  0  0  0  0  0  0
    0.1001    0.6557    1.2763 C   0  0  0  0  0  0  0  0  0  0  0  0
    0.2562   -0.3330    0.8333 H   0  0  0  0  0  0  0  0  0  0  0  0
    1.0435    1.2040    1.1755 H   0  0  0  0  0  0  0  0  0  0  0  0
   -0.2223    0.5237    2.7752 C   0  0  0  0  0  0  0  0  0  0  0  0
   -0.3173    1.5229    3.2137 H   0  0  0  0  0  0  0  0  0  0  0  0
   -1.1710    0.0042    2.9298 H   0  0  0  0  0  0  0  0  0  0  0  0
    0.9016   -0.2408    3.4700 C   0  0  0  0  0  0  0  0  0  0  0  0
    1.0007   -1.2253    2.9990 H   0  0  0  0  0  0  0  0  0  0  0  0
    1.8428    0.3051    3.3411 H   0  0  0  0  0  0  0  0  0  0  0  0
    0.5966   -0.3970    4.9039 N   0  3  0  0  0  0  0  0  0  0  0  0
   -0.2722    0.0155    5.2404 H   0  0  0  0  0  0  0  0  0  0  0  0
    1.3527   -1.0582    5.7319 C   0  0  0  0  0  0  0  0  0  0  0  0
    2.5146   -1.6711    5.3215 N   0  0  0  0  0  0  0  0  0  0  0  0
    2.6790   -1.7484    4.3198 H   0  0  0  0  0  0  0  0  0  0  0  0
    2.9353   -2.3712    5.9291 H   0  0  0  0  0  0  0  0  0  0  0  0
    0.9923   -1.1548    7.0547 N   0  0  0  0  0  0  0  0  0  0  0  0
    0.2368   -0.5667    7.4016 H   0  0  0  0  0  0  0  0  0  0  0  0
    1.6847   -1.4877    7.7235 H   0  0  0  0  0  0  0  0  0  0  0  0
   -0.4950    1.8826   -0.8880 C   0  0  0  0  0  0  0  0  0  0  0  0
   -0.8209    2.9881   -1.2940 O   0  0  0  0  0  0  0  0  0  0  0  0
    0.2440    1.0411   -1.6998 N   0  0  0  0  0  0  0  0  0  0  0  0
    0.3547    0.0797   -1.3893 H   0  0  0  0  0  0  0  0  0  0  0  0
    0.6123    1.3818   -3.0702 C   0  0  0  0  0  0  0  0  0  0  0  0
    1.1795    2.3186   -3.0948 H   0  0  0  0  0  0  0  0  0  0  0  0
    1.2345    0.5929   -3.5039 H   0  0  0  0  0  0  0  0  0  0  0  0
   -0.2828    1.4978   -3.6906 H   0  0  0  0  0  0  0  0  0  0  0  0
  1  2  1  0  0  0  0
  2  3  1  0  0  0  0
  2  4  1  0  0  0  0
  2  5  1  0  0  0  0
  5  6  2  0  0  0  0
  5  7  1  0  0  0  0
  7  8  1  0  0  0  0
  7  9  1  0  0  0  0
  9 10  1  0  0  0  0
  9 11  1  0  0  0  0
  9 29  1  0  0  0  0
 11 12  1  0  0  0  0
 11 13  1  0  0  0  0
 11 14  1  0  0  0  0
 14 15  1  0  0  0  0
 14 16  1  0  0  0  0
 14 17  1  0  0  0  0
 17 18  1  0  0  0  0
 17 19  1  0  0  0  0
 17 20  1  0  0  0  0
 20 21  1  0  0  0  0
 20 22  2  0  0  0  0
 22 23  1  0  0  0  0
 22 26  1  0  0  0  0
 23 24  1  0  0  0  0
 23 25  1  0  0  0  0
 26 27  1  0  0  0  0
 26 28  1  0  0  0  0
 29 30  2  0  0  0  0
 29 31  1  0  0  0  0
 31 32  1  0  0  0  0
 31 33  1  0  0  0  0
 33 34  1  0  0  0  0
 33 35  1  0  0  0  0
 33 36  1  0  0  0  0
M  CHG  1  20   1
M  END
$$$$

  -OEChem-02172215453D

 36 35  0     1  0  0  0  0  0999 V2000
   -4.4395   -1.8840    0.6699 H   0  0  0  0  0  0  0  0  0  0  0  0
   -4.2529   -0.8400    0.4020 C   0  0  0  0  0  0  0  0  0  0  0  0
   -4.9001   -0.2008    1.0071 H   0  0  0  0  0  0  0  0  0  0  0  0
   -4.4997   -0.7011   -0.6535 H   0  0  0  0  0  0  0  0  0  0  0  0
   -2.7979   -0.4875    0.6458 C   0  0  0  0  0  0  0  0  0  0  0  0
   -2.0432   -1.3567    1.0510 O   0  0  0  0  0  0  0  0  0  0  0  0
   -2.3629    0.7897    0.3323 N   0  0  0  0  0  0  0  0  0  0  0  0
   -3.0816    1.3909   -0.0680 H   0  0  0  0  0  0  0  0  0  0  0  0
   -1.0270    1.4155    0.4816 C   0  0  1  0  0  0  0  0  0  0  0  0
   -1.1932    2.3441    1.0388 H   0  0  0  0  0  0  0  0  0  0  0  0
    0.0709    0.6599    1.2645 C   0  0  0  0  0  0  0  0  0  0  0  0
    0.2327   -0.3279    0.8221 H   0  0  0  0  0  0  0  0  0  0  0  0
    1.0112    1.2132    1.1602 H   0  0  0  0  0  0  0  0  0  0  0  0
   -0.2450    0.5264    2.7637 C   0  0  0  0  0  0  0  0  0  0  0  0
   -0.3429    1.5248    3.2032 H   0  0  0  0  0  0  0  0  0  0  0  0
   -1.1894    0.0005    2.9233 H   0  0  0  0  0  0  0  0  0  0  0  0
    0.8889   -0.2313    3.4485 C   0  0  0  0  0  0  0  0  0  0  0  0
    0.9921   -1.2135    2.9735 H   0  0  0  0  0  0  0  0  0  0  0  0
    1.8252    0.3219    3.3136 H   0  0  0  0  0  0  0  0  0  0  0  0
    0.5964   -0.3927    4.8841 N   0  3  0  0  0  0  0  0  0  0  0  0
   -0.2724    0.0130    5.2288 H   0  0  0  0  0  0  0  0  0  0  0  0
    1.3644   -1.0507    5.7035 C   0  0  0  0  0  0  0  0  0  0  0  0
    2.5267   -1.6537    5.2799 N   0  0  0  0  0  0  0  0  0  0  0  0
    2.6842   -1.7206    4.2763 H   0  0  0  0  0  0  0  0  0  0  0  0
    2.9543   -2.3578    5.8778 H   0  0  0  0  0  0  0  0  0  0  0  0
    1.0139   -1.1568    7.0284 N   0  0  0  0  0  0  0  0  0  0  0  0
    0.2602   -0.5717    7.3833 H   0  0  0  0  0  0  0  0  0  0  0  0
    1.7143   -1.4855    7.6905 H   0  0  0  0  0  0  0  0  0  0  0  0
   -0.5087    1.8558   -0.8997 C   0  0  0  0  0  0  0  0  0  0  0  0
   -0.5417    3.0381   -1.2053 O   0  0  0  0  0  0  0  0  0  0  0  0
   -0.0346    0.9198   -1.8002 N   0  0  0  0  0  0  0  0  0  0  0  0
   -0.1239   -0.0595   -1.5413 H   0  0  0  0  0  0  0  0  0  0  0  0
    0.3883    1.2564   -3.1553 C   0  0  0  0  0  0  0  0  0  0  0  0
    1.1910    2.0011   -3.1329 H   0  0  0  0  0  0  0  0  0  0  0  0
    0.7610    0.3650   -3.6694 H   0  0  0  0  0  0  0  0  0  0  0  0
   -0.4510    1.6624   -3.7297 H   0  0  0  0  0  0  0  0  0  0  0  0
  1  2  1  0  0  0  0
  2  3  1  0  0  0  0
  2  4  1  0  0  0  0
  2  5  1  0  0  0  0
  5  6  2  0  0  0  0
  5  7  1  0  0  0  0
  7  8  1  0  0  0  0
  7  9  1  0  0  0  0
  9 10  1  0  0  0  0
  9 11  1  0  0  0  0
  9 29  1  0  0  0  0
 11 12  1  0  0  0  0
 11 13  1  0  0  0  0
 11 14  1  0  0  0  0
 14 15  1  0  0  0  0
 14 16  1  0  0  0  0
 14 17  1  0  0  0  0
 17 18  1  0  0  0  0
 17 19  1  0  0  0  0
 17 20  1  0  0  0  0
 20 21  1  0  0  0  0
 20 22  2  0  0  0  0
 22 23  1  0  0  0  0
 22 26  1  0  0  0  0
 23 24  1  0  0  0  0
 23 25  1  0  0  0  0
 26 27  1  0  0  0  0
 26 28  1  0  0  0  0
 29 30  2  0  0  0  0
 29 31  1  0  0  0  0
 31 32  1  0  0  0  0
 31 33  1  0  0  0  0
 33 34  1  0  0  0  0
 33 35  1  0  0  0  0
 33 36  1  0  0  0  0
M  CHG  1  20   1
M  END
$$$$

  -OEChem-02172215453D

 36 35  0     1  0  0  0  0  0999 V2000
   -4.4802   -1.8906    0.7203 H   0  0  0  0  0  0  0  0  0  0  0  0
   -4.2965   -0.8484    0.4437 C   0  0  0  0  0  0  0  0  0  0  0  0
   -4.9298   -0.2050    1.0594 H   0  0  0  0  0  0  0  0  0  0  0  0
   -4.5646   -0.7134   -0.6071 H   0  0  0  0  0  0  0  0  0  0  0  0
   -2.8355   -0.4986    0.6557 C   0  0  0  0  0  0  0  0  0  0  0  0
   -2.0742   -1.3672    1.0490 O   0  0  0  0  0  0  0  0  0  0  0  0
   -2.4036    0.7752    0.3251 N   0  0  0  0  0  0  0  0  0  0  0  0
   -3.1323    1.3774   -0.0547 H   0  0  0  0  0  0  0  0  0  0  0  0
   -1.0694    1.4079    0.4718 C   0  0  1  0  0  0  0  0  0  0  0  0
   -1.2403    2.3404    1.0208 H   0  0  0  0  0  0  0  0  0  0  0  0
    0.0323    0.6614    1.2564 C   0  0  0  0  0  0  0  0  0  0  0  0
    0.1995   -0.3258    0.8140 H   0  0  0  0  0  0  0  0  0  0  0  0
    0.9693    1.2196    1.1492 H   0  0  0  0  0  0  0  0  0  0  0  0
   -0.2768    0.5291    2.7567 C   0  0  0  0  0  0  0  0  0  0  0  0
   -0.3790    1.5274    3.1950 H   0  0  0  0  0  0  0  0  0  0  0  0
   -1.2161   -0.0038    2.9215 H   0  0  0  0  0  0  0  0  0  0  0  0
    0.8678   -0.2208    3.4312 C   0  0  0  0  0  0  0  0  0  0  0  0
    0.9730   -1.2011    2.9530 H   0  0  0  0  0  0  0  0  0  0  0  0
    1.7986    0.3390    3.2862 H   0  0  0  0  0  0  0  0  0  0  0  0
    0.5955   -0.3886    4.8701 N   0  3  0  0  0  0  0  0  0  0  0  0
   -0.2679    0.0157    5.2297 H   0  0  0  0  0  0  0  0  0  0  0  0
    1.3814   -1.0432    5.6752 C   0  0  0  0  0  0  0  0  0  0  0  0
    2.5417   -1.6340    5.2295 N   0  0  0  0  0  0  0  0  0  0  0  0
    2.6830   -1.6943    4.2231 H   0  0  0  0  0  0  0  0  0  0  0  0
    2.9872   -2.3360    5.8165 H   0  0  0  0  0  0  0  0  0  0  0  0
    1.0555   -1.1563    7.0056 N   0  0  0  0  0  0  0  0  0  0  0  0
    0.3005   -0.5823    7.3753 H   0  0  0  0  0  0  0  0  0  0  0  0
    1.7718   -1.4775    7.6543 H   0  0  0  0  0  0  0  0  0  0  0  0
   -0.5330    1.8345   -0.9064 C   0  0  0  0  0  0  0  0  0  0  0  0
   -0.2597    3.0074   -1.1109 O   0  0  0  0  0  0  0  0  0  0  0  0
   -0.3365    0.8922   -1.8985 N   0  0  0  0  0  0  0  0  0  0  0  0
   -0.6027   -0.0671   -1.6901 H   0  0  0  0  0  0  0  0  0  0  0  0
    0.1567    1.2209   -3.2314 C   0  0  0  0  0  0  0  0  0  0  0  0
    1.1461    1.6867   -3.1709 H   0  0  0  0  0  0  0  0  0  0  0  0
    0.2389    0.3153   -3.8402 H   0  0  0  0  0  0  0  0  0  0  0  0
   -0.5274    1.9137   -3.7331 H   0  0  0  0  0  0  0  0  0  0  0  0
  1  2  1  0  0  0  0
  2  3  1  0  0  0  0
  2  4  1  0  0  0  0
  2  5  1  0  0  0  0
  5  6  2  0  0  0  0
  5  7  1  0  0  0  0
  7  8  1  0  0  0  0
  7  9  1  0  0  0  0
  9 10  1  0  0  0  0
  9 11  1  0  0  0  0
  9 29  1  0  0  0  0
 11 12  1  0  0  0  0
 11 13  1  0  0  0  0
 11 14  1  0  0  0  0
 14 15  1  0  0  0  0
 14 16  1  0  0  0  0
 14 17  1  0  0  0  0
 17 18  1  0  0  0  0
 17 19  1  0  0  0  0
 17 20  1  0  0  0  0
 20 21  1  0  0  0  0
 20 22  2  0  0  0  0
 22 23  1  0  0  0  0
 22 26  1  0  0  0  0
 23 24  1  0  0  0  0
 23 25  1  0  0  0  0
 26 27  1  0  0  0  0
 26 28  1  0  0  0  0
 29 30  2  0  0  0  0
 29 31  1  0  0  0  0
 31 32  1  0  0  0  0
 31 33  1  0  0  0  0
 33 34  1  0  0  0  0
 33 35  1  0  0  0  0
 33 36  1  0  0  0  0
M  CHG  1  20   1
M  END
$$$$

  -OEChem-02172215453D

 36 35  0     1  0  0  0  0  0999 V2000
   -4.5073   -1.9050    0.7615 H   0  0  0  0  0  0  0  0  0  0  0  0
   -4.3319   -0.8618    0.4835 C   0  0  0  0  0  0  0  0  0  0  0  0
   -4.9585   -0.2218    1.1095 H   0  0  0  0  0  0  0  0  0  0  0  0
   -4.6159   -0.7264   -0.5633 H   0  0  0  0  0  0  0  0  0  0  0  0
   -2.8694   -0.5070    0.6743 C   0  0  0  0  0  0  0  0  0  0  0  0
   -2.1013   -1.3724    1.0598 O   0  0  0  0  0  0  0  0  0  0  0  0
   -2.4454    0.7664    0.3310 N   0  0  0  0  0  0  0  0  0  0  0  0
   -3.1835    1.3667   -0.0332 H   0  0  0  0  0  0  0  0  0  0  0  0
   -1.1130    1.4088    0.4677 C   0  0  1  0  0  0  0  0  0  0  0  0
   -1.2862    2.3428    1.0132 H   0  0  0  0  0  0  0  0  0  0  0  0
   -0.0056    0.6673    1.2487 C   0  0  0  0  0  0  0  0  0  0  0  0
    0.1630   -0.3190    0.8048 H   0  0  0  0  0  0  0  0  0  0  0  0
    0.9288    1.2288    1.1361 H   0  0  0  0  0  0  0  0  0  0  0  0
   -0.3018    0.5337    2.7513 C   0  0  0  0  0  0  0  0  0  0  0  0
   -0.4014    1.5315    3.1917 H   0  0  0  0  0  0  0  0  0  0  0  0
   -1.2378   -0.0023    2.9254 H   0  0  0  0  0  0  0  0  0  0  0  0
    0.8536   -0.2124    3.4122 C   0  0  0  0  0  0  0  0  0  0  0  0
    0.9583   -1.1920    2.9322 H   0  0  0  0  0  0  0  0  0  0  0  0
    1.7800    0.3517    3.2573 H   0  0  0  0  0  0  0  0  0  0  0  0
    0.5988   -0.3839    4.8534 N   0  3  0  0  0  0  0  0  0  0  0  0
   -0.2635    0.0132    5.2234 H   0  0  0  0  0  0  0  0  0  0  0  0
    1.3979   -1.0368    5.6468 C   0  0  0  0  0  0  0  0  0  0  0  0
    2.5556   -1.6213    5.1857 N   0  0  0  0  0  0  0  0  0  0  0  0
    2.6866   -1.6781    4.1775 H   0  0  0  0  0  0  0  0  0  0  0  0
    3.0114   -2.3222    5.7661 H   0  0  0  0  0  0  0  0  0  0  0  0
    1.0869   -1.1554    6.9804 N   0  0  0  0  0  0  0  0  0  0  0  0
    0.3345   -0.5843    7.3597 H   0  0  0  0  0  0  0  0  0  0  0  0
    1.8099   -1.4787    7.6206 H   0  0  0  0  0  0  0  0  0  0  0  0
   -0.5679    1.8331   -0.9085 C   0  0  0  0  0  0  0  0  0  0  0  0
   -0.0203    2.9185   -1.0297 O   0  0  0  0  0  0  0  0  0  0  0  0
   -0.6454    0.9710   -1.9862 N   0  0  0  0  0  0  0  0  0  0  0  0
   -1.0498    0.0531   -1.8181 H   0  0  0  0  0  0  0  0  0  0  0  0
   -0.0847    1.2722   -3.2988 C   0  0  0  0  0  0  0  0  0  0  0  0
    0.9999    1.4077   -3.2308 H   0  0  0  0  0  0  0  0  0  0  0  0
   -0.2877    0.4529   -3.9955 H   0  0  0  0  0  0  0  0  0  0  0  0
   -0.5284    2.1874   -3.7050 H   0  0  0  0  0  0  0  0  0  0  0  0
  1  2  1  0  0  0  0
  2  3  1  0  0  0  0
  2  4  1  0  0  0  0
  2  5  1  0  0  0  0
  5  6  2  0  0  0  0
  5  7  1  0  0  0  0
  7  8  1  0  0  0  0
  7  9  1  0  0  0  0
  9 10  1  0  0  0  0
  9 11  1  0  0  0  0
  9 29  1  0  0  0  0
 11 12  1  0  0  0  0
 11 13  1  0  0  0  0
 11 14  1  0  0  0  0
 14 15  1  0  0  0  0
 14 16  1  0  0  0  0
 14 17  1  0  0  0  0
 17 18  1  0  0  0  0
 17 19  1  0  0  0  0
 17 20  1  0  0  0  0
 20 21  1  0  0  0  0
 20 22  2  0  0  0  0
 22 23  1  0  0  0  0
 22 26  1  0  0  0  0
 23 24  1  0  0  0  0
 23 25  1  0  0  0  0
 26 27  1  0  0  0  0
 26 28  1  0  0  0  0
 29 30  2  0  0  0  0
 29 31  1  0  0  0  0
 31 32  1  0  0  0  0
 31 33  1  0  0  0  0
 33 34  1  0  0  0  0
 33 35  1  0  0  0  0
 33 36  1  0  0  0  0
M  CHG  1  20   1
M  END
$$$$

  -OEChem-02172215453D

 36 35  0     1  0  0  0  0  0999 V2000
   -4.5233   -1.9160    0.8048 H   0  0  0  0  0  0  0  0  0  0  0  0
   -4.3494   -0.8760    0.5135 C   0  0  0  0  0  0  0  0  0  0  0  0
   -4.9699   -0.2289    1.1380 H   0  0  0  0  0  0  0  0  0  0  0  0
   -4.6434   -0.7526   -0.5316 H   0  0  0  0  0  0  0  0  0  0  0  0
   -2.8849   -0.5202    0.6867 C   0  0  0  0  0  0  0  0  0  0  0  0
   -2.1150   -1.3838    1.0717 O   0  0  0  0  0  0  0  0  0  0  0  0
   -2.4666    0.7541    0.3370 N   0  0  0  0  0  0  0  0  0  0  0  0
   -3.2127    1.3537   -0.0115 H   0  0  0  0  0  0  0  0  0  0  0  0
   -1.1347    1.4042    0.4639 C   0  0  1  0  0  0  0  0  0  0  0  0
   -1.3086    2.3393    1.0070 H   0  0  0  0  0  0  0  0  0  0  0  0
   -0.0254    0.6637    1.2456 C   0  0  0  0  0  0  0  0  0  0  0  0
    0.1412   -0.3229    0.8015 H   0  0  0  0  0  0  0  0  0  0  0  0
    0.9108    1.2224    1.1322 H   0  0  0  0  0  0  0  0  0  0  0  0
   -0.3148    0.5333    2.7495 C   0  0  0  0  0  0  0  0  0  0  0  0
   -0.4127    1.5318    3.1886 H   0  0  0  0  0  0  0  0  0  0  0  0
   -1.2496   -0.0025    2.9293 H   0  0  0  0  0  0  0  0  0  0  0  0
    0.8444   -0.2118    3.4044 C   0  0  0  0  0  0  0  0  0  0  0  0
    0.9457   -1.1917    2.9245 H   0  0  0  0  0  0  0  0  0  0  0  0
    1.7701    0.3521    3.2431 H   0  0  0  0  0  0  0  0  0  0  0  0
    0.5991   -0.3818    4.8476 N   0  3  0  0  0  0  0  0  0  0  0  0
   -0.2625    0.0127    5.2224 H   0  0  0  0  0  0  0  0  0  0  0  0
    1.4040   -1.0338    5.6357 C   0  0  0  0  0  0  0  0  0  0  0  0
    2.5584   -1.6183    5.1662 N   0  0  0  0  0  0  0  0  0  0  0  0
    2.6821   -1.6739    4.1569 H   0  0  0  0  0  0  0  0  0  0  0  0
    3.0203   -2.3182    5.7433 H   0  0  0  0  0  0  0  0  0  0  0  0
    1.1043   -1.1487    6.9721 N   0  0  0  0  0  0  0  0  0  0  0  0
    0.3629   -0.5671    7.3577 H   0  0  0  0  0  0  0  0  0  0  0  0
    1.8328   -1.4738    7.6050 H   0  0  0  0  0  0  0  0  0  0  0  0
   -0.5849    1.8335   -0.9114 C   0  0  0  0  0  0  0  0  0  0  0  0
    0.1738    2.7893   -0.9806 O   0  0  0  0  0  0  0  0  0  0  0  0
   -0.9137    1.1312   -2.0560 N   0  0  0  0  0  0  0  0  0  0  0  0
   -1.4572    0.2811   -1.9338 H   0  0  0  0  0  0  0  0  0  0  0  0
   -0.3509    1.4302   -3.3686 C   0  0  0  0  0  0  0  0  0  0  0  0
    0.7354    1.2901   -3.3611 H   0  0  0  0  0  0  0  0  0  0  0  0
   -0.7806    0.7672   -4.1260 H   0  0  0  0  0  0  0  0  0  0  0  0
   -0.5692    2.4652   -3.6536 H   0  0  0  0  0  0  0  0  0  0  0  0
  1  2  1  0  0  0  0
  2  3  1  0  0  0  0
  2  4  1  0  0  0  0
  2  5  1  0  0  0  0
  5  6  2  0  0  0  0
  5  7  1  0  0  0  0
  7  8  1  0  0  0  0
  7  9  1  0  0  0  0
  9 10  1  0  0  0  0
  9 11  1  0  0  0  0
  9 29  1  0  0  0  0
 11 12  1  0  0  0  0
 11 13  1  0  0  0  0
 11 14  1  0  0  0  0
 14 15  1  0  0  0  0
 14 16  1  0  0  0  0
 14 17  1  0  0  0  0
 17 18  1  0  0  0  0
 17 19  1  0  0  0  0
 17 20  1  0  0  0  0
 20 21  1  0  0  0  0
 20 22  2  0  0  0  0
 22 23  1  0  0  0  0
 22 26  1  0  0  0  0
 23 24  1  0  0  0  0
 23 25  1  0  0  0  0
 26 27  1  0  0  0  0
 26 28  1  0  0  0  0
 29 30  2  0  0  0  0
 29 31  1  0  0  0  0
 31 32  1  0  0  0  0
 31 33  1  0  0  0  0
 33 34  1  0  0  0  0
 33 35  1  0  0  0  0
 33 36  1  0  0  0  0
M  CHG  1  20   1
M  END
$$$$

  -OEChem-02172215453D

 36 35  0     1  0  0  0  0  0999 V2000
   -4.5217   -1.9245    0.8362 H   0  0  0  0  0  0  0  0  0  0  0  0
   -4.3492   -0.8872    0.5351 C   0  0  0  0  0  0  0  0  0  0  0  0
   -4.9622   -0.2347    1.1614 H   0  0  0  0  0  0  0  0  0  0  0  0
   -4.6538   -0.7713   -0.5079 H   0  0  0  0  0  0  0  0  0  0  0  0
   -2.8823   -0.5320    0.6906 C   0  0  0  0  0  0  0  0  0  0  0  0
   -2.1104   -1.3941    1.0744 O   0  0  0  0  0  0  0  0  0  0  0  0
   -2.4708    0.7439    0.3370 N   0  0  0  0  0  0  0  0  0  0  0  0
   -3.2257    1.3449    0.0115 H   0  0  0  0  0  0  0  0  0  0  0  0
   -1.1418    1.4030    0.4588 C   0  0  1  0  0  0  0  0  0  0  0  0
   -1.3182    2.3387    0.9991 H   0  0  0  0  0  0  0  0  0  0  0  0
   -0.0337    0.6628    1.2462 C   0  0  0  0  0  0  0  0  0  0  0  0
    0.1335   -0.3244    0.8039 H   0  0  0  0  0  0  0  0  0  0  0  0
    0.9047    1.2181    1.1367 H   0  0  0  0  0  0  0  0  0  0  0  0
   -0.3243    0.5351    2.7503 C   0  0  0  0  0  0  0  0  0  0  0  0
   -0.4216    1.5342    3.1882 H   0  0  0  0  0  0  0  0  0  0  0  0
   -1.2586   -0.0012    2.9311 H   0  0  0  0  0  0  0  0  0  0  0  0
    0.8364   -0.2097    3.4035 C   0  0  0  0  0  0  0  0  0  0  0  0
    0.9373   -1.1892    2.9226 H   0  0  0  0  0  0  0  0  0  0  0  0
    1.7612    0.3547    3.2391 H   0  0  0  0  0  0  0  0  0  0  0  0
    0.5967   -0.3810    4.8476 N   0  3  0  0  0  0  0  0  0  0  0  0
   -0.2636    0.0119    5.2262 H   0  0  0  0  0  0  0  0  0  0  0  0
    1.4052   -1.0332    5.6321 C   0  0  0  0  0  0  0  0  0  0  0  0
    2.5581   -1.6161    5.1568 N   0  0  0  0  0  0  0  0  0  0  0  0
    2.6788   -1.6668    4.1470 H   0  0  0  0  0  0  0  0  0  0  0  0
    3.0193   -2.3208    5.7279 H   0  0  0  0  0  0  0  0  0  0  0  0
    1.1104   -1.1501    6.9696 N   0  0  0  0  0  0  0  0  0  0  0  0
    0.3670   -0.5730    7.3577 H   0  0  0  0  0  0  0  0  0  0  0  0
    1.8419   -1.4727    7.6004 H   0  0  0  0  0  0  0  0  0  0  0  0
   -0.5917    1.8352   -0.9189 C   0  0  0  0  0  0  0  0  0  0  0  0
    0.3234    2.6444   -0.9725 O   0  0  0  0  0  0  0  0  0  0  0  0
   -1.1362    1.3435   -2.0916 N   0  0  0  0  0  0  0  0  0  0  0  0
   -1.8038    0.5830   -2.0019 H   0  0  0  0  0  0  0  0  0  0  0  0
   -0.6072    1.6637   -3.4136 C   0  0  0  0  0  0  0  0  0  0  0  0
    0.4218    1.3017   -3.5139 H   0  0  0  0  0  0  0  0  0  0  0  0
   -1.2178    1.1937   -4.1909 H   0  0  0  0  0  0  0  0  0  0  0  0
   -0.6153    2.7465   -3.5790 H   0  0  0  0  0  0  0  0  0  0  0  0
  1  2  1  0  0  0  0
  2  3  1  0  0  0  0
  2  4  1  0  0  0  0
  2  5  1  0  0  0  0
  5  6  2  0  0  0  0
  5  7  1  0  0  0  0
  7  8  1  0  0  0  0
  7  9  1  0  0  0  0
  9 10  1  0  0  0  0
  9 11  1  0  0  0  0
  9 29  1  0  0  0  0
 11 12  1  0  0  0  0
 11 13  1  0  0  0  0
 11 14  1  0  0  0  0
 14 15  1  0  0  0  0
 14 16  1  0  0  0  0
 14 17  1  0  0  0  0
 17 18  1  0  0  0  0
 17 19  1  0  0  0  0
 17 20  1  0  0  0  0
 20 21  1  0  0  0  0
 20 22  2  0  0  0  0
 22 23  1  0  0  0  0
 22 26  1  0  0  0  0
 23 24  1  0  0  0  0
 23 25  1  0  0  0  0
 26 27  1  0  0  0  0
 26 28  1  0  0  0  0
 29 30  2  0  0  0  0
 29 31  1  0  0  0  0
 31 32  1  0  0  0  0
 31 33  1  0  0  0  0
 33 34  1  0  0  0  0
 33 35  1  0  0  0  0
 33 36  1  0  0  0  0
M  CHG  1  20   1
M  END
$$$$

  -OEChem-02172215453D

 36 35  0     1  0  0  0  0  0999 V2000
   -4.5210   -1.9109    0.9023 H   0  0  0  0  0  0  0  0  0  0  0  0
   -4.3404   -0.8879    0.5594 C   0  0  0  0  0  0  0  0  0  0  0  0
   -4.9465   -0.2056    1.1601 H   0  0  0  0  0  0  0  0  0  0  0  0
   -4.6465   -0.8111   -0.4870 H   0  0  0  0  0  0  0  0  0  0  0  0
   -2.8700   -0.5394    0.6985 C   0  0  0  0  0  0  0  0  0  0  0  0
   -2.1007   -1.4007    1.0892 O   0  0  0  0  0  0  0  0  0  0  0  0
   -2.4587    0.7346    0.3365 N   0  0  0  0  0  0  0  0  0  0  0  0
   -3.2189    1.3400    0.0333 H   0  0  0  0  0  0  0  0  0  0  0  0
   -1.1273    1.3935    0.4426 C   0  0  1  0  0  0  0  0  0  0  0  0
   -1.2982    2.3340    0.9760 H   0  0  0  0  0  0  0  0  0  0  0  0
   -0.0204    0.6540    1.2367 C   0  0  0  0  0  0  0  0  0  0  0  0
    0.1418   -0.3381    0.8035 H   0  0  0  0  0  0  0  0  0  0  0  0
    0.9221    1.2014    1.1251 H   0  0  0  0  0  0  0  0  0  0  0  0
   -0.3080    0.5447    2.7428 C   0  0  0  0  0  0  0  0  0  0  0  0
   -0.3984    1.5491    3.1694 H   0  0  0  0  0  0  0  0  0  0  0  0
   -1.2450    0.0154    2.9311 H   0  0  0  0  0  0  0  0  0  0  0  0
    0.8498   -0.2002    3.4022 C   0  0  0  0  0  0  0  0  0  0  0  0
    0.9440   -1.1855    2.9318 H   0  0  0  0  0  0  0  0  0  0  0  0
    1.7778    0.3565    3.2299 H   0  0  0  0  0  0  0  0  0  0  0  0
    0.6110   -0.3533    4.8487 N   0  3  0  0  0  0  0  0  0  0  0  0
   -0.2258    0.0843    5.2304 H   0  0  0  0  0  0  0  0  0  0  0  0
    1.4152   -1.0009    5.6413 C   0  0  0  0  0  0  0  0  0  0  0  0
    2.5647   -1.5970    5.1731 N   0  0  0  0  0  0  0  0  0  0  0  0
    2.7023   -1.6572    4.1660 H   0  0  0  0  0  0  0  0  0  0  0  0
    3.0779   -2.2375    5.7744 H   0  0  0  0  0  0  0  0  0  0  0  0
    1.1205   -1.0919    6.9812 N   0  0  0  0  0  0  0  0  0  0  0  0
    0.2277   -0.7511    7.3323 H   0  0  0  0  0  0  0  0  0  0  0  0
    1.7233   -1.6322    7.5988 H   0  0  0  0  0  0  0  0  0  0  0  0
   -0.5892    1.8212   -0.9453 C   0  0  0  0  0  0  0  0  0  0  0  0
    0.4503    2.4613   -1.0213 O   0  0  0  0  0  0  0  0  0  0  0  0
   -1.3157    1.5830   -2.0989 N   0  0  0  0  0  0  0  0  0  0  0  0
   -2.0989    0.9417   -2.0215 H   0  0  0  0  0  0  0  0  0  0  0  0
   -0.8504    1.9645   -3.4289 C   0  0  0  0  0  0  0  0  0  0  0  0
    0.0819    1.4446   -3.6739 H   0  0  0  0  0  0  0  0  0  0  0  0
   -1.6003    1.7058   -4.1830 H   0  0  0  0  0  0  0  0  0  0  0  0
   -0.6725    3.0441   -3.4784 H   0  0  0  0  0  0  0  0  0  0  0  0
  1  2  1  0  0  0  0
  2  3  1  0  0  0  0
  2  4  1  0  0  0  0
  2  5  1  0  0  0  0
  5  6  2  0  0  0  0
  5  7  1  0  0  0  0
  7  8  1  0  0  0  0
  7  9  1  0  0  0  0
  9 10  1  0  0  0  0
  9 11  1  0  0  0  0
  9 29  1  0  0  0  0
 11 12  1  0  0  0  0
 11 13  1  0  0  0  0
 11 14  1  0  0  0  0
 14 15  1  0  0  0  0
 14 16  1  0  0  0  0
 14 17  1  0  0  0  0
 17 18  1  0  0  0  0
 17 19  1  0  0  0  0
 17 20  1  0  0  0  0
 20 21  1  0  0  0  0
 20 22  2  0  0  0  0
 22 23  1  0  0  0  0
 22 26  1  0  0  0  0
 23 24  1  0  0  0  0
 23 25  1  0  0  0  0
 26 27  1  0  0  0  0
 26 28  1  0  0  0  0
 29 30  2  0  0  0  0
 29 31  1  0  0  0  0
 31 32  1  0  0  0  0
 31 33  1  0  0  0  0
 33 34  1  0  0  0  0
 33 35  1  0  0  0  0
 33 36  1  0  0  0  0
M  CHG  1  20   1
M  END
$$$$

  -OEChem-02172215453D

 36 35  0     1  0  0  0  0  0999 V2000
   -4.4929   -1.9179    0.9242 H   0  0  0  0  0  0  0  0  0  0  0  0
   -4.3175   -0.8984    0.5686 C   0  0  0  0  0  0  0  0  0  0  0  0
   -4.9204   -0.2110    1.1668 H   0  0  0  0  0  0  0  0  0  0  0  0
   -4.6321   -0.8345   -0.4761 H   0  0  0  0  0  0  0  0  0  0  0  0
   -2.8469   -0.5454    0.6909 C   0  0  0  0  0  0  0  0  0  0  0  0
   -2.0739   -1.4055    1.0770 O   0  0  0  0  0  0  0  0  0  0  0  0
   -2.4458    0.7331    0.3306 N   0  0  0  0  0  0  0  0  0  0  0  0
   -3.2163    1.3393    0.0587 H   0  0  0  0  0  0  0  0  0  0  0  0
   -1.1174    1.4001    0.4345 C   0  0  1  0  0  0  0  0  0  0  0  0
   -1.2900    2.3397    0.9684 H   0  0  0  0  0  0  0  0  0  0  0  0
   -0.0129    0.6589    1.2333 C   0  0  0  0  0  0  0  0  0  0  0  0
    0.1549   -0.3316    0.7986 H   0  0  0  0  0  0  0  0  0  0  0  0
    0.9301    1.2067    1.1315 H   0  0  0  0  0  0  0  0  0  0  0  0
   -0.3066    0.5502    2.7383 C   0  0  0  0  0  0  0  0  0  0  0  0
   -0.3974    1.5543    3.1657 H   0  0  0  0  0  0  0  0  0  0  0  0
   -1.2449    0.0219    2.9232 H   0  0  0  0  0  0  0  0  0  0  0  0
    0.8481   -0.1960    3.4006 C   0  0  0  0  0  0  0  0  0  0  0  0
    0.9424   -1.1814    2.9303 H   0  0  0  0  0  0  0  0  0  0  0  0
    1.7773    0.3598    3.2314 H   0  0  0  0  0  0  0  0  0  0  0  0
    0.6047   -0.3496    4.8460 N   0  3  0  0  0  0  0  0  0  0  0  0
   -0.2320    0.0898    5.2258 H   0  0  0  0  0  0  0  0  0  0  0  0
    1.4062   -0.9987    5.6401 C   0  0  0  0  0  0  0  0  0  0  0  0
    2.5563   -1.5957    5.1742 N   0  0  0  0  0  0  0  0  0  0  0  0
    2.6971   -1.6554    4.1673 H   0  0  0  0  0  0  0  0  0  0  0  0
    3.0735   -2.2305    5.7782 H   0  0  0  0  0  0  0  0  0  0  0  0
    1.1074   -1.0911    6.9791 N   0  0  0  0  0  0  0  0  0  0  0  0
    0.2027   -0.7713    7.3193 H   0  0  0  0  0  0  0  0  0  0  0  0
    1.6874   -1.6663    7.5868 H   0  0  0  0  0  0  0  0  0  0  0  0
   -0.5931    1.8321   -0.9607 C   0  0  0  0  0  0  0  0  0  0  0  0
    0.5453    2.2619   -1.0867 O   0  0  0  0  0  0  0  0  0  0  0  0
   -1.4389    1.8731   -2.0563 N   0  0  0  0  0  0  0  0  0  0  0  0
   -2.3284    1.3937   -1.9665 H   0  0  0  0  0  0  0  0  0  0  0  0
   -1.0025    2.2873   -3.3865 C   0  0  0  0  0  0  0  0  0  0  0  0
   -0.2256    1.6135   -3.7636 H   0  0  0  0  0  0  0  0  0  0  0  0
   -1.8446    2.2708   -4.0851 H   0  0  0  0  0  0  0  0  0  0  0  0
   -0.6001    3.3059   -3.3595 H   0  0  0  0  0  0  0  0  0  0  0  0
  1  2  1  0  0  0  0
  2  3  1  0  0  0  0
  2  4  1  0  0  0  0
  2  5  1  0  0  0  0
  5  6  2  0  0  0  0
  5  7  1  0  0  0  0
  7  8  1  0  0  0  0
  7  9  1  0  0  0  0
  9 10  1  0  0  0  0
  9 11  1  0  0  0  0
  9 29  1  0  0  0  0
 11 12  1  0  0  0  0
 11 13  1  0  0  0  0
 11 14  1  0  0  0  0
 14 15  1  0  0  0  0
 14 16  1  0  0  0  0
 14 17  1  0  0  0  0
 17 18  1  0  0  0  0
 17 19  1  0  0  0  0
 17 20  1  0  0  0  0
 20 21  1  0  0  0  0
 20 22  2  0  0  0  0
 22 23  1  0  0  0  0
 22 26  1  0  0  0  0
 23 24  1  0  0  0  0
 23 25  1  0  0  0  0
 26 27  1  0  0  0  0
 26 28  1  0  0  0  0
 29 30  2  0  0  0  0
 29 31  1  0  0  0  0
 31 32  1  0  0  0  0
 31 33  1  0  0  0  0
 33 34  1  0  0  0  0
 33 35  1  0  0  0  0
 33 36  1  0  0  0  0
M  CHG  1  20   1
M  END
$$$$

  -OEChem-02172215453D

 36 35  0     1  0  0  0  0  0999 V2000
   -4.4854   -1.9302    0.8675 H   0  0  0  0  0  0  0  0  0  0  0  0
   -4.3101   -0.9050    0.5286 C   0  0  0  0  0  0  0  0  0  0  0  0
   -4.9280   -0.2291    1.1246 H   0  0  0  0  0  0  0  0  0  0  0  0
   -4.6058   -0.8302   -0.5209 H   0  0  0  0  0  0  0  0  0  0  0  0
   -2.8442   -0.5447    0.6815 C   0  0  0  0  0  0  0  0  0  0  0  0
   -2.0772   -1.3998    1.0901 O   0  0  0  0  0  0  0  0  0  0  0  0
   -2.4437    0.7357    0.3269 N   0  0  0  0  0  0  0  0  0  0  0  0
   -3.2141    1.3347    0.0427 H   0  0  0  0  0  0  0  0  0  0  0  0
   -1.1157    1.4018    0.4346 C   0  0  1  0  0  0  0  0  0  0  0  0
   -1.2883    2.3409    0.9691 H   0  0  0  0  0  0  0  0  0  0  0  0
   -0.0153    0.6615    1.2415 C   0  0  0  0  0  0  0  0  0  0  0  0
    0.1558   -0.3295    0.8089 H   0  0  0  0  0  0  0  0  0  0  0  0
    0.9274    1.2109    1.1459 H   0  0  0  0  0  0  0  0  0  0  0  0
   -0.3137    0.5559    2.7459 C   0  0  0  0  0  0  0  0  0  0  0  0
   -0.4045    1.5600    3.1728 H   0  0  0  0  0  0  0  0  0  0  0  0
   -1.2518    0.0275    2.9302 H   0  0  0  0  0  0  0  0  0  0  0  0
    0.8414   -0.1901    3.4077 C   0  0  0  0  0  0  0  0  0  0  0  0
    0.9355   -1.1750    2.9365 H   0  0  0  0  0  0  0  0  0  0  0  0
    1.7700    0.3658    3.2367 H   0  0  0  0  0  0  0  0  0  0  0  0
    0.6035   -0.3464    4.8537 N   0  3  0  0  0  0  0  0  0  0  0  0
   -0.2356    0.0851    5.2373 H   0  0  0  0  0  0  0  0  0  0  0  0
    1.4107   -0.9970    5.6410 C   0  0  0  0  0  0  0  0  0  0  0  0
    2.5583   -1.5902    5.1643 N   0  0  0  0  0  0  0  0  0  0  0  0
    2.6910   -1.6464    4.1561 H   0  0  0  0  0  0  0  0  0  0  0  0
    3.0831   -2.2244    5.7622 H   0  0  0  0  0  0  0  0  0  0  0  0
    1.1207   -1.0966    6.9815 N   0  0  0  0  0  0  0  0  0  0  0  0
    0.2226   -0.7702    7.3324 H   0  0  0  0  0  0  0  0  0  0  0  0
    1.7066   -1.6716    7.5838 H   0  0  0  0  0  0  0  0  0  0  0  0
   -0.5987    1.8365   -0.9647 C   0  0  0  0  0  0  0  0  0  0  0  0
    0.5970    1.9907   -1.1747 O   0  0  0  0  0  0  0  0  0  0  0  0
   -1.4860    2.1766   -1.9728 N   0  0  0  0  0  0  0  0  0  0  0  0
   -2.4657    1.9624   -1.8265 H   0  0  0  0  0  0  0  0  0  0  0  0
   -1.0599    2.6129   -3.2997 C   0  0  0  0  0  0  0  0  0  0  0  0
   -0.4856    1.8248   -3.7984 H   0  0  0  0  0  0  0  0  0  0  0  0
   -1.9302    2.8508   -3.9190 H   0  0  0  0  0  0  0  0  0  0  0  0
   -0.4358    3.5102   -3.2275 H   0  0  0  0  0  0  0  0  0  0  0  0
  1  2  1  0  0  0  0
  2  3  1  0  0  0  0
  2  4  1  0  0  0  0
  2  5  1  0  0  0  0
  5  6  2  0  0  0  0
  5  7  1  0  0  0  0
  7  8  1  0  0  0  0
  7  9  1  0  0  0  0
  9 10  1  0  0  0  0
  9 11  1  0  0  0  0
  9 29  1  0  0  0  0
 11 12  1  0  0  0  0
 11 13  1  0  0  0  0
 11 14  1  0  0  0  0
 14 15  1  0  0  0  0
 14 16  1  0  0  0  0
 14 17  1  0  0  0  0
 17 18  1  0  0  0  0
 17 19  1  0  0  0  0
 17 20  1  0  0  0  0
 20 21  1  0  0  0  0
 20 22  2  0  0  0  0
 22 23  1  0  0  0  0
 22 26  1  0  0  0  0
 23 24  1  0  0  0  0
 23 25  1  0  0  0  0
 26 27  1  0  0  0  0
 26 28  1  0  0  0  0
 29 30  2  0  0  0  0
 29 31  1  0  0  0  0
 31 32  1  0  0  0  0
 31 33  1  0  0  0  0
 33 34  1  0  0  0  0
 33 35  1  0  0  0  0
 33 36  1  0  0  0  0
M  CHG  1  20   1
M  END
$$$$

  -OEChem-02172215453D

 36 35  0     1  0  0  0  0  0999 V2000
   -4.4954   -1.9404    0.7743 H   0  0  0  0  0  0  0  0  0  0  0  0
   -4.3112   -0.9138    0.4446 C   0  0  0  0  0  0  0  0  0  0  0  0
   -4.9713   -0.2439    1.0008 H   0  0  0  0  0  0  0  0  0  0  0  0
   -4.5430   -0.8432   -0.6211 H   0  0  0  0  0  0  0  0  0  0  0  0
   -2.8615   -0.5369    0.6859 C   0  0  0  0  0  0  0  0  0  0  0  0
   -2.1164   -1.3778    1.1599 O   0  0  0  0  0  0  0  0  0  0  0  0
   -2.4522    0.7424    0.3370 N   0  0  0  0  0  0  0  0  0  0  0  0
   -3.1927    1.3034   -0.0734 H   0  0  0  0  0  0  0  0  0  0  0  0
   -1.1187    1.3962    0.4430 C   0  0  1  0  0  0  0  0  0  0  0  0
   -1.2846    2.3347    0.9802 H   0  0  0  0  0  0  0  0  0  0  0  0
   -0.0177    0.6574    1.2482 C   0  0  0  0  0  0  0  0  0  0  0  0
    0.1430   -0.3376    0.8195 H   0  0  0  0  0  0  0  0  0  0  0  0
    0.9252    1.2047    1.1378 H   0  0  0  0  0  0  0  0  0  0  0  0
   -0.3054    0.5577    2.7550 C   0  0  0  0  0  0  0  0  0  0  0  0
   -0.3897    1.5638    3.1782 H   0  0  0  0  0  0  0  0  0  0  0  0
   -1.2441    0.0355    2.9511 H   0  0  0  0  0  0  0  0  0  0  0  0
    0.8520   -0.1890    3.4113 C   0  0  0  0  0  0  0  0  0  0  0  0
    0.9404   -1.1760    2.9430 H   0  0  0  0  0  0  0  0  0  0  0  0
    1.7811    0.3640    3.2333 H   0  0  0  0  0  0  0  0  0  0  0  0
    0.6199   -0.3373    4.8590 N   0  3  0  0  0  0  0  0  0  0  0  0
   -0.2159    0.0999    5.2433 H   0  0  0  0  0  0  0  0  0  0  0  0
    1.4272   -0.9863    5.6471 C   0  0  0  0  0  0  0  0  0  0  0  0
    2.5711   -1.5865    5.1701 N   0  0  0  0  0  0  0  0  0  0  0  0
    2.6973   -1.6520    4.1615 H   0  0  0  0  0  0  0  0  0  0  0  0
    3.0914   -2.2236    5.7690 H   0  0  0  0  0  0  0  0  0  0  0  0
    1.1414   -1.0749    6.9892 N   0  0  0  0  0  0  0  0  0  0  0  0
    0.2371   -0.7599    7.3348 H   0  0  0  0  0  0  0  0  0  0  0  0
    1.7229   -1.6557    7.5902 H   0  0  0  0  0  0  0  0  0  0  0  0
   -0.6145    1.8302   -0.9600 C   0  0  0  0  0  0  0  0  0  0  0  0
    0.5466    1.6523   -1.3030 O   0  0  0  0  0  0  0  0  0  0  0  0
   -1.4674    2.4691   -1.8455 N   0  0  0  0  0  0  0  0  0  0  0  0
   -2.4127    2.6698   -1.5398 H   0  0  0  0  0  0  0  0  0  0  0  0
   -1.0499    2.9255   -3.1684 C   0  0  0  0  0  0  0  0  0  0  0  0
   -0.7011    2.0815   -3.7733 H   0  0  0  0  0  0  0  0  0  0  0  0
   -1.8875    3.3993   -3.6898 H   0  0  0  0  0  0  0  0  0  0  0  0
   -0.2381    3.6561   -3.0850 H   0  0  0  0  0  0  0  0  0  0  0  0
  1  2  1  0  0  0  0
  2  3  1  0  0  0  0
  2  4  1  0  0  0  0
  2  5  1  0  0  0  0
  5  6  2  0  0  0  0
  5  7  1  0  0  0  0
  7  8  1  0  0  0  0
  7  9  1  0  0  0  0
  9 10  1  0  0  0  0
  9 11  1  0  0  0  0
  9 29  1  0  0  0  0
 11 12  1  0  0  0  0
 11 13  1  0  0  0  0
 11 14  1  0  0  0  0
 14 15  1  0  0  0  0
 14 16  1  0  0  0  0
 14 17  1  0  0  0  0
 17 18  1  0  0  0  0
 17 19  1  0  0  0  0
 17 20  1  0  0  0  0
 20 21  1  0  0  0  0
 20 22  2  0  0  0  0
 22 23  1  0  0  0  0
 22 26  1  0  0  0  0
 23 24  1  0  0  0  0
 23 25  1  0  0  0  0
 26 27  1  0  0  0  0
 26 28  1  0  0  0  0
 29 30  2  0  0  0  0
 29 31  1  0  0  0  0
 31 32  1  0  0  0  0
 31 33  1  0  0  0  0
 33 34  1  0  0  0  0
 33 35  1  0  0  0  0
 33 36  1  0  0  0  0
M  CHG  1  20   1
M  END
$$$$

  -OEChem-02172215453D

 36 35  0     1  0  0  0  0  0999 V2000
   -4.5097   -1.9326    0.6911 H   0  0  0  0  0  0  0  0  0  0  0  0
   -4.3172   -0.9052    0.3685 C   0  0  0  0  0  0  0  0  0  0  0  0
   -5.0157   -0.2401    0.8818 H   0  0  0  0  0  0  0  0  0  0  0  0
   -4.4871   -0.8406   -0.7091 H   0  0  0  0  0  0  0  0  0  0  0  0
   -2.8878   -0.5122    0.6924 C   0  0  0  0  0  0  0  0  0  0  0  0
   -2.1675   -1.3398    1.2247 O   0  0  0  0  0  0  0  0  0  0  0  0
   -2.4666    0.7630    0.3436 N   0  0  0  0  0  0  0  0  0  0  0  0
   -3.1690    1.2911   -0.1673 H   0  0  0  0  0  0  0  0  0  0  0  0
   -1.1292    1.4040    0.4549 C   0  0  1  0  0  0  0  0  0  0  0  0
   -1.2887    2.3435    0.9920 H   0  0  0  0  0  0  0  0  0  0  0  0
   -0.0285    0.6663    1.2586 C   0  0  0  0  0  0  0  0  0  0  0  0
    0.1223   -0.3317    0.8339 H   0  0  0  0  0  0  0  0  0  0  0  0
    0.9149    1.2090    1.1326 H   0  0  0  0  0  0  0  0  0  0  0  0
   -0.3072    0.5664    2.7679 C   0  0  0  0  0  0  0  0  0  0  0  0
   -0.3851    1.5737    3.1900 H   0  0  0  0  0  0  0  0  0  0  0  0
   -1.2459    0.0489    2.9739 H   0  0  0  0  0  0  0  0  0  0  0  0
    0.8540   -0.1814    3.4163 C   0  0  0  0  0  0  0  0  0  0  0  0
    0.9376   -1.1684    2.9475 H   0  0  0  0  0  0  0  0  0  0  0  0
    1.7829    0.3698    3.2320 H   0  0  0  0  0  0  0  0  0  0  0  0
    0.6321   -0.3309    4.8652 N   0  3  0  0  0  0  0  0  0  0  0  0
   -0.2024    0.1035    5.2556 H   0  0  0  0  0  0  0  0  0  0  0  0
    1.4450   -0.9811    5.6466 C   0  0  0  0  0  0  0  0  0  0  0  0
    2.5852   -1.5810    5.1607 N   0  0  0  0  0  0  0  0  0  0  0  0
    2.7030   -1.6496    4.1513 H   0  0  0  0  0  0  0  0  0  0  0  0
    3.1196   -2.2069    5.7590 H   0  0  0  0  0  0  0  0  0  0  0  0
    1.1694   -1.0711    6.9907 N   0  0  0  0  0  0  0  0  0  0  0  0
    0.2648   -0.7615    7.3404 H   0  0  0  0  0  0  0  0  0  0  0  0
    1.7456   -1.6673    7.5817 H   0  0  0  0  0  0  0  0  0  0  0  0
   -0.6287    1.8255   -0.9495 C   0  0  0  0  0  0  0  0  0  0  0  0
    0.4195    1.3941   -1.4099 O   0  0  0  0  0  0  0  0  0  0  0  0
   -1.3653    2.7254   -1.7018 N   0  0  0  0  0  0  0  0  0  0  0  0
   -2.1834    3.1476   -1.2746 H   0  0  0  0  0  0  0  0  0  0  0  0
   -0.9416    3.1992   -3.0165 C   0  0  0  0  0  0  0  0  0  0  0  0
   -0.8353    2.3586   -3.7107 H   0  0  0  0  0  0  0  0  0  0  0  0
   -1.6814    3.8931   -3.4276 H   0  0  0  0  0  0  0  0  0  0  0  0
    0.0191    3.7206   -2.9469 H   0  0  0  0  0  0  0  0  0  0  0  0
  1  2  1  0  0  0  0
  2  3  1  0  0  0  0
  2  4  1  0  0  0  0
  2  5  1  0  0  0  0
  5  6  2  0  0  0  0
  5  7  1  0  0  0  0
  7  8  1  0  0  0  0
  7  9  1  0  0  0  0
  9 10  1  0  0  0  0
  9 11  1  0  0  0  0
  9 29  1  0  0  0  0
 11 12  1  0  0  0  0
 11 13  1  0  0  0  0
 11 14  1  0  0  0  0
 14 15  1  0  0  0  0
 14 16  1  0  0  0  0
 14 17  1  0  0  0  0
 17 18  1  0  0  0  0
 17 19  1  0  0  0  0
 17 20  1  0  0  0  0
 20 21  1  0  0  0  0
 20 22  2  0  0  0  0
 22 23  1  0  0  0  0
 22 26  1  0  0  0  0
 23 24  1  0  0  0  0
 23 25  1  0  0  0  0
 26 27  1  0  0  0  0
 26 28  1  0  0  0  0
 29 30  2  0  0  0  0
 29 31  1  0  0  0  0
 31 32  1  0  0  0  0
 31 33  1  0  0  0  0
 33 34  1  0  0  0  0
 33 35  1  0  0  0  0
 33 36  1  0  0  0  0
M  CHG  1  20   1
M  END
$$$$

  -OEChem-02172215453D

 36 35  0     1  0  0  0  0  0999 V2000
   -4.5054   -1.9285    0.6594 H   0  0  0  0  0  0  0  0  0  0  0  0
   -4.3135   -0.8996    0.3416 C   0  0  0  0  0  0  0  0  0  0  0  0
   -5.0290   -0.2400    0.8381 H   0  0  0  0  0  0  0  0  0  0  0  0
   -4.4574   -0.8369   -0.7399 H   0  0  0  0  0  0  0  0  0  0  0  0
   -2.8954   -0.4954    0.6994 C   0  0  0  0  0  0  0  0  0  0  0  0
   -2.1839   -1.3177    1.2517 O   0  0  0  0  0  0  0  0  0  0  0  0
   -2.4735    0.7802    0.3519 N   0  0  0  0  0  0  0  0  0  0  0  0
   -3.1651    1.2979   -0.1847 H   0  0  0  0  0  0  0  0  0  0  0  0
   -1.1369    1.4207    0.4647 C   0  0  1  0  0  0  0  0  0  0  0  0
   -1.2948    2.3571    1.0078 H   0  0  0  0  0  0  0  0  0  0  0  0
   -0.0305    0.6825    1.2579 C   0  0  0  0  0  0  0  0  0  0  0  0
    0.1162   -0.3148    0.8288 H   0  0  0  0  0  0  0  0  0  0  0  0
    0.9112    1.2262    1.1234 H   0  0  0  0  0  0  0  0  0  0  0  0
   -0.3012    0.5726    2.7681 C   0  0  0  0  0  0  0  0  0  0  0  0
   -0.3779    1.5773    3.1963 H   0  0  0  0  0  0  0  0  0  0  0  0
   -1.2383    0.0546    2.9785 H   0  0  0  0  0  0  0  0  0  0  0  0
    0.8634   -0.1753    3.4094 C   0  0  0  0  0  0  0  0  0  0  0  0
    0.9479   -1.1604    2.9364 H   0  0  0  0  0  0  0  0  0  0  0  0
    1.7911    0.3785    3.2263 H   0  0  0  0  0  0  0  0  0  0  0  0
    0.6395   -0.3290    4.8577 N   0  3  0  0  0  0  0  0  0  0  0  0
   -0.1968    0.1033    5.2465 H   0  0  0  0  0  0  0  0  0  0  0  0
    1.4501   -0.9793    5.6411 C   0  0  0  0  0  0  0  0  0  0  0  0
    2.5927   -1.5778    5.1594 N   0  0  0  0  0  0  0  0  0  0  0  0
    2.7090   -1.6500    4.1501 H   0  0  0  0  0  0  0  0  0  0  0  0
    3.1104   -2.2199    5.7552 H   0  0  0  0  0  0  0  0  0  0  0  0
    1.1672   -1.0714    6.9835 N   0  0  0  0  0  0  0  0  0  0  0  0
    0.2594   -0.7658    7.3287 H   0  0  0  0  0  0  0  0  0  0  0  0
    1.7452   -1.6613    7.5789 H   0  0  0  0  0  0  0  0  0  0  0  0
   -0.6392    1.8410   -0.9384 C   0  0  0  0  0  0  0  0  0  0  0  0
    0.2503    1.2226   -1.5059 O   0  0  0  0  0  0  0  0  0  0  0  0
   -1.1856    2.9511   -1.5598 N   0  0  0  0  0  0  0  0  0  0  0  0
   -1.8862    3.4857   -1.0553 H   0  0  0  0  0  0  0  0  0  0  0  0
   -0.7498    3.4288   -2.8691 C   0  0  0  0  0  0  0  0  0  0  0  0
   -0.9030    2.6571   -3.6313 H   0  0  0  0  0  0  0  0  0  0  0  0
   -1.3211    4.3161   -3.1589 H   0  0  0  0  0  0  0  0  0  0  0  0
    0.3126    3.6942   -2.8478 H   0  0  0  0  0  0  0  0  0  0  0  0
  1  2  1  0  0  0  0
  2  3  1  0  0  0  0
  2  4  1  0  0  0  0
  2  5  1  0  0  0  0
  5  6  2  0  0  0  0
  5  7  1  0  0  0  0
  7  8  1  0  0  0  0
  7  9  1  0  0  0  0
  9 10  1  0  0  0  0
  9 11  1  0  0  0  0
  9 29  1  0  0  0  0
 11 12  1  0  0  0  0
 11 13  1  0  0  0  0
 11 14  1  0  0  0  0
 14 15  1  0  0  0  0
 14 16  1  0  0  0  0
 14 17  1  0  0  0  0
 17 18  1  0  0  0  0
 17 19  1  0  0  0  0
 17 20  1  0  0  0  0
 20 21  1  0  0  0  0
 20 22  2  0  0  0  0
 22 23  1  0  0  0  0
 22 26  1  0  0  0  0
 23 24  1  0  0  0  0
 23 25  1  0  0  0  0
 26 27  1  0  0  0  0
 26 28  1  0  0  0  0
 29 30  2  0  0  0  0
 29 31  1  0  0  0  0
 31 32  1  0  0  0  0
 31 33  1  0  0  0  0
 33 34  1  0  0  0  0
 33 35  1  0  0  0  0
 33 36  1  0  0  0  0
M  CHG  1  20   1
M  END
$$$$

  -OEChem-02172215453D

 36 35  0     1  0  0  0  0  0999 V2000
   -4.5186   -1.9188    0.6214 H   0  0  0  0  0  0  0  0  0  0  0  0
   -4.3243   -0.8896    0.3060 C   0  0  0  0  0  0  0  0  0  0  0  0
   -5.0550   -0.2322    0.7835 H   0  0  0  0  0  0  0  0  0  0  0  0
   -4.4435   -0.8291   -0.7788 H   0  0  0  0  0  0  0  0  0  0  0  0
   -2.9169   -0.4773    0.6959 C   0  0  0  0  0  0  0  0  0  0  0  0
   -2.2158   -1.2916    1.2729 O   0  0  0  0  0  0  0  0  0  0  0  0
   -2.4923    0.7972    0.3494 N   0  0  0  0  0  0  0  0  0  0  0  0
   -3.1687    1.3038   -0.2169 H   0  0  0  0  0  0  0  0  0  0  0  0
   -1.1599    1.4406    0.4799 C   0  0  1  0  0  0  0  0  0  0  0  0
   -1.3292    2.3742    1.0237 H   0  0  0  0  0  0  0  0  0  0  0  0
   -0.0530    0.7096    1.2769 C   0  0  0  0  0  0  0  0  0  0  0  0
    0.1003   -0.2853    0.8442 H   0  0  0  0  0  0  0  0  0  0  0  0
    0.8852    1.2599    1.1452 H   0  0  0  0  0  0  0  0  0  0  0  0
   -0.3246    0.5863    2.7869 C   0  0  0  0  0  0  0  0  0  0  0  0
   -0.4113    1.5870    3.2225 H   0  0  0  0  0  0  0  0  0  0  0  0
   -1.2558    0.0577    2.9955 H   0  0  0  0  0  0  0  0  0  0  0  0
    0.8498   -0.1549    3.4189 C   0  0  0  0  0  0  0  0  0  0  0  0
    0.9428   -1.1343    2.9356 H   0  0  0  0  0  0  0  0  0  0  0  0
    1.7703    0.4105    3.2366 H   0  0  0  0  0  0  0  0  0  0  0  0
    0.6406   -0.3290    4.8672 N   0  3  0  0  0  0  0  0  0  0  0  0
   -0.1996    0.0834    5.2692 H   0  0  0  0  0  0  0  0  0  0  0  0
    1.4681   -0.9797    5.6327 C   0  0  0  0  0  0  0  0  0  0  0  0
    2.6124   -1.5563    5.1289 N   0  0  0  0  0  0  0  0  0  0  0  0
    2.7198   -1.6128    4.1176 H   0  0  0  0  0  0  0  0  0  0  0  0
    3.1564   -2.1869    5.7133 H   0  0  0  0  0  0  0  0  0  0  0  0
    1.2035   -1.0969    6.9768 N   0  0  0  0  0  0  0  0  0  0  0  0
    0.2922   -0.8178    7.3344 H   0  0  0  0  0  0  0  0  0  0  0  0
    1.7901   -1.6995    7.5505 H   0  0  0  0  0  0  0  0  0  0  0  0
   -0.6407    1.8557   -0.9154 C   0  0  0  0  0  0  0  0  0  0  0  0
    0.0474    1.0924   -1.5776 O   0  0  0  0  0  0  0  0  0  0  0  0
   -0.9337    3.1095   -1.4232 N   0  0  0  0  0  0  0  0  0  0  0  0
   -1.4931    3.7388   -0.8554 H   0  0  0  0  0  0  0  0  0  0  0  0
   -0.4628    3.5724   -2.7255 C   0  0  0  0  0  0  0  0  0  0  0  0
   -0.8523    2.9320   -3.5241 H   0  0  0  0  0  0  0  0  0  0  0  0
   -0.7996    4.5973   -2.9102 H   0  0  0  0  0  0  0  0  0  0  0  0
    0.6317    3.5572   -2.7668 H   0  0  0  0  0  0  0  0  0  0  0  0
  1  2  1  0  0  0  0
  2  3  1  0  0  0  0
  2  4  1  0  0  0  0
  2  5  1  0  0  0  0
  5  6  2  0  0  0  0
  5  7  1  0  0  0  0
  7  8  1  0  0  0  0
  7  9  1  0  0  0  0
  9 10  1  0  0  0  0
  9 11  1  0  0  0  0
  9 29  1  0  0  0  0
 11 12  1  0  0  0  0
 11 13  1  0  0  0  0
 11 14  1  0  0  0  0
 14 15  1  0  0  0  0
 14 16  1  0  0  0  0
 14 17  1  0  0  0  0
 17 18  1  0  0  0  0
 17 19  1  0  0  0  0
 17 20  1  0  0  0  0
 20 21  1  0  0  0  0
 20 22  2  0  0  0  0
 22 23  1  0  0  0  0
 22 26  1  0  0  0  0
 23 24  1  0  0  0  0
 23 25  1  0  0  0  0
 26 27  1  0  0  0  0
 26 28  1  0  0  0  0
 29 30  2  0  0  0  0
 29 31  1  0  0  0  0
 31 32  1  0  0  0  0
 31 33  1  0  0  0  0
 33 34  1  0  0  0  0
 33 35  1  0  0  0  0
 33 36  1  0  0  0  0
M  CHG  1  20   1
M  END
$$$$

  -OEChem-02172215453D

 36 35  0     1  0  0  0  0  0999 V2000
   -4.5059   -1.9096    0.6154 H   0  0  0  0  0  0  0  0  0  0  0  0
   -4.3092   -0.8823    0.2952 C   0  0  0  0  0  0  0  0  0  0  0  0
   -5.0455   -0.2227    0.7602 H   0  0  0  0  0  0  0  0  0  0  0  0
   -4.4163   -0.8293   -0.7910 H   0  0  0  0  0  0  0  0  0  0  0  0
   -2.9064   -0.4657    0.6971 C   0  0  0  0  0  0  0  0  0  0  0  0
   -2.2060   -1.2816    1.2733 O   0  0  0  0  0  0  0  0  0  0  0  0
   -2.4835    0.8110    0.3567 N   0  0  0  0  0  0  0  0  0  0  0  0
   -3.1565    1.3149   -0.2163 H   0  0  0  0  0  0  0  0  0  0  0  0
   -1.1516    1.4552    0.4865 C   0  0  1  0  0  0  0  0  0  0  0  0
   -1.3239    2.3832    1.0388 H   0  0  0  0  0  0  0  0  0  0  0  0
   -0.0403    0.7198    1.2708 C   0  0  0  0  0  0  0  0  0  0  0  0
    0.1103   -0.2719    0.8300 H   0  0  0  0  0  0  0  0  0  0  0  0
    0.8973    1.2709    1.1388 H   0  0  0  0  0  0  0  0  0  0  0  0
   -0.3093    0.5864    2.7808 C   0  0  0  0  0  0  0  0  0  0  0  0
   -0.3950    1.5852    3.2211 H   0  0  0  0  0  0  0  0  0  0  0  0
   -1.2414    0.0589    2.9884 H   0  0  0  0  0  0  0  0  0  0  0  0
    0.8630   -0.1580    3.4128 C   0  0  0  0  0  0  0  0  0  0  0  0
    0.9564   -1.1362    2.9271 H   0  0  0  0  0  0  0  0  0  0  0  0
    1.7852    0.4071    3.2367 H   0  0  0  0  0  0  0  0  0  0  0  0
    0.6423   -0.3340    4.8593 N   0  3  0  0  0  0  0  0  0  0  0  0
   -0.2016    0.0778    5.2541 H   0  0  0  0  0  0  0  0  0  0  0  0
    1.4609   -0.9867    5.6326 C   0  0  0  0  0  0  0  0  0  0  0  0
    2.6089   -1.5661    5.1407 N   0  0  0  0  0  0  0  0  0  0  0  0
    2.7169   -1.6322    4.1301 H   0  0  0  0  0  0  0  0  0  0  0  0
    3.1323   -2.2122    5.7272 H   0  0  0  0  0  0  0  0  0  0  0  0
    1.1833   -1.0994    6.9746 N   0  0  0  0  0  0  0  0  0  0  0  0
    0.2816   -0.7912    7.3329 H   0  0  0  0  0  0  0  0  0  0  0  0
    1.7776   -1.6770    7.5663 H   0  0  0  0  0  0  0  0  0  0  0  0
   -0.6331    1.8799   -0.9050 C   0  0  0  0  0  0  0  0  0  0  0  0
   -0.2036    1.0412   -1.6835 O   0  0  0  0  0  0  0  0  0  0  0  0
   -0.6477    3.2103   -1.2868 N   0  0  0  0  0  0  0  0  0  0  0  0
   -1.0199    3.8942   -0.6344 H   0  0  0  0  0  0  0  0  0  0  0  0
   -0.1923    3.6667   -2.5967 C   0  0  0  0  0  0  0  0  0  0  0  0
   -0.7948    3.2131   -3.3911 H   0  0  0  0  0  0  0  0  0  0  0  0
   -0.2828    4.7546   -2.6739 H   0  0  0  0  0  0  0  0  0  0  0  0
    0.8573    3.3964   -2.7550 H   0  0  0  0  0  0  0  0  0  0  0  0
  1  2  1  0  0  0  0
  2  3  1  0  0  0  0
  2  4  1  0  0  0  0
  2  5  1  0  0  0  0
  5  6  2  0  0  0  0
  5  7  1  0  0  0  0
  7  8  1  0  0  0  0
  7  9  1  0  0  0  0
  9 10  1  0  0  0  0
  9 11  1  0  0  0  0
  9 29  1  0  0  0  0
 11 12  1  0  0  0  0
 11 13  1  0  0  0  0
 11 14  1  0  0  0  0
 14 15  1  0  0  0  0
 14 16  1  0  0  0  0
 14 17  1  0  0  0  0
 17 18  1  0  0  0  0
 17 19  1  0  0  0  0
 17 20  1  0  0  0  0
 20 21  1  0  0  0  0
 20 22  2  0  0  0  0
 22 23  1  0  0  0  0
 22 26  1  0  0  0  0
 23 24  1  0  0  0  0
 23 25  1  0  0  0  0
 26 27  1  0  0  0  0
 26 28  1  0  0  0  0
 29 30  2  0  0  0  0
 29 31  1  0  0  0  0
 31 32  1  0  0  0  0
 31 33  1  0  0  0  0
 33 34  1  0  0  0  0
 33 35  1  0  0  0  0
 33 36  1  0  0  0  0
M  CHG  1  20   1
M  END
$$$$

  -OEChem-02172215453D

 36 35  0     1  0  0  0  0  0999 V2000
   -4.4951   -1.8980    0.6063 H   0  0  0  0  0  0  0  0  0  0  0  0
   -4.2942   -0.8712    0.2877 C   0  0  0  0  0  0  0  0  0  0  0  0
   -5.0341   -0.2100    0.7451 H   0  0  0  0  0  0  0  0  0  0  0  0
   -4.3902   -0.8187   -0.7999 H   0  0  0  0  0  0  0  0  0  0  0  0
   -2.8955   -0.4550    0.7028 C   0  0  0  0  0  0  0  0  0  0  0  0
   -2.1997   -1.2711    1.2853 O   0  0  0  0  0  0  0  0  0  0  0  0
   -2.4711    0.8217    0.3656 N   0  0  0  0  0  0  0  0  0  0  0  0
   -3.1293    1.3118   -0.2361 H   0  0  0  0  0  0  0  0  0  0  0  0
   -1.1359    1.4603    0.4887 C   0  0  1  0  0  0  0  0  0  0  0  0
   -1.3068    2.3873    1.0434 H   0  0  0  0  0  0  0  0  0  0  0  0
   -0.0223    0.7191    1.2629 C   0  0  0  0  0  0  0  0  0  0  0  0
    0.1219   -0.2721    0.8190 H   0  0  0  0  0  0  0  0  0  0  0  0
    0.9167    1.2673    1.1281 H   0  0  0  0  0  0  0  0  0  0  0  0
   -0.2874    0.5856    2.7741 C   0  0  0  0  0  0  0  0  0  0  0  0
   -0.3654    1.5852    3.2134 H   0  0  0  0  0  0  0  0  0  0  0  0
   -1.2229    0.0667    2.9852 H   0  0  0  0  0  0  0  0  0  0  0  0
    0.8790   -0.1638    3.4114 C   0  0  0  0  0  0  0  0  0  0  0  0
    0.9682   -1.1446    2.9302 H   0  0  0  0  0  0  0  0  0  0  0  0
    1.8055    0.3947    3.2389 H   0  0  0  0  0  0  0  0  0  0  0  0
    0.6479   -0.3325    4.8569 N   0  3  0  0  0  0  0  0  0  0  0  0
   -0.1968    0.0859    5.2434 H   0  0  0  0  0  0  0  0  0  0  0  0
    1.4560   -0.9865    5.6399 C   0  0  0  0  0  0  0  0  0  0  0  0
    2.6048   -1.5767    5.1620 N   0  0  0  0  0  0  0  0  0  0  0  0
    2.7247   -1.6466    4.1531 H   0  0  0  0  0  0  0  0  0  0  0  0
    3.1169   -2.2243    5.7568 H   0  0  0  0  0  0  0  0  0  0  0  0
    1.1635   -1.0898    6.9793 N   0  0  0  0  0  0  0  0  0  0  0  0
    0.2519   -0.7910    7.3201 H   0  0  0  0  0  0  0  0  0  0  0  0
    1.7422   -1.6771    7.5765 H   0  0  0  0  0  0  0  0  0  0  0  0
   -0.6225    1.8913   -0.9022 C   0  0  0  0  0  0  0  0  0  0  0  0
   -0.4981    1.0629   -1.7921 O   0  0  0  0  0  0  0  0  0  0  0  0
   -0.3399    3.2191   -1.1717 N   0  0  0  0  0  0  0  0  0  0  0  0
   -0.4850    3.9010   -0.4330 H   0  0  0  0  0  0  0  0  0  0  0  0
    0.0891    3.6900   -2.4854 C   0  0  0  0  0  0  0  0  0  0  0  0
   -0.6763    3.4766   -3.2392 H   0  0  0  0  0  0  0  0  0  0  0  0
    0.2602    4.7707   -2.4646 H   0  0  0  0  0  0  0  0  0  0  0  0
    1.0215    3.1990   -2.7842 H   0  0  0  0  0  0  0  0  0  0  0  0
  1  2  1  0  0  0  0
  2  3  1  0  0  0  0
  2  4  1  0  0  0  0
  2  5  1  0  0  0  0
  5  6  2  0  0  0  0
  5  7  1  0  0  0  0
  7  8  1  0  0  0  0
  7  9  1  0  0  0  0
  9 10  1  0  0  0  0
  9 11  1  0  0  0  0
  9 29  1  0  0  0  0
 11 12  1  0  0  0  0
 11 13  1  0  0  0  0
 11 14  1  0  0  0  0
 14 15  1  0  0  0  0
 14 16  1  0  0  0  0
 14 17  1  0  0  0  0
 17 18  1  0  0  0  0
 17 19  1  0  0  0  0
 17 20  1  0  0  0  0
 20 21  1  0  0  0  0
 20 22  2  0  0  0  0
 22 23  1  0  0  0  0
 22 26  1  0  0  0  0
 23 24  1  0  0  0  0
 23 25  1  0  0  0  0
 26 27  1  0  0  0  0
 26 28  1  0  0  0  0
 29 30  2  0  0  0  0
 29 31  1  0  0  0  0
 31 32  1  0  0  0  0
 31 33  1  0  0  0  0
 33 34  1  0  0  0  0
 33 35  1  0  0  0  0
 33 36  1  0  0  0  0
M  CHG  1  20   1
M  END
$$$$

  -OEChem-02172215453D

 36 35  0     1  0  0  0  0  0999 V2000
   -4.4923   -1.8906    0.5688 H   0  0  0  0  0  0  0  0  0  0  0  0
   -4.2863   -0.8625    0.2579 C   0  0  0  0  0  0  0  0  0  0  0  0
   -5.0389   -0.2039    0.6979 H   0  0  0  0  0  0  0  0  0  0  0  0
   -4.3550   -0.8071   -0.8316 H   0  0  0  0  0  0  0  0  0  0  0  0
   -2.8992   -0.4439    0.7084 C   0  0  0  0  0  0  0  0  0  0  0  0
   -2.2144   -1.2581    1.3066 O   0  0  0  0  0  0  0  0  0  0  0  0
   -2.4670    0.8303    0.3743 N   0  0  0  0  0  0  0  0  0  0  0  0
   -3.1006    1.3031   -0.2671 H   0  0  0  0  0  0  0  0  0  0  0  0
   -1.1255    1.4565    0.4908 C   0  0  1  0  0  0  0  0  0  0  0  0
   -1.2914    2.3856    1.0441 H   0  0  0  0  0  0  0  0  0  0  0  0
   -0.0141    0.7096    1.2629 C   0  0  0  0  0  0  0  0  0  0  0  0
    0.1188   -0.2847    0.8227 H   0  0  0  0  0  0  0  0  0  0  0  0
    0.9294    1.2486    1.1236 H   0  0  0  0  0  0  0  0  0  0  0  0
   -0.2757    0.5847    2.7760 C   0  0  0  0  0  0  0  0  0  0  0  0
   -0.3457    1.5871    3.2104 H   0  0  0  0  0  0  0  0  0  0  0  0
   -1.2147    0.0744    2.9923 H   0  0  0  0  0  0  0  0  0  0  0  0
    0.8859   -0.1709    3.4154 C   0  0  0  0  0  0  0  0  0  0  0  0
    0.9669   -1.1545    2.9388 H   0  0  0  0  0  0  0  0  0  0  0  0
    1.8169    0.3792    3.2385 H   0  0  0  0  0  0  0  0  0  0  0  0
    0.6557   -0.3300    4.8624 N   0  3  0  0  0  0  0  0  0  0  0  0
   -0.1873    0.0933    5.2470 H   0  0  0  0  0  0  0  0  0  0  0  0
    1.4593   -0.9862    5.6486 C   0  0  0  0  0  0  0  0  0  0  0  0
    2.6024   -1.5880    5.1724 N   0  0  0  0  0  0  0  0  0  0  0  0
    2.7160   -1.6690    4.1637 H   0  0  0  0  0  0  0  0  0  0  0  0
    3.1046   -2.2412    5.7694 H   0  0  0  0  0  0  0  0  0  0  0  0
    1.1691   -1.0799    6.9895 N   0  0  0  0  0  0  0  0  0  0  0  0
    0.2679   -0.7574    7.3361 H   0  0  0  0  0  0  0  0  0  0  0  0
    1.7536   -1.6533    7.5948 H   0  0  0  0  0  0  0  0  0  0  0  0
   -0.6151    1.8915   -0.9009 C   0  0  0  0  0  0  0  0  0  0  0  0
   -0.7950    1.1727   -1.8736 O   0  0  0  0  0  0  0  0  0  0  0  0
   -0.0338    3.1344   -1.0812 N   0  0  0  0  0  0  0  0  0  0  0  0
    0.0569    3.7440   -0.2739 H   0  0  0  0  0  0  0  0  0  0  0  0
    0.3835    3.6348   -2.3879 C   0  0  0  0  0  0  0  0  0  0  0  0
   -0.4743    3.7017   -3.0658 H   0  0  0  0  0  0  0  0  0  0  0  0
    0.8242    4.6317   -2.2902 H   0  0  0  0  0  0  0  0  0  0  0  0
    1.1311    2.9695   -2.8332 H   0  0  0  0  0  0  0  0  0  0  0  0
  1  2  1  0  0  0  0
  2  3  1  0  0  0  0
  2  4  1  0  0  0  0
  2  5  1  0  0  0  0
  5  6  2  0  0  0  0
  5  7  1  0  0  0  0
  7  8  1  0  0  0  0
  7  9  1  0  0  0  0
  9 10  1  0  0  0  0
  9 11  1  0  0  0  0
  9 29  1  0  0  0  0
 11 12  1  0  0  0  0
 11 13  1  0  0  0  0
 11 14  1  0  0  0  0
 14 15  1  0  0  0  0
 14 16  1  0  0  0  0
 14 17  1  0  0  0  0
 17 18  1  0  0  0  0
 17 19  1  0  0  0  0
 17 20  1  0  0  0  0
 20 21  1  0  0  0  0
 20 22  2  0  0  0  0
 22 23  1  0  0  0  0
 22 26  1  0  0  0  0
 23 24  1  0  0  0  0
 23 25  1  0  0  0  0
 26 27  1  0  0  0  0
 26 28  1  0  0  0  0
 29 30  2  0  0  0  0
 29 31  1  0  0  0  0
 31 32  1  0  0  0  0
 31 33  1  0  0  0  0
 33 34  1  0  0  0  0
 33 35  1  0  0  0  0
 33 36  1  0  0  0  0
M  CHG  1  20   1
M  END
$$$$

  -OEChem-02172215453D

 36 35  0     1  0  0  0  0  0999 V2000
   -4.4768   -1.8868    0.5842 H   0  0  0  0  0  0  0  0  0  0  0  0
   -4.2707   -0.8581    0.2754 C   0  0  0  0  0  0  0  0  0  0  0  0
   -5.0190   -0.1997    0.7227 H   0  0  0  0  0  0  0  0  0  0  0  0
   -4.3462   -0.7982   -0.8133 H   0  0  0  0  0  0  0  0  0  0  0  0
   -2.8801   -0.4439    0.7190 C   0  0  0  0  0  0  0  0  0  0  0  0
   -2.1935   -1.2635    1.3081 O   0  0  0  0  0  0  0  0  0  0  0  0
   -2.4468    0.8312    0.3896 N   0  0  0  0  0  0  0  0  0  0  0  0
   -3.0708    1.2970   -0.2674 H   0  0  0  0  0  0  0  0  0  0  0  0
   -1.1008    1.4509    0.4879 C   0  0  1  0  0  0  0  0  0  0  0  0
   -1.2546    2.3793    1.0456 H   0  0  0  0  0  0  0  0  0  0  0  0
    0.0111    0.6928    1.2489 C   0  0  0  0  0  0  0  0  0  0  0  0
    0.1305   -0.3038    0.8104 H   0  0  0  0  0  0  0  0  0  0  0  0
    0.9600    1.2201    1.1042 H   0  0  0  0  0  0  0  0  0  0  0  0
   -0.2477    0.5770    2.7632 C   0  0  0  0  0  0  0  0  0  0  0  0
   -0.3064    1.5822    3.1932 H   0  0  0  0  0  0  0  0  0  0  0  0
   -1.1928    0.0792    2.9832 H   0  0  0  0  0  0  0  0  0  0  0  0
    0.9026   -0.1880    3.4100 C   0  0  0  0  0  0  0  0  0  0  0  0
    0.9737   -1.1765    2.9422 H   0  0  0  0  0  0  0  0  0  0  0  0
    1.8407    0.3499    3.2337 H   0  0  0  0  0  0  0  0  0  0  0  0
    0.6584   -0.3295    4.8564 N   0  3  0  0  0  0  0  0  0  0  0  0
   -0.1829    0.1084    5.2285 H   0  0  0  0  0  0  0  0  0  0  0  0
    1.4447   -0.9877    5.6577 C   0  0  0  0  0  0  0  0  0  0  0  0
    2.5843   -1.6105    5.2003 N   0  0  0  0  0  0  0  0  0  0  0  0
    2.7088   -1.7044    4.1940 H   0  0  0  0  0  0  0  0  0  0  0  0
    3.0773   -2.2576    5.8118 H   0  0  0  0  0  0  0  0  0  0  0  0
    1.1380   -1.0629    6.9960 N   0  0  0  0  0  0  0  0  0  0  0  0
    0.2332   -0.7326    7.3262 H   0  0  0  0  0  0  0  0  0  0  0  0
    1.7018   -1.6473    7.6102 H   0  0  0  0  0  0  0  0  0  0  0  0
   -0.6096    1.8989   -0.9087 C   0  0  0  0  0  0  0  0  0  0  0  0
   -1.0587    1.3731   -1.9183 O   0  0  0  0  0  0  0  0  0  0  0  0
    0.2394    2.9842   -1.0412 N   0  0  0  0  0  0  0  0  0  0  0  0
    0.5514    3.4546   -0.1972 H   0  0  0  0  0  0  0  0  0  0  0  0
    0.6490    3.5220   -2.3355 C   0  0  0  0  0  0  0  0  0  0  0  0
   -0.2250    3.8423   -2.9130 H   0  0  0  0  0  0  0  0  0  0  0  0
    1.3056    4.3865   -2.1974 H   0  0  0  0  0  0  0  0  0  0  0  0
    1.1915    2.7653   -2.9123 H   0  0  0  0  0  0  0  0  0  0  0  0
  1  2  1  0  0  0  0
  2  3  1  0  0  0  0
  2  4  1  0  0  0  0
  2  5  1  0  0  0  0
  5  6  2  0  0  0  0
  5  7  1  0  0  0  0
  7  8  1  0  0  0  0
  7  9  1  0  0  0  0
  9 10  1  0  0  0  0
  9 11  1  0  0  0  0
  9 29  1  0  0  0  0
 11 12  1  0  0  0  0
 11 13  1  0  0  0  0
 11 14  1  0  0  0  0
 14 15  1  0  0  0  0
 14 16  1  0  0  0  0
 14 17  1  0  0  0  0
 17 18  1  0  0  0  0
 17 19  1  0  0  0  0
 17 20  1  0  0  0  0
 20 21  1  0  0  0  0
 20 22  2  0  0  0  0
 22 23  1  0  0  0  0
 22 26  1  0  0  0  0
 23 24  1  0  0  0  0
 23 25  1  0  0  0  0
 26 27  1  0  0  0  0
 26 28  1  0  0  0  0
 29 30  2  0  0  0  0
 29 31  1  0  0  0  0
 31 32  1  0  0  0  0
 31 33  1  0  0  0  0
 33 34  1  0  0  0  0
 33 35  1  0  0  0  0
 33 36  1  0  0  0  0
M  CHG  1  20   1
M  END
$$$$

  -OEChem-02172215453D

 36 35  0     1  0  0  0  0  0999 V2000
   -4.4604   -1.8822    0.5855 H   0  0  0  0  0  0  0  0  0  0  0  0
   -4.2514   -0.8530    0.2801 C   0  0  0  0  0  0  0  0  0  0  0  0
   -4.9963   -0.1935    0.7316 H   0  0  0  0  0  0  0  0  0  0  0  0
   -4.3300   -0.7880   -0.8083 H   0  0  0  0  0  0  0  0  0  0  0  0
   -2.8586   -0.4444    0.7208 C   0  0  0  0  0  0  0  0  0  0  0  0
   -2.1673   -1.2703    1.2958 O   0  0  0  0  0  0  0  0  0  0  0  0
   -2.4253    0.8324    0.3991 N   0  0  0  0  0  0  0  0  0  0  0  0
   -3.0457    1.2992   -0.2621 H   0  0  0  0  0  0  0  0  0  0  0  0
   -1.0797    1.4546    0.4927 C   0  0  1  0  0  0  0  0  0  0  0  0
   -1.2290    2.3839    1.0506 H   0  0  0  0  0  0  0  0  0  0  0  0
    0.0284    0.6888    1.2544 C   0  0  0  0  0  0  0  0  0  0  0  0
    0.1447   -0.3077    0.8146 H   0  0  0  0  0  0  0  0  0  0  0  0
    0.9816    1.2093    1.1170 H   0  0  0  0  0  0  0  0  0  0  0  0
   -0.2370    0.5750    2.7684 C   0  0  0  0  0  0  0  0  0  0  0  0
   -0.2904    1.5809    3.1970 H   0  0  0  0  0  0  0  0  0  0  0  0
   -1.1871    0.0844    2.9838 H   0  0  0  0  0  0  0  0  0  0  0  0
    0.9055   -0.1967    3.4219 C   0  0  0  0  0  0  0  0  0  0  0  0
    0.9721   -1.1861    2.9553 H   0  0  0  0  0  0  0  0  0  0  0  0
    1.8480    0.3346    3.2496 H   0  0  0  0  0  0  0  0  0  0  0  0
    0.6550   -0.3363    4.8677 N   0  3  0  0  0  0  0  0  0  0  0  0
   -0.1837    0.1088    5.2376 H   0  0  0  0  0  0  0  0  0  0  0  0
    1.4346   -0.9990    5.6720 C   0  0  0  0  0  0  0  0  0  0  0  0
    2.5720   -1.6288    5.2191 N   0  0  0  0  0  0  0  0  0  0  0  0
    2.6949   -1.7270    4.2133 H   0  0  0  0  0  0  0  0  0  0  0  0
    3.0522   -2.2856    5.8304 H   0  0  0  0  0  0  0  0  0  0  0  0
    1.1227   -1.0722    7.0091 N   0  0  0  0  0  0  0  0  0  0  0  0
    0.2191   -0.7360    7.3366 H   0  0  0  0  0  0  0  0  0  0  0  0
    1.6840   -1.6554    7.6267 H   0  0  0  0  0  0  0  0  0  0  0  0
   -0.6056    1.9114   -0.9094 C   0  0  0  0  0  0  0  0  0  0  0  0
   -1.2463    1.6018   -1.9060 O   0  0  0  0  0  0  0  0  0  0  0  0
    0.4605    2.7833   -1.0505 N   0  0  0  0  0  0  0  0  0  0  0  0
    0.9410    3.0921   -0.2113 H   0  0  0  0  0  0  0  0  0  0  0  0
    0.8826    3.3235   -2.3398 C   0  0  0  0  0  0  0  0  0  0  0  0
    0.0692    3.8928   -2.8025 H   0  0  0  0  0  0  0  0  0  0  0  0
    1.7400    3.9911   -2.2109 H   0  0  0  0  0  0  0  0  0  0  0  0
    1.1744    2.5143   -3.0180 H   0  0  0  0  0  0  0  0  0  0  0  0
  1  2  1  0  0  0  0
  2  3  1  0  0  0  0
  2  4  1  0  0  0  0
  2  5  1  0  0  0  0
  5  6  2  0  0  0  0
  5  7  1  0  0  0  0
  7  8  1  0  0  0  0
  7  9  1  0  0  0  0
  9 10  1  0  0  0  0
  9 11  1  0  0  0  0
  9 29  1  0  0  0  0
 11 12  1  0  0  0  0
 11 13  1  0  0  0  0
 11 14  1  0  0  0  0
 14 15  1  0  0  0  0
 14 16  1  0  0  0  0
 14 17  1  0  0  0  0
 17 18  1  0  0  0  0
 17 19  1  0  0  0  0
 17 20  1  0  0  0  0
 20 21  1  0  0  0  0
 20 22  2  0  0  0  0
 22 23  1  0  0  0  0
 22 26  1  0  0  0  0
 23 24  1  0  0  0  0
 23 25  1  0  0  0  0
 26 27  1  0  0  0  0
 26 28  1  0  0  0  0
 29 30  2  0  0  0  0
 29 31  1  0  0  0  0
 31 32  1  0  0  0  0
 31 33  1  0  0  0  0
 33 34  1  0  0  0  0
 33 35  1  0  0  0  0
 33 36  1  0  0  0  0
M  CHG  1  20   1
M  END
$$$$

  -OEChem-02172215453D

 36 35  0     1  0  0  0  0  0999 V2000
   -4.6363   -1.7245    0.7185 H   0  0  0  0  0  0  0  0  0  0  0  0
   -4.3750   -0.7073    0.4131 C   0  0  0  0  0  0  0  0  0  0  0  0
   -4.9698   -0.0017    0.9981 H   0  0  0  0  0  0  0  0  0  0  0  0
   -4.6172   -0.5852   -0.6458 H   0  0  0  0  0  0  0  0  0  0  0  0
   -2.8962   -0.4527    0.6366 C   0  0  0  0  0  0  0  0  0  0  0  0
   -2.1880   -1.3935    0.9562 O   0  0  0  0  0  0  0  0  0  0  0  0
   -2.4056    0.8107    0.3536 N   0  0  0  0  0  0  0  0  0  0  0  0
   -3.0775    1.4001   -0.1400 H   0  0  0  0  0  0  0  0  0  0  0  0
   -1.0450    1.4016    0.4201 C   0  0  1  0  0  0  0  0  0  0  0  0
   -1.1122    2.1674    1.1987 H   0  0  0  0  0  0  0  0  0  0  0  0
    0.1406    0.5060    0.8650 C   0  0  0  0  0  0  0  0  0  0  0  0
    0.1706   -0.3774    0.2177 H   0  0  0  0  0  0  0  0  0  0  0  0
    1.0801    1.0466    0.7166 H   0  0  0  0  0  0  0  0  0  0  0  0
    0.0810    0.0622    2.3429 C   0  0  0  0  0  0  0  0  0  0  0  0
    0.1058    0.9552    2.9762 H   0  0  0  0  0  0  0  0  0  0  0  0
   -0.8334   -0.4707    2.5944 H   0  0  0  0  0  0  0  0  0  0  0  0
    1.2912   -0.8127    2.6587 C   0  0  0  0  0  0  0  0  0  0  0  0
    1.2828   -1.6788    1.9874 H   0  0  0  0  0  0  0  0  0  0  0  0
    2.2092   -0.2418    2.4816 H   0  0  0  0  0  0  0  0  0  0  0  0
    1.2289   -1.2610    4.0616 N   0  3  0  0  0  0  0  0  0  0  0  0
    0.4502   -0.9175    4.6220 H   0  0  0  0  0  0  0  0  0  0  0  0
    2.0959   -2.0674    4.6020 C   0  0  0  0  0  0  0  0  0  0  0  0
    3.1588   -2.5713    3.8866 N   0  0  0  0  0  0  0  0  0  0  0  0
    3.1586   -2.4480    2.8760 H   0  0  0  0  0  0  0  0  0  0  0  0
    3.7092   -3.3306    4.2819 H   0  0  0  0  0  0  0  0  0  0  0  0
    1.9542   -2.4257    5.9221 N   0  0  0  0  0  0  0  0  0  0  0  0
    1.0989   -2.1861    6.4202 H   0  0  0  0  0  0  0  0  0  0  0  0
    2.5763   -3.1244    6.3239 H   0  0  0  0  0  0  0  0  0  0  0  0
   -0.7668    2.2203   -0.8674 C   0  0  0  0  0  0  0  0  0  0  0  0
   -1.6645    2.3850   -1.6847 O   0  0  0  0  0  0  0  0  0  0  0  0
    0.4345    2.8800   -1.0657 N   0  0  0  0  0  0  0  0  0  0  0  0
    1.1582    2.7786   -0.3617 H   0  0  0  0  0  0  0  0  0  0  0  0
    0.7002    3.7235   -2.2281 C   0  0  0  0  0  0  0  0  0  0  0  0
   -0.0269    4.5409   -2.2857 H   0  0  0  0  0  0  0  0  0  0  0  0
    1.7019    4.1592   -2.1615 H   0  0  0  0  0  0  0  0  0  0  0  0
    0.6404    3.1355   -3.1502 H   0  0  0  0  0  0  0  0  0  0  0  0
  1  2  1  0  0  0  0
  2  3  1  0  0  0  0
  2  4  1  0  0  0  0
  2  5  1  0  0  0  0
  5  6  2  0  0  0  0
  5  7  1  0  0  0  0
  7  8  1  0  0  0  0
  7  9  1  0  0  0  0
  9 10  1  0  0  0  0
  9 11  1  0  0  0  0
  9 29  1  0  0  0  0
 11 12  1  0  0  0  0
 11 13  1  0  0  0  0
 11 14  1  0  0  0  0
 14 15  1  0  0  0  0
 14 16  1  0  0  0  0
 14 17  1  0  0  0  0
 17 18  1  0  0  0  0
 17 19  1  0  0  0  0
 17 20  1  0  0  0  0
 20 21  1  0  0  0  0
 20 22  2  0  0  0  0
 22 23  1  0  0  0  0
 22 26  1  0  0  0  0
 23 24  1  0  0  0  0
 23 25  1  0  0  0  0
 26 27  1  0  0  0  0
 26 28  1  0  0  0  0
 29 30  2  0  0  0  0
 29 31  1  0  0  0  0
 31 32  1  0  0  0  0
 31 33  1  0  0  0  0
 33 34  1  0  0  0  0
 33 35  1  0  0  0  0
 33 36  1  0  0  0  0
M  CHG  1  20   1
M  END
$$$$

  -OEChem-02172215453D

 36 35  0     1  0  0  0  0  0999 V2000
   -4.6032   -1.7208    0.7249 H   0  0  0  0  0  0  0  0  0  0  0  0
   -4.3447   -0.7032    0.4188 C   0  0  0  0  0  0  0  0  0  0  0  0
   -4.9298    0.0020    1.0140 H   0  0  0  0  0  0  0  0  0  0  0  0
   -4.6009   -0.5775   -0.6364 H   0  0  0  0  0  0  0  0  0  0  0  0
   -2.8624   -0.4528    0.6219 C   0  0  0  0  0  0  0  0  0  0  0  0
   -2.1473   -1.4001    0.9061 O   0  0  0  0  0  0  0  0  0  0  0  0
   -2.3736    0.8147    0.3560 N   0  0  0  0  0  0  0  0  0  0  0  0
   -3.0552    1.4272   -0.0952 H   0  0  0  0  0  0  0  0  0  0  0  0
   -1.0134    1.4041    0.4303 C   0  0  1  0  0  0  0  0  0  0  0  0
   -1.0791    2.1646    1.2146 H   0  0  0  0  0  0  0  0  0  0  0  0
    0.1694    0.5030    0.8730 C   0  0  0  0  0  0  0  0  0  0  0  0
    0.2059   -0.3748    0.2185 H   0  0  0  0  0  0  0  0  0  0  0  0
    1.1099    1.0463    0.7429 H   0  0  0  0  0  0  0  0  0  0  0  0
    0.0952    0.0534    2.3480 C   0  0  0  0  0  0  0  0  0  0  0  0
    0.1146    0.9431    2.9861 H   0  0  0  0  0  0  0  0  0  0  0  0
   -0.8235   -0.4801    2.5838 H   0  0  0  0  0  0  0  0  0  0  0  0
    1.2983   -0.8269    2.6750 C   0  0  0  0  0  0  0  0  0  0  0  0
    1.2955   -1.6912    2.0013 H   0  0  0  0  0  0  0  0  0  0  0  0
    2.2203   -0.2584    2.5112 H   0  0  0  0  0  0  0  0  0  0  0  0
    1.2175   -1.2783    4.0761 N   0  3  0  0  0  0  0  0  0  0  0  0
    0.4357   -0.9301    4.6292 H   0  0  0  0  0  0  0  0  0  0  0  0
    2.0748   -2.0894    4.6246 C   0  0  0  0  0  0  0  0  0  0  0  0
    3.1440   -2.5959    3.9207 N   0  0  0  0  0  0  0  0  0  0  0  0
    3.1549   -2.4743    2.9101 H   0  0  0  0  0  0  0  0  0  0  0  0
    3.6906   -3.3538    4.3239 H   0  0  0  0  0  0  0  0  0  0  0  0
    1.9163   -2.4509    5.9416 N   0  0  0  0  0  0  0  0  0  0  0  0
    1.0605   -2.2008    6.4336 H   0  0  0  0  0  0  0  0  0  0  0  0
    2.5227   -3.1630    6.3439 H   0  0  0  0  0  0  0  0  0  0  0  0
   -0.7513    2.2369   -0.8521 C   0  0  0  0  0  0  0  0  0  0  0  0
   -1.7061    2.6123   -1.5222 O   0  0  0  0  0  0  0  0  0  0  0  0
    0.5162    2.6554   -1.2204 N   0  0  0  0  0  0  0  0  0  0  0  0
    1.3042    2.3350   -0.6676 H   0  0  0  0  0  0  0  0  0  0  0  0
    0.7759    3.4613   -2.4103 C   0  0  0  0  0  0  0  0  0  0  0  0
    0.2197    4.4041   -2.3655 H   0  0  0  0  0  0  0  0  0  0  0  0
    1.8420    3.6957   -2.4863 H   0  0  0  0  0  0  0  0  0  0  0  0
    0.4760    2.9191   -3.3136 H   0  0  0  0  0  0  0  0  0  0  0  0
  1  2  1  0  0  0  0
  2  3  1  0  0  0  0
  2  4  1  0  0  0  0
  2  5  1  0  0  0  0
  5  6  2  0  0  0  0
  5  7  1  0  0  0  0
  7  8  1  0  0  0  0
  7  9  1  0  0  0  0
  9 10  1  0  0  0  0
  9 11  1  0  0  0  0
  9 29  1  0  0  0  0
 11 12  1  0  0  0  0
 11 13  1  0  0  0  0
 11 14  1  0  0  0  0
 14 15  1  0  0  0  0
 14 16  1  0  0  0  0
 14 17  1  0  0  0  0
 17 18  1  0  0  0  0
 17 19  1  0  0  0  0
 17 20  1  0  0  0  0
 20 21  1  0  0  0  0
 20 22  2  0  0  0  0
 22 23  1  0  0  0  0
 22 26  1  0  0  0  0
 23 24  1  0  0  0  0
 23 25  1  0  0  0  0
 26 27  1  0  0  0  0
 26 28  1  0  0  0  0
 29 30  2  0  0  0  0
 29 31  1  0  0  0  0
 31 32  1  0  0  0  0
 31 33  1  0  0  0  0
 33 34  1  0  0  0  0
 33 35  1  0  0  0  0
 33 36  1  0  0  0  0
M  CHG  1  20   1
M  END
$$$$

  -OEChem-02172215453D

 36 35  0     1  0  0  0  0  0999 V2000
   -4.5844   -1.7177    0.7082 H   0  0  0  0  0  0  0  0  0  0  0  0
   -4.3263   -0.6959    0.4163 C   0  0  0  0  0  0  0  0  0  0  0  0
   -4.9002    0.0008    1.0318 H   0  0  0  0  0  0  0  0  0  0  0  0
   -4.5975   -0.5509   -0.6326 H   0  0  0  0  0  0  0  0  0  0  0  0
   -2.8406   -0.4532    0.6031 C   0  0  0  0  0  0  0  0  0  0  0  0
   -2.1231   -1.4040    0.8690 O   0  0  0  0  0  0  0  0  0  0  0  0
   -2.3493    0.8156    0.3493 N   0  0  0  0  0  0  0  0  0  0  0  0
   -3.0388    1.4505   -0.0567 H   0  0  0  0  0  0  0  0  0  0  0  0
   -0.9877    1.3983    0.4337 C   0  0  1  0  0  0  0  0  0  0  0  0
   -1.0532    2.1555    1.2212 H   0  0  0  0  0  0  0  0  0  0  0  0
    0.1909    0.4947    0.8807 C   0  0  0  0  0  0  0  0  0  0  0  0
    0.2339   -0.3812    0.2244 H   0  0  0  0  0  0  0  0  0  0  0  0
    1.1307    1.0423    0.7616 H   0  0  0  0  0  0  0  0  0  0  0  0
    0.1041    0.0435    2.3543 C   0  0  0  0  0  0  0  0  0  0  0  0
    0.1193    0.9316    2.9947 H   0  0  0  0  0  0  0  0  0  0  0  0
   -0.8182   -0.4898    2.5786 H   0  0  0  0  0  0  0  0  0  0  0  0
    1.3025   -0.8395    2.6904 C   0  0  0  0  0  0  0  0  0  0  0  0
    1.3024   -1.7038    2.0166 H   0  0  0  0  0  0  0  0  0  0  0  0
    2.2275   -0.2735    2.5344 H   0  0  0  0  0  0  0  0  0  0  0  0
    1.2087   -1.2914    4.0904 N   0  3  0  0  0  0  0  0  0  0  0  0
    0.4250   -0.9387    4.6379 H   0  0  0  0  0  0  0  0  0  0  0  0
    2.0596   -2.1048    4.6456 C   0  0  0  0  0  0  0  0  0  0  0  0
    3.1334   -2.6131    3.9499 N   0  0  0  0  0  0  0  0  0  0  0  0
    3.1529   -2.4885    2.9398 H   0  0  0  0  0  0  0  0  0  0  0  0
    3.6712   -3.3766    4.3543 H   0  0  0  0  0  0  0  0  0  0  0  0
    1.8911   -2.4651    5.9619 N   0  0  0  0  0  0  0  0  0  0  0  0
    1.0367   -2.2076    6.4521 H   0  0  0  0  0  0  0  0  0  0  0  0
    2.5090   -3.1580    6.3799 H   0  0  0  0  0  0  0  0  0  0  0  0
   -0.7279    2.2380   -0.8429 C   0  0  0  0  0  0  0  0  0  0  0  0
   -1.6754    2.8104   -1.3678 O   0  0  0  0  0  0  0  0  0  0  0  0
    0.5339    2.4086   -1.3866 N   0  0  0  0  0  0  0  0  0  0  0  0
    1.2981    1.8740   -0.9875 H   0  0  0  0  0  0  0  0  0  0  0  0
    0.7793    3.1793   -2.6023 C   0  0  0  0  0  0  0  0  0  0  0  0
    0.4282    4.2100   -2.4827 H   0  0  0  0  0  0  0  0  0  0  0  0
    1.8500    3.2064   -2.8262 H   0  0  0  0  0  0  0  0  0  0  0  0
    0.2588    2.7278   -3.4536 H   0  0  0  0  0  0  0  0  0  0  0  0
  1  2  1  0  0  0  0
  2  3  1  0  0  0  0
  2  4  1  0  0  0  0
  2  5  1  0  0  0  0
  5  6  2  0  0  0  0
  5  7  1  0  0  0  0
  7  8  1  0  0  0  0
  7  9  1  0  0  0  0
  9 10  1  0  0  0  0
  9 11  1  0  0  0  0
  9 29  1  0  0  0  0
 11 12  1  0  0  0  0
 11 13  1  0  0  0  0
 11 14  1  0  0  0  0
 14 15  1  0  0  0  0
 14 16  1  0  0  0  0
 14 17  1  0  0  0  0
 17 18  1  0  0  0  0
 17 19  1  0  0  0  0
 17 20  1  0  0  0  0
 20 21  1  0  0  0  0
 20 22  2  0  0  0  0
 22 23  1  0  0  0  0
 22 26  1  0  0  0  0
 23 24  1  0  0  0  0
 23 25  1  0  0  0  0
 26 27  1  0  0  0  0
 26 28  1  0  0  0  0
 29 30  2  0  0  0  0
 29 31  1  0  0  0  0
 31 32  1  0  0  0  0
 31 33  1  0  0  0  0
 33 34  1  0  0  0  0
 33 35  1  0  0  0  0
 33 36  1  0  0  0  0
M  CHG  1  20   1
M  END
$$$$

  -OEChem-02172215453D

 36 35  0     1  0  0  0  0  0999 V2000
   -4.5658   -1.7167    0.7309 H   0  0  0  0  0  0  0  0  0  0  0  0
   -4.3140   -0.6936    0.4378 C   0  0  0  0  0  0  0  0  0  0  0  0
   -4.8710    0.0001    1.0721 H   0  0  0  0  0  0  0  0  0  0  0  0
   -4.6118   -0.5427   -0.6029 H   0  0  0  0  0  0  0  0  0  0  0  0
   -2.8235   -0.4541    0.5869 C   0  0  0  0  0  0  0  0  0  0  0  0
   -2.0993   -1.4075    0.8248 O   0  0  0  0  0  0  0  0  0  0  0  0
   -2.3342    0.8155    0.3336 N   0  0  0  0  0  0  0  0  0  0  0  0
   -3.0335    1.4663   -0.0272 H   0  0  0  0  0  0  0  0  0  0  0  0
   -0.9735    1.3958    0.4322 C   0  0  1  0  0  0  0  0  0  0  0  0
   -1.0444    2.1535    1.2193 H   0  0  0  0  0  0  0  0  0  0  0  0
    0.2040    0.4954    0.8849 C   0  0  0  0  0  0  0  0  0  0  0  0
    0.2571   -0.3783    0.2267 H   0  0  0  0  0  0  0  0  0  0  0  0
    1.1407    1.0513    0.7733 H   0  0  0  0  0  0  0  0  0  0  0  0
    0.1055    0.0400    2.3559 C   0  0  0  0  0  0  0  0  0  0  0  0
    0.1095    0.9257    2.9998 H   0  0  0  0  0  0  0  0  0  0  0  0
   -0.8168   -0.4995    2.5667 H   0  0  0  0  0  0  0  0  0  0  0  0
    1.3041   -0.8396    2.6994 C   0  0  0  0  0  0  0  0  0  0  0  0
    1.3144   -1.7012    2.0222 H   0  0  0  0  0  0  0  0  0  0  0  0
    2.2277   -0.2684    2.5539 H   0  0  0  0  0  0  0  0  0  0  0  0
    1.1999   -1.2962    4.0971 N   0  3  0  0  0  0  0  0  0  0  0  0
    0.4123   -0.9456    4.6402 H   0  0  0  0  0  0  0  0  0  0  0  0
    2.0490   -2.1081    4.6569 C   0  0  0  0  0  0  0  0  0  0  0  0
    3.1304   -2.6099    3.9685 N   0  0  0  0  0  0  0  0  0  0  0  0
    3.1622   -2.4771    2.9598 H   0  0  0  0  0  0  0  0  0  0  0  0
    3.6730   -3.3682    4.3762 H   0  0  0  0  0  0  0  0  0  0  0  0
    1.8698   -2.4743    5.9701 N   0  0  0  0  0  0  0  0  0  0  0  0
    1.0028   -2.2332    6.4468 H   0  0  0  0  0  0  0  0  0  0  0  0
    2.4761   -3.1806    6.3827 H   0  0  0  0  0  0  0  0  0  0  0  0
   -0.7025    2.2293   -0.8426 C   0  0  0  0  0  0  0  0  0  0  0  0
   -1.5861    2.9754   -1.2444 O   0  0  0  0  0  0  0  0  0  0  0  0
    0.4879    2.1578   -1.5456 N   0  0  0  0  0  0  0  0  0  0  0  0
    1.1574    1.4482   -1.2655 H   0  0  0  0  0  0  0  0  0  0  0  0
    0.7174    2.8812   -2.7928 C   0  0  0  0  0  0  0  0  0  0  0  0
    0.5960    3.9591   -2.6403 H   0  0  0  0  0  0  0  0  0  0  0  0
    1.7332    2.6990   -3.1571 H   0  0  0  0  0  0  0  0  0  0  0  0
    0.0095    2.5538   -3.5618 H   0  0  0  0  0  0  0  0  0  0  0  0
  1  2  1  0  0  0  0
  2  3  1  0  0  0  0
  2  4  1  0  0  0  0
  2  5  1  0  0  0  0
  5  6  2  0  0  0  0
  5  7  1  0  0  0  0
  7  8  1  0  0  0  0
  7  9  1  0  0  0  0
  9 10  1  0  0  0  0
  9 11  1  0  0  0  0
  9 29  1  0  0  0  0
 11 12  1  0  0  0  0
 11 13  1  0  0  0  0
 11 14  1  0  0  0  0
 14 15  1  0  0  0  0
 14 16  1  0  0  0  0
 14 17  1  0  0  0  0
 17 18  1  0  0  0  0
 17 19  1  0  0  0  0
 17 20  1  0  0  0  0
 20 21  1  0  0  0  0
 20 22  2  0  0  0  0
 22 23  1  0  0  0  0
 22 26  1  0  0  0  0
 23 24  1  0  0  0  0
 23 25  1  0  0  0  0
 26 27  1  0  0  0  0
 26 28  1  0  0  0  0
 29 30  2  0  0  0  0
 29 31  1  0  0  0  0
 31 32  1  0  0  0  0
 31 33  1  0  0  0  0
 33 34  1  0  0  0  0
 33 35  1  0  0  0  0
 33 36  1  0  0  0  0
M  CHG  1  20   1
M  END
$$$$

  -OEChem-02172215453D

 36 35  0     1  0  0  0  0  0999 V2000
   -4.5927   -1.6796    0.7596 H   0  0  0  0  0  0  0  0  0  0  0  0
   -4.3336   -0.6589    0.4646 C   0  0  0  0  0  0  0  0  0  0  0  0
   -4.8680    0.0403    1.1124 H   0  0  0  0  0  0  0  0  0  0  0  0
   -4.6516   -0.5006   -0.5690 H   0  0  0  0  0  0  0  0  0  0  0  0
   -2.8369   -0.4409    0.5834 C   0  0  0  0  0  0  0  0  0  0  0  0
   -2.1200   -1.4035    0.8050 O   0  0  0  0  0  0  0  0  0  0  0  0
   -2.3331    0.8216    0.3240 N   0  0  0  0  0  0  0  0  0  0  0  0
   -3.0338    1.4943    0.0110 H   0  0  0  0  0  0  0  0  0  0  0  0
   -0.9637    1.3786    0.4218 C   0  0  1  0  0  0  0  0  0  0  0  0
   -1.0243    2.1389    1.2074 H   0  0  0  0  0  0  0  0  0  0  0  0
    0.2060    0.4689    0.8753 C   0  0  0  0  0  0  0  0  0  0  0  0
    0.2494   -0.4095    0.2222 H   0  0  0  0  0  0  0  0  0  0  0  0
    1.1469    1.0164    0.7540 H   0  0  0  0  0  0  0  0  0  0  0  0
    0.1059    0.0192    2.3475 C   0  0  0  0  0  0  0  0  0  0  0  0
    0.1156    0.9068    2.9891 H   0  0  0  0  0  0  0  0  0  0  0  0
   -0.8203   -0.5150    2.5573 H   0  0  0  0  0  0  0  0  0  0  0  0
    1.2972   -0.8700    2.6931 C   0  0  0  0  0  0  0  0  0  0  0  0
    1.2997   -1.7353    2.0204 H   0  0  0  0  0  0  0  0  0  0  0  0
    2.2246   -0.3069    2.5431 H   0  0  0  0  0  0  0  0  0  0  0  0
    1.1898   -1.3202    4.0927 N   0  3  0  0  0  0  0  0  0  0  0  0
    0.3964   -0.9724    4.6294 H   0  0  0  0  0  0  0  0  0  0  0  0
    2.0318   -2.1373    4.6557 C   0  0  0  0  0  0  0  0  0  0  0  0
    3.1095   -2.6527    3.9721 N   0  0  0  0  0  0  0  0  0  0  0  0
    3.3232   -2.2675    3.0545 H   0  0  0  0  0  0  0  0  0  0  0  0
    3.8606   -3.0956    4.4973 H   0  0  0  0  0  0  0  0  0  0  0  0
    1.8447   -2.5081    5.9659 N   0  0  0  0  0  0  0  0  0  0  0  0
    0.9564   -2.2879    6.4123 H   0  0  0  0  0  0  0  0  0  0  0  0
    2.3712   -3.3034    6.3228 H   0  0  0  0  0  0  0  0  0  0  0  0
   -0.6735    2.2021   -0.8515 C   0  0  0  0  0  0  0  0  0  0  0  0
   -1.4262    3.1273   -1.1240 O   0  0  0  0  0  0  0  0  0  0  0  0
    0.3673    1.8972   -1.7112 N   0  0  0  0  0  0  0  0  0  0  0  0
    0.8743    1.0339   -1.5425 H   0  0  0  0  0  0  0  0  0  0  0  0
    0.5834    2.6002   -2.9724 C   0  0  0  0  0  0  0  0  0  0  0  0
    0.7047    3.6746   -2.7969 H   0  0  0  0  0  0  0  0  0  0  0  0
    1.4873    2.2296   -3.4654 H   0  0  0  0  0  0  0  0  0  0  0  0
   -0.2663    2.4490   -3.6470 H   0  0  0  0  0  0  0  0  0  0  0  0
  1  2  1  0  0  0  0
  2  3  1  0  0  0  0
  2  4  1  0  0  0  0
  2  5  1  0  0  0  0
  5  6  2  0  0  0  0
  5  7  1  0  0  0  0
  7  8  1  0  0  0  0
  7  9  1  0  0  0  0
  9 10  1  0  0  0  0
  9 11  1  0  0  0  0
  9 29  1  0  0  0  0
 11 12  1  0  0  0  0
 11 13  1  0  0  0  0
 11 14  1  0  0  0  0
 14 15  1  0  0  0  0
 14 16  1  0  0  0  0
 14 17  1  0  0  0  0
 17 18  1  0  0  0  0
 17 19  1  0  0  0  0
 17 20  1  0  0  0  0
 20 21  1  0  0  0  0
 20 22  2  0  0  0  0
 22 23  1  0  0  0  0
 22 26  1  0  0  0  0
 23 24  1  0  0  0  0
 23 25  1  0  0  0  0
 26 27  1  0  0  0  0
 26 28  1  0  0  0  0
 29 30  2  0  0  0  0
 29 31  1  0  0  0  0
 31 32  1  0  0  0  0
 31 33  1  0  0  0  0
 33 34  1  0  0  0  0
 33 35  1  0  0  0  0
 33 36  1  0  0  0  0
M  CHG  1  20   1
M  END
$$$$

  -OEChem-02172215453D

 36 35  0     1  0  0  0  0  0999 V2000
   -4.5611   -1.7201    0.7791 H   0  0  0  0  0  0  0  0  0  0  0  0
   -4.3200   -0.6960    0.4802 C   0  0  0  0  0  0  0  0  0  0  0  0
   -4.8451   -0.0043    1.1434 H   0  0  0  0  0  0  0  0  0  0  0  0
   -4.6651   -0.5386   -0.5449 H   0  0  0  0  0  0  0  0  0  0  0  0
   -2.8233   -0.4629    0.5632 C   0  0  0  0  0  0  0  0  0  0  0  0
   -2.0906   -1.4178    0.7664 O   0  0  0  0  0  0  0  0  0  0  0  0
   -2.3363    0.8044    0.2943 N   0  0  0  0  0  0  0  0  0  0  0  0
   -3.0523    1.4754    0.0162 H   0  0  0  0  0  0  0  0  0  0  0  0
   -0.9753    1.3782    0.4110 C   0  0  1  0  0  0  0  0  0  0  0  0
   -1.0564    2.1407    1.1930 H   0  0  0  0  0  0  0  0  0  0  0  0
    0.2011    0.4864    0.8781 C   0  0  0  0  0  0  0  0  0  0  0  0
    0.2669   -0.3903    0.2252 H   0  0  0  0  0  0  0  0  0  0  0  0
    1.1332    1.0512    0.7642 H   0  0  0  0  0  0  0  0  0  0  0  0
    0.0933    0.0316    2.3480 C   0  0  0  0  0  0  0  0  0  0  0  0
    0.0841    0.9173    2.9918 H   0  0  0  0  0  0  0  0  0  0  0  0
   -0.8268   -0.5167    2.5473 H   0  0  0  0  0  0  0  0  0  0  0  0
    1.2962   -0.8393    2.6998 C   0  0  0  0  0  0  0  0  0  0  0  0
    1.3178   -1.7001    2.0222 H   0  0  0  0  0  0  0  0  0  0  0  0
    2.2161   -0.2605    2.5602 H   0  0  0  0  0  0  0  0  0  0  0  0
    1.1893   -1.2992    4.0964 N   0  3  0  0  0  0  0  0  0  0  0  0
    0.3949   -0.9585    4.6360 H   0  0  0  0  0  0  0  0  0  0  0  0
    2.0436   -2.1051    4.6577 C   0  0  0  0  0  0  0  0  0  0  0  0
    3.1322   -2.5956    3.9722 N   0  0  0  0  0  0  0  0  0  0  0  0
    3.1712   -2.4532    2.9650 H   0  0  0  0  0  0  0  0  0  0  0  0
    3.6771   -3.3535    4.3777 H   0  0  0  0  0  0  0  0  0  0  0  0
    1.8621   -2.4789    5.9685 N   0  0  0  0  0  0  0  0  0  0  0  0
    1.0154   -2.2077    6.4648 H   0  0  0  0  0  0  0  0  0  0  0  0
    2.4974   -3.1470    6.4005 H   0  0  0  0  0  0  0  0  0  0  0  0
   -0.6619    2.1890   -0.8624 C   0  0  0  0  0  0  0  0  0  0  0  0
   -1.2523    3.2442   -1.0424 O   0  0  0  0  0  0  0  0  0  0  0  0
    0.1947    1.7088   -1.8368 N   0  0  0  0  0  0  0  0  0  0  0  0
    0.5299    0.7559   -1.7303 H   0  0  0  0  0  0  0  0  0  0  0  0
    0.3950    2.3808   -3.1167 C   0  0  0  0  0  0  0  0  0  0  0  0
    0.7577    3.4028   -2.9620 H   0  0  0  0  0  0  0  0  0  0  0  0
    1.1342    1.8418   -3.7174 H   0  0  0  0  0  0  0  0  0  0  0  0
   -0.5440    2.4234   -3.6789 H   0  0  0  0  0  0  0  0  0  0  0  0
  1  2  1  0  0  0  0
  2  3  1  0  0  0  0
  2  4  1  0  0  0  0
  2  5  1  0  0  0  0
  5  6  2  0  0  0  0
  5  7  1  0  0  0  0
  7  8  1  0  0  0  0
  7  9  1  0  0  0  0
  9 10  1  0  0  0  0
  9 11  1  0  0  0  0
  9 29  1  0  0  0  0
 11 12  1  0  0  0  0
 11 13  1  0  0  0  0
 11 14  1  0  0  0  0
 14 15  1  0  0  0  0
 14 16  1  0  0  0  0
 14 17  1  0  0  0  0
 17 18  1  0  0  0  0
 17 19  1  0  0  0  0
 17 20  1  0  0  0  0
 20 21  1  0  0  0  0
 20 22  2  0  0  0  0
 22 23  1  0  0  0  0
 22 26  1  0  0  0  0
 23 24  1  0  0  0  0
 23 25  1  0  0  0  0
 26 27  1  0  0  0  0
 26 28  1  0  0  0  0
 29 30  2  0  0  0  0
 29 31  1  0  0  0  0
 31 32  1  0  0  0  0
 31 33  1  0  0  0  0
 33 34  1  0  0  0  0
 33 35  1  0  0  0  0
 33 36  1  0  0  0  0
M  CHG  1  20   1
M  END
$$$$

  -OEChem-02172215453D

 36 35  0     1  0  0  0  0  0999 V2000
   -4.5798   -1.7248    0.8157 H   0  0  0  0  0  0  0  0  0  0  0  0
   -4.3415   -0.7022    0.5097 C   0  0  0  0  0  0  0  0  0  0  0  0
   -4.8565   -0.0075    1.1777 H   0  0  0  0  0  0  0  0  0  0  0  0
   -4.7014   -0.5482   -0.5108 H   0  0  0  0  0  0  0  0  0  0  0  0
   -2.8433   -0.4715    0.5697 C   0  0  0  0  0  0  0  0  0  0  0  0
   -2.1087   -1.4264    0.7638 O   0  0  0  0  0  0  0  0  0  0  0  0
   -2.3566    0.7917    0.2828 N   0  0  0  0  0  0  0  0  0  0  0  0
   -3.0790    1.4671    0.0348 H   0  0  0  0  0  0  0  0  0  0  0  0
   -0.9939    1.3623    0.3974 C   0  0  1  0  0  0  0  0  0  0  0  0
   -1.0761    2.1296    1.1751 H   0  0  0  0  0  0  0  0  0  0  0  0
    0.1849    0.4768    0.8682 C   0  0  0  0  0  0  0  0  0  0  0  0
    0.2516   -0.4036    0.2202 H   0  0  0  0  0  0  0  0  0  0  0  0
    1.1149    1.0433    0.7460 H   0  0  0  0  0  0  0  0  0  0  0  0
    0.0836    0.0283    2.3398 C   0  0  0  0  0  0  0  0  0  0  0  0
    0.0716    0.9160    2.9810 H   0  0  0  0  0  0  0  0  0  0  0  0
   -0.8328   -0.5255    2.5427 H   0  0  0  0  0  0  0  0  0  0  0  0
    1.2919   -0.8362    2.6890 C   0  0  0  0  0  0  0  0  0  0  0  0
    1.3150   -1.6994    2.0144 H   0  0  0  0  0  0  0  0  0  0  0  0
    2.2084   -0.2536    2.5429 H   0  0  0  0  0  0  0  0  0  0  0  0
    1.1932   -1.2908    4.0877 N   0  3  0  0  0  0  0  0  0  0  0  0
    0.4035   -0.9455    4.6313 H   0  0  0  0  0  0  0  0  0  0  0  0
    2.0531   -2.0907    4.6486 C   0  0  0  0  0  0  0  0  0  0  0  0
    3.1406   -2.5798    3.9607 N   0  0  0  0  0  0  0  0  0  0  0  0
    3.1817   -2.4356    2.9538 H   0  0  0  0  0  0  0  0  0  0  0  0
    3.7005   -3.3239    4.3711 H   0  0  0  0  0  0  0  0  0  0  0  0
    1.8802   -2.4560    5.9628 N   0  0  0  0  0  0  0  0  0  0  0  0
    1.0230   -2.2039    6.4510 H   0  0  0  0  0  0  0  0  0  0  0  0
    2.5047   -3.1407    6.3844 H   0  0  0  0  0  0  0  0  0  0  0  0
   -0.6605    2.1553   -0.8800 C   0  0  0  0  0  0  0  0  0  0  0  0
   -0.9979    3.3274   -0.9549 O   0  0  0  0  0  0  0  0  0  0  0  0
   -0.0551    1.5419   -1.9615 N   0  0  0  0  0  0  0  0  0  0  0  0
    0.0609    0.5332   -1.9164 H   0  0  0  0  0  0  0  0  0  0  0  0
    0.1651    2.2173   -3.2363 C   0  0  0  0  0  0  0  0  0  0  0  0
    0.7693    3.1197   -3.0940 H   0  0  0  0  0  0  0  0  0  0  0  0
    0.6942    1.5566   -3.9301 H   0  0  0  0  0  0  0  0  0  0  0  0
   -0.7903    2.5025   -3.6896 H   0  0  0  0  0  0  0  0  0  0  0  0
  1  2  1  0  0  0  0
  2  3  1  0  0  0  0
  2  4  1  0  0  0  0
  2  5  1  0  0  0  0
  5  6  2  0  0  0  0
  5  7  1  0  0  0  0
  7  8  1  0  0  0  0
  7  9  1  0  0  0  0
  9 10  1  0  0  0  0
  9 11  1  0  0  0  0
  9 29  1  0  0  0  0
 11 12  1  0  0  0  0
 11 13  1  0  0  0  0
 11 14  1  0  0  0  0
 14 15  1  0  0  0  0
 14 16  1  0  0  0  0
 14 17  1  0  0  0  0
 17 18  1  0  0  0  0
 17 19  1  0  0  0  0
 17 20  1  0  0  0  0
 20 21  1  0  0  0  0
 20 22  2  0  0  0  0
 22 23  1  0  0  0  0
 22 26  1  0  0  0  0
 23 24  1  0  0  0  0
 23 25  1  0  0  0  0
 26 27  1  0  0  0  0
 26 28  1  0  0  0  0
 29 30  2  0  0  0  0
 29 31  1  0  0  0  0
 31 32  1  0  0  0  0
 31 33  1  0  0  0  0
 33 34  1  0  0  0  0
 33 35  1  0  0  0  0
 33 36  1  0  0  0  0
M  CHG  1  20   1
M  END
$$$$

  -OEChem-02172215453D

 36 35  0     1  0  0  0  0  0999 V2000
   -4.5918   -1.7521    0.8038 H   0  0  0  0  0  0  0  0  0  0  0  0
   -4.3652   -0.7125    0.5499 C   0  0  0  0  0  0  0  0  0  0  0  0
   -4.8602   -0.0591    1.2722 H   0  0  0  0  0  0  0  0  0  0  0  0
   -4.7565   -0.5027   -0.4488 H   0  0  0  0  0  0  0  0  0  0  0  0
   -2.8663   -0.4795    0.5777 C   0  0  0  0  0  0  0  0  0  0  0  0
   -2.1260   -1.4328    0.7565 O   0  0  0  0  0  0  0  0  0  0  0  0
   -2.3854    0.7811    0.2696 N   0  0  0  0  0  0  0  0  0  0  0  0
   -3.1153    1.4551    0.0428 H   0  0  0  0  0  0  0  0  0  0  0  0
   -1.0244    1.3582    0.3881 C   0  0  1  0  0  0  0  0  0  0  0  0
   -1.1139    2.1329    1.1575 H   0  0  0  0  0  0  0  0  0  0  0  0
    0.1567    0.4811    0.8665 C   0  0  0  0  0  0  0  0  0  0  0  0
    0.2308   -0.3998    0.2200 H   0  0  0  0  0  0  0  0  0  0  0  0
    1.0837    1.0529    0.7443 H   0  0  0  0  0  0  0  0  0  0  0  0
    0.0579    0.0345    2.3383 C   0  0  0  0  0  0  0  0  0  0  0  0
    0.0415    0.9229    2.9787 H   0  0  0  0  0  0  0  0  0  0  0  0
   -0.8543   -0.5260    2.5422 H   0  0  0  0  0  0  0  0  0  0  0  0
    1.2744   -0.8205    2.6818 C   0  0  0  0  0  0  0  0  0  0  0  0
    1.3014   -1.6818    2.0051 H   0  0  0  0  0  0  0  0  0  0  0  0
    2.1851   -0.2298    2.5313 H   0  0  0  0  0  0  0  0  0  0  0  0
    1.1904   -1.2806    4.0796 N   0  3  0  0  0  0  0  0  0  0  0  0
    0.4035   -0.9427    4.6319 H   0  0  0  0  0  0  0  0  0  0  0  0
    2.0638   -2.0745    4.6283 C   0  0  0  0  0  0  0  0  0  0  0  0
    3.1497   -2.5492    3.9274 N   0  0  0  0  0  0  0  0  0  0  0  0
    3.1866   -2.3916    2.9223 H   0  0  0  0  0  0  0  0  0  0  0  0
    3.7270   -3.2845    4.3296 H   0  0  0  0  0  0  0  0  0  0  0  0
    1.9071   -2.4507    5.9415 N   0  0  0  0  0  0  0  0  0  0  0  0
    1.0425   -2.2272    6.4306 H   0  0  0  0  0  0  0  0  0  0  0  0
    2.5320   -3.1470    6.3431 H   0  0  0  0  0  0  0  0  0  0  0  0
   -0.6711    2.1283   -0.8969 C   0  0  0  0  0  0  0  0  0  0  0  0
   -0.7074    3.3494   -0.8978 O   0  0  0  0  0  0  0  0  0  0  0  0
   -0.3409    1.4432   -2.0511 N   0  0  0  0  0  0  0  0  0  0  0  0
   -0.4314    0.4306   -2.0304 H   0  0  0  0  0  0  0  0  0  0  0  0
   -0.0856    2.1034   -3.3268 C   0  0  0  0  0  0  0  0  0  0  0  0
    0.7442    2.8121   -3.2335 H   0  0  0  0  0  0  0  0  0  0  0  0
    0.1778    1.3644   -4.0902 H   0  0  0  0  0  0  0  0  0  0  0  0
   -0.9752    2.6467   -3.6629 H   0  0  0  0  0  0  0  0  0  0  0  0
  1  2  1  0  0  0  0
  2  3  1  0  0  0  0
  2  4  1  0  0  0  0
  2  5  1  0  0  0  0
  5  6  2  0  0  0  0
  5  7  1  0  0  0  0
  7  8  1  0  0  0  0
  7  9  1  0  0  0  0
  9 10  1  0  0  0  0
  9 11  1  0  0  0  0
  9 29  1  0  0  0  0
 11 12  1  0  0  0  0
 11 13  1  0  0  0  0
 11 14  1  0  0  0  0
 14 15  1  0  0  0  0
 14 16  1  0  0  0  0
 14 17  1  0  0  0  0
 17 18  1  0  0  0  0
 17 19  1  0  0  0  0
 17 20  1  0  0  0  0
 20 21  1  0  0  0  0
 20 22  2  0  0  0  0
 22 23  1  0  0  0  0
 22 26  1  0  0  0  0
 23 24  1  0  0  0  0
 23 25  1  0  0  0  0
 26 27  1  0  0  0  0
 26 28  1  0  0  0  0
 29 30  2  0  0  0  0
 29 31  1  0  0  0  0
 31 32  1  0  0  0  0
 31 33  1  0  0  0  0
 33 34  1  0  0  0  0
 33 35  1  0  0  0  0
 33 36  1  0  0  0  0
M  CHG  1  20   1
M  END
$$$$

  -OEChem-02172215453D

 36 35  0     1  0  0  0  0  0999 V2000
   -4.6397   -1.7238    0.9154 H   0  0  0  0  0  0  0  0  0  0  0  0
   -4.4074   -0.6999    0.6090 C   0  0  0  0  0  0  0  0  0  0  0  0
   -4.8814   -0.0084    1.3098 H   0  0  0  0  0  0  0  0  0  0  0  0
   -4.8169   -0.5324   -0.3904 H   0  0  0  0  0  0  0  0  0  0  0  0
   -2.9060   -0.4829    0.5972 C   0  0  0  0  0  0  0  0  0  0  0  0
   -2.1713   -1.4420    0.7652 O   0  0  0  0  0  0  0  0  0  0  0  0
   -2.4194    0.7713    0.2726 N   0  0  0  0  0  0  0  0  0  0  0  0
   -3.1489    1.4516    0.0658 H   0  0  0  0  0  0  0  0  0  0  0  0
   -1.0515    1.3376    0.3767 C   0  0  1  0  0  0  0  0  0  0  0  0
   -1.1304    2.1170    1.1423 H   0  0  0  0  0  0  0  0  0  0  0  0
    0.1278    0.4557    0.8480 C   0  0  0  0  0  0  0  0  0  0  0  0
    0.1903   -0.4273    0.2031 H   0  0  0  0  0  0  0  0  0  0  0  0
    1.0573    1.0205    0.7141 H   0  0  0  0  0  0  0  0  0  0  0  0
    0.0413    0.0161    2.3217 C   0  0  0  0  0  0  0  0  0  0  0  0
    0.0360    0.9069    2.9587 H   0  0  0  0  0  0  0  0  0  0  0  0
   -0.8715   -0.5398    2.5356 H   0  0  0  0  0  0  0  0  0  0  0  0
    1.2570   -0.8440    2.6546 C   0  0  0  0  0  0  0  0  0  0  0  0
    1.2724   -1.7092    1.9818 H   0  0  0  0  0  0  0  0  0  0  0  0
    2.1681   -0.2581    2.4909 H   0  0  0  0  0  0  0  0  0  0  0  0
    1.1842   -1.2972    4.0550 N   0  3  0  0  0  0  0  0  0  0  0  0
    0.3965   -0.9638    4.6087 H   0  0  0  0  0  0  0  0  0  0  0  0
    2.0577   -2.0932    4.5998 C   0  0  0  0  0  0  0  0  0  0  0  0
    3.1352   -2.5791    3.8949 N   0  0  0  0  0  0  0  0  0  0  0  0
    3.3248   -2.1793    2.9779 H   0  0  0  0  0  0  0  0  0  0  0  0
    3.9092   -2.9972    4.4071 H   0  0  0  0  0  0  0  0  0  0  0  0
    1.9068   -2.4692    5.9129 N   0  0  0  0  0  0  0  0  0  0  0  0
    1.0231   -2.2713    6.3782 H   0  0  0  0  0  0  0  0  0  0  0  0
    2.4627   -3.2490    6.2591 H   0  0  0  0  0  0  0  0  0  0  0  0
   -0.6841    2.0960   -0.9109 C   0  0  0  0  0  0  0  0  0  0  0  0
   -0.3817    3.2783   -0.8505 O   0  0  0  0  0  0  0  0  0  0  0  0
   -0.6632    1.4352   -2.1242 N   0  0  0  0  0  0  0  0  0  0  0  0
   -0.9585    0.4620   -2.1296 H   0  0  0  0  0  0  0  0  0  0  0  0
   -0.3595    2.0938   -3.3900 C   0  0  0  0  0  0  0  0  0  0  0  0
    0.6370    2.5471   -3.3573 H   0  0  0  0  0  0  0  0  0  0  0  0
   -0.3817    1.3694   -4.2101 H   0  0  0  0  0  0  0  0  0  0  0  0
   -1.0949    2.8777   -3.6005 H   0  0  0  0  0  0  0  0  0  0  0  0
  1  2  1  0  0  0  0
  2  3  1  0  0  0  0
  2  4  1  0  0  0  0
  2  5  1  0  0  0  0
  5  6  2  0  0  0  0
  5  7  1  0  0  0  0
  7  8  1  0  0  0  0
  7  9  1  0  0  0  0
  9 10  1  0  0  0  0
  9 11  1  0  0  0  0
  9 29  1  0  0  0  0
 11 12  1  0  0  0  0
 11 13  1  0  0  0  0
 11 14  1  0  0  0  0
 14 15  1  0  0  0  0
 14 16  1  0  0  0  0
 14 17  1  0  0  0  0
 17 18  1  0  0  0  0
 17 19  1  0  0  0  0
 17 20  1  0  0  0  0
 20 21  1  0  0  0  0
 20 22  2  0  0  0  0
 22 23  1  0  0  0  0
 22 26  1  0  0  0  0
 23 24  1  0  0  0  0
 23 25  1  0  0  0  0
 26 27  1  0  0  0  0
 26 28  1  0  0  0  0
 29 30  2  0  0  0  0
 29 31  1  0  0  0  0
 31 32  1  0  0  0  0
 31 33  1  0  0  0  0
 33 34  1  0  0  0  0
 33 35  1  0  0  0  0
 33 36  1  0  0  0  0
M  CHG  1  20   1
M  END
$$$$

  -OEChem-02172215453D

 36 35  0     1  0  0  0  0  0999 V2000
   -4.6596   -1.7472    0.9307 H   0  0  0  0  0  0  0  0  0  0  0  0
   -4.4340   -0.7169    0.6404 C   0  0  0  0  0  0  0  0  0  0  0  0
   -4.9015   -0.0401    1.3596 H   0  0  0  0  0  0  0  0  0  0  0  0
   -4.8564   -0.5319   -0.3506 H   0  0  0  0  0  0  0  0  0  0  0  0
   -2.9332   -0.4953    0.6147 C   0  0  0  0  0  0  0  0  0  0  0  0
   -2.1950   -1.4514    0.7809 O   0  0  0  0  0  0  0  0  0  0  0  0
   -2.4538    0.7589    0.2780 N   0  0  0  0  0  0  0  0  0  0  0  0
   -3.1892    1.4358    0.0814 H   0  0  0  0  0  0  0  0  0  0  0  0
   -1.0874    1.3342    0.3755 C   0  0  1  0  0  0  0  0  0  0  0  0
   -1.1686    2.1189    1.1355 H   0  0  0  0  0  0  0  0  0  0  0  0
    0.0958    0.4572    0.8475 C   0  0  0  0  0  0  0  0  0  0  0  0
    0.1599   -0.4262    0.2035 H   0  0  0  0  0  0  0  0  0  0  0  0
    1.0235    1.0244    0.7100 H   0  0  0  0  0  0  0  0  0  0  0  0
    0.0194    0.0194    2.3225 C   0  0  0  0  0  0  0  0  0  0  0  0
    0.0153    0.9112    2.9582 H   0  0  0  0  0  0  0  0  0  0  0  0
   -0.8893   -0.5401    2.5435 H   0  0  0  0  0  0  0  0  0  0  0  0
    1.2417   -0.8351    2.6463 C   0  0  0  0  0  0  0  0  0  0  0  0
    1.2565   -1.6994    1.9727 H   0  0  0  0  0  0  0  0  0  0  0  0
    2.1483   -0.2444    2.4746 H   0  0  0  0  0  0  0  0  0  0  0  0
    1.1863   -1.2907    4.0467 N   0  3  0  0  0  0  0  0  0  0  0  0
    0.4061   -0.9582    4.6113 H   0  0  0  0  0  0  0  0  0  0  0  0
    2.0710   -2.0829    4.5794 C   0  0  0  0  0  0  0  0  0  0  0  0
    3.1428   -2.5603    3.8597 N   0  0  0  0  0  0  0  0  0  0  0  0
    3.3172   -2.1566    2.9415 H   0  0  0  0  0  0  0  0  0  0  0  0
    3.9269   -2.9723    4.3610 H   0  0  0  0  0  0  0  0  0  0  0  0
    1.9379   -2.4642    5.8932 N   0  0  0  0  0  0  0  0  0  0  0  0
    1.0582   -2.2733    6.3688 H   0  0  0  0  0  0  0  0  0  0  0  0
    2.5014   -3.2428    6.2298 H   0  0  0  0  0  0  0  0  0  0  0  0
   -0.7146    2.0862   -0.9154 C   0  0  0  0  0  0  0  0  0  0  0  0
   -0.1428    3.1636   -0.8407 O   0  0  0  0  0  0  0  0  0  0  0  0
   -0.9766    1.5246   -2.1506 N   0  0  0  0  0  0  0  0  0  0  0  0
   -1.4166    0.6078   -2.1614 H   0  0  0  0  0  0  0  0  0  0  0  0
   -0.6268    2.1625   -3.4151 C   0  0  0  0  0  0  0  0  0  0  0  0
    0.4553    2.3180   -3.4812 H   0  0  0  0  0  0  0  0  0  0  0  0
   -0.9372    1.5344   -4.2557 H   0  0  0  0  0  0  0  0  0  0  0  0
   -1.1270    3.1327   -3.5062 H   0  0  0  0  0  0  0  0  0  0  0  0
  1  2  1  0  0  0  0
  2  3  1  0  0  0  0
  2  4  1  0  0  0  0
  2  5  1  0  0  0  0
  5  6  2  0  0  0  0
  5  7  1  0  0  0  0
  7  8  1  0  0  0  0
  7  9  1  0  0  0  0
  9 10  1  0  0  0  0
  9 11  1  0  0  0  0
  9 29  1  0  0  0  0
 11 12  1  0  0  0  0
 11 13  1  0  0  0  0
 11 14  1  0  0  0  0
 14 15  1  0  0  0  0
 14 16  1  0  0  0  0
 14 17  1  0  0  0  0
 17 18  1  0  0  0  0
 17 19  1  0  0  0  0
 17 20  1  0  0  0  0
 20 21  1  0  0  0  0
 20 22  2  0  0  0  0
 22 23  1  0  0  0  0
 22 26  1  0  0  0  0
 23 24  1  0  0  0  0
 23 25  1  0  0  0  0
 26 27  1  0  0  0  0
 26 28  1  0  0  0  0
 29 30  2  0  0  0  0
 29 31  1  0  0  0  0
 31 32  1  0  0  0  0
 31 33  1  0  0  0  0
 33 34  1  0  0  0  0
 33 35  1  0  0  0  0
 33 36  1  0  0  0  0
M  CHG  1  20   1
M  END
$$$$

  -OEChem-02172215453D

 36 35  0     1  0  0  0  0  0999 V2000
   -4.6557   -1.7597    0.9972 H   0  0  0  0  0  0  0  0  0  0  0  0
   -4.4362   -0.7389    0.6709 C   0  0  0  0  0  0  0  0  0  0  0  0
   -4.9026   -0.0402    1.3697 H   0  0  0  0  0  0  0  0  0  0  0  0
   -4.8655   -0.5893   -0.3229 H   0  0  0  0  0  0  0  0  0  0  0  0
   -2.9368   -0.5119    0.6275 C   0  0  0  0  0  0  0  0  0  0  0  0
   -2.1944   -1.4661    0.7848 O   0  0  0  0  0  0  0  0  0  0  0  0
   -2.4677    0.7447    0.2836 N   0  0  0  0  0  0  0  0  0  0  0  0
   -3.2103    1.4182    0.1040 H   0  0  0  0  0  0  0  0  0  0  0  0
   -1.1041    1.3321    0.3719 C   0  0  1  0  0  0  0  0  0  0  0  0
   -1.1850    2.1197    1.1285 H   0  0  0  0  0  0  0  0  0  0  0  0
    0.0825    0.4563    0.8408 C   0  0  0  0  0  0  0  0  0  0  0  0
    0.1448   -0.4274    0.1966 H   0  0  0  0  0  0  0  0  0  0  0  0
    1.0105    1.0222    0.7008 H   0  0  0  0  0  0  0  0  0  0  0  0
    0.0121    0.0200    2.3165 C   0  0  0  0  0  0  0  0  0  0  0  0
    0.0099    0.9125    2.9511 H   0  0  0  0  0  0  0  0  0  0  0  0
   -0.8950   -0.5402    2.5420 H   0  0  0  0  0  0  0  0  0  0  0  0
    1.2364   -0.8328    2.6363 C   0  0  0  0  0  0  0  0  0  0  0  0
    1.2501   -1.6976    1.9628 H   0  0  0  0  0  0  0  0  0  0  0  0
    2.1414   -0.2404    2.4619 H   0  0  0  0  0  0  0  0  0  0  0  0
    1.1847   -1.2862    4.0376 N   0  3  0  0  0  0  0  0  0  0  0  0
    0.4039   -0.9562    4.6027 H   0  0  0  0  0  0  0  0  0  0  0  0
    2.0709   -2.0768    4.5696 C   0  0  0  0  0  0  0  0  0  0  0  0
    3.1412   -2.5547    3.8482 N   0  0  0  0  0  0  0  0  0  0  0  0
    3.3131   -2.1538    2.9282 H   0  0  0  0  0  0  0  0  0  0  0  0
    3.9254   -2.9689    4.3474 H   0  0  0  0  0  0  0  0  0  0  0  0
    1.9399   -2.4563    5.8841 N   0  0  0  0  0  0  0  0  0  0  0  0
    1.0609   -2.2654    6.3609 H   0  0  0  0  0  0  0  0  0  0  0  0
    2.5051   -3.2333    6.2212 H   0  0  0  0  0  0  0  0  0  0  0  0
   -0.7349    2.0852   -0.9215 C   0  0  0  0  0  0  0  0  0  0  0  0
    0.0323    3.0350   -0.8652 O   0  0  0  0  0  0  0  0  0  0  0  0
   -1.2531    1.6883   -2.1401 N   0  0  0  0  0  0  0  0  0  0  0  0
   -1.8074    0.8361   -2.1508 H   0  0  0  0  0  0  0  0  0  0  0  0
   -0.9134    2.3307   -3.4051 C   0  0  0  0  0  0  0  0  0  0  0  0
    0.1601    2.2449   -3.6042 H   0  0  0  0  0  0  0  0  0  0  0  0
   -1.4567    1.8576   -4.2290 H   0  0  0  0  0  0  0  0  0  0  0  0
   -1.1827    3.3921   -3.3805 H   0  0  0  0  0  0  0  0  0  0  0  0
  1  2  1  0  0  0  0
  2  3  1  0  0  0  0
  2  4  1  0  0  0  0
  2  5  1  0  0  0  0
  5  6  2  0  0  0  0
  5  7  1  0  0  0  0
  7  8  1  0  0  0  0
  7  9  1  0  0  0  0
  9 10  1  0  0  0  0
  9 11  1  0  0  0  0
  9 29  1  0  0  0  0
 11 12  1  0  0  0  0
 11 13  1  0  0  0  0
 11 14  1  0  0  0  0
 14 15  1  0  0  0  0
 14 16  1  0  0  0  0
 14 17  1  0  0  0  0
 17 18  1  0  0  0  0
 17 19  1  0  0  0  0
 17 20  1  0  0  0  0
 20 21  1  0  0  0  0
 20 22  2  0  0  0  0
 22 23  1  0  0  0  0
 22 26  1  0  0  0  0
 23 24  1  0  0  0  0
 23 25  1  0  0  0  0
 26 27  1  0  0  0  0
 26 28  1  0  0  0  0
 29 30  2  0  0  0  0
 29 31  1  0  0  0  0
 31 32  1  0  0  0  0
 31 33  1  0  0  0  0
 33 34  1  0  0  0  0
 33 35  1  0  0  0  0
 33 36  1  0  0  0  0
M  CHG  1  20   1
M  END
$$$$

  -OEChem-02172215453D

 36 35  0     1  0  0  0  0  0999 V2000
   -4.6575   -1.7790    1.0109 H   0  0  0  0  0  0  0  0  0  0  0  0
   -4.4429   -0.7566    0.6866 C   0  0  0  0  0  0  0  0  0  0  0  0
   -4.9054   -0.0615    1.3917 H   0  0  0  0  0  0  0  0  0  0  0  0
   -4.8800   -0.6053   -0.3035 H   0  0  0  0  0  0  0  0  0  0  0  0
   -2.9441   -0.5263    0.6331 C   0  0  0  0  0  0  0  0  0  0  0  0
   -2.2000   -1.4785    0.7935 O   0  0  0  0  0  0  0  0  0  0  0  0
   -2.4813    0.7320    0.2847 N   0  0  0  0  0  0  0  0  0  0  0  0
   -3.2290    1.4048    0.1247 H   0  0  0  0  0  0  0  0  0  0  0  0
   -1.1185    1.3258    0.3647 C   0  0  1  0  0  0  0  0  0  0  0  0
   -1.1989    2.1160    1.1182 H   0  0  0  0  0  0  0  0  0  0  0  0
    0.0670    0.4487    0.8394 C   0  0  0  0  0  0  0  0  0  0  0  0
    0.1259   -0.4384    0.1998 H   0  0  0  0  0  0  0  0  0  0  0  0
    0.9988    1.0076    0.6970 H   0  0  0  0  0  0  0  0  0  0  0  0
   -0.0002    0.0212    2.3174 C   0  0  0  0  0  0  0  0  0  0  0  0
    0.0025    0.9169    2.9474 H   0  0  0  0  0  0  0  0  0  0  0  0
   -0.9075   -0.5357    2.5501 H   0  0  0  0  0  0  0  0  0  0  0  0
    1.2251   -0.8322    2.6331 C   0  0  0  0  0  0  0  0  0  0  0  0
    1.2318   -1.6998    1.9631 H   0  0  0  0  0  0  0  0  0  0  0  0
    2.1300   -0.2424    2.4488 H   0  0  0  0  0  0  0  0  0  0  0  0
    1.1848   -1.2816    4.0357 N   0  3  0  0  0  0  0  0  0  0  0  0
    0.4088   -0.9499    4.6063 H   0  0  0  0  0  0  0  0  0  0  0  0
    2.0757   -2.0714    4.5611 C   0  0  0  0  0  0  0  0  0  0  0  0
    3.1393   -2.5516    3.8310 N   0  0  0  0  0  0  0  0  0  0  0  0
    3.3024   -2.1536    2.9081 H   0  0  0  0  0  0  0  0  0  0  0  0
    3.9285   -2.9640    4.3238 H   0  0  0  0  0  0  0  0  0  0  0  0
    1.9592   -2.4436    5.8790 N   0  0  0  0  0  0  0  0  0  0  0  0
    1.0852   -2.2503    6.3639 H   0  0  0  0  0  0  0  0  0  0  0  0
    2.5282   -3.2187    6.2139 H   0  0  0  0  0  0  0  0  0  0  0  0
   -0.7486    2.0823   -0.9300 C   0  0  0  0  0  0  0  0  0  0  0  0
    0.1758    2.8825   -0.9161 O   0  0  0  0  0  0  0  0  0  0  0  0
   -1.4785    1.9024   -2.0907 N   0  0  0  0  0  0  0  0  0  0  0  0
   -2.1484    1.1383   -2.0958 H   0  0  0  0  0  0  0  0  0  0  0  0
   -1.1557    2.5672   -3.3489 C   0  0  0  0  0  0  0  0  0  0  0  0
   -0.1587    2.2735   -3.6941 H   0  0  0  0  0  0  0  0  0  0  0  0
   -1.8836    2.2953   -4.1195 H   0  0  0  0  0  0  0  0  0  0  0  0
   -1.1780    3.6553   -3.2245 H   0  0  0  0  0  0  0  0  0  0  0  0
  1  2  1  0  0  0  0
  2  3  1  0  0  0  0
  2  4  1  0  0  0  0
  2  5  1  0  0  0  0
  5  6  2  0  0  0  0
  5  7  1  0  0  0  0
  7  8  1  0  0  0  0
  7  9  1  0  0  0  0
  9 10  1  0  0  0  0
  9 11  1  0  0  0  0
  9 29  1  0  0  0  0
 11 12  1  0  0  0  0
 11 13  1  0  0  0  0
 11 14  1  0  0  0  0
 14 15  1  0  0  0  0
 14 16  1  0  0  0  0
 14 17  1  0  0  0  0
 17 18  1  0  0  0  0
 17 19  1  0  0  0  0
 17 20  1  0  0  0  0
 20 21  1  0  0  0  0
 20 22  2  0  0  0  0
 22 23  1  0  0  0  0
 22 26  1  0  0  0  0
 23 24  1  0  0  0  0
 23 25  1  0  0  0  0
 26 27  1  0  0  0  0
 26 28  1  0  0  0  0
 29 30  2  0  0  0  0
 29 31  1  0  0  0  0
 31 32  1  0  0  0  0
 31 33  1  0  0  0  0
 33 34  1  0  0  0  0
 33 35  1  0  0  0  0
 33 36  1  0  0  0  0
M  CHG  1  20   1
M  END
$$$$

  -OEChem-02172215453D

 36 35  0     1  0  0  0  0  0999 V2000
   -4.6374   -1.7981    1.0324 H   0  0  0  0  0  0  0  0  0  0  0  0
   -4.4320   -0.7759    0.7014 C   0  0  0  0  0  0  0  0  0  0  0  0
   -4.8891   -0.0804    1.4094 H   0  0  0  0  0  0  0  0  0  0  0  0
   -4.8822   -0.6306   -0.2839 H   0  0  0  0  0  0  0  0  0  0  0  0
   -2.9351   -0.5395    0.6280 C   0  0  0  0  0  0  0  0  0  0  0  0
   -2.1872   -1.4893    0.7838 O   0  0  0  0  0  0  0  0  0  0  0  0
   -2.4820    0.7227    0.2785 N   0  0  0  0  0  0  0  0  0  0  0  0
   -3.2362    1.3943    0.1496 H   0  0  0  0  0  0  0  0  0  0  0  0
   -1.1220    1.3260    0.3547 C   0  0  1  0  0  0  0  0  0  0  0  0
   -1.2044    2.1170    1.1068 H   0  0  0  0  0  0  0  0  0  0  0  0
    0.0625    0.4472    0.8358 C   0  0  0  0  0  0  0  0  0  0  0  0
    0.1222   -0.4412    0.1983 H   0  0  0  0  0  0  0  0  0  0  0  0
    0.9979    1.0011    0.6990 H   0  0  0  0  0  0  0  0  0  0  0  0
   -0.0081    0.0248    2.3150 C   0  0  0  0  0  0  0  0  0  0  0  0
   -0.0041    0.9220    2.9426 H   0  0  0  0  0  0  0  0  0  0  0  0
   -0.9160   -0.5305    2.5488 H   0  0  0  0  0  0  0  0  0  0  0  0
    1.2166   -0.8290    2.6301 C   0  0  0  0  0  0  0  0  0  0  0  0
    1.2216   -1.6969    1.9607 H   0  0  0  0  0  0  0  0  0  0  0  0
    2.1213   -0.2398    2.4434 H   0  0  0  0  0  0  0  0  0  0  0  0
    1.1789   -1.2772    4.0331 N   0  3  0  0  0  0  0  0  0  0  0  0
    0.4048   -0.9440    4.6055 H   0  0  0  0  0  0  0  0  0  0  0  0
    2.0709   -2.0671    4.5566 C   0  0  0  0  0  0  0  0  0  0  0  0
    3.1323   -2.5478    3.8240 N   0  0  0  0  0  0  0  0  0  0  0  0
    3.2910   -2.1522    2.8990 H   0  0  0  0  0  0  0  0  0  0  0  0
    3.9254   -2.9539    4.3161 H   0  0  0  0  0  0  0  0  0  0  0  0
    1.9560   -2.4425    5.8736 N   0  0  0  0  0  0  0  0  0  0  0  0
    1.0843   -2.2460    6.3615 H   0  0  0  0  0  0  0  0  0  0  0  0
    2.5197   -3.2239    6.2032 H   0  0  0  0  0  0  0  0  0  0  0  0
   -0.7591    2.0874   -0.9432 C   0  0  0  0  0  0  0  0  0  0  0  0
    0.2822    2.7263   -1.0022 O   0  0  0  0  0  0  0  0  0  0  0  0
   -1.6469    2.1506   -2.0025 N   0  0  0  0  0  0  0  0  0  0  0  0
   -2.4222    1.4948   -1.9861 H   0  0  0  0  0  0  0  0  0  0  0  0
   -1.3505    2.8512   -3.2482 C   0  0  0  0  0  0  0  0  0  0  0  0
   -0.4806    2.4060   -3.7428 H   0  0  0  0  0  0  0  0  0  0  0  0
   -2.2047    2.7917   -3.9296 H   0  0  0  0  0  0  0  0  0  0  0  0
   -1.1405    3.9085   -3.0535 H   0  0  0  0  0  0  0  0  0  0  0  0
  1  2  1  0  0  0  0
  2  3  1  0  0  0  0
  2  4  1  0  0  0  0
  2  5  1  0  0  0  0
  5  6  2  0  0  0  0
  5  7  1  0  0  0  0
  7  8  1  0  0  0  0
  7  9  1  0  0  0  0
  9 10  1  0  0  0  0
  9 11  1  0  0  0  0
  9 29  1  0  0  0  0
 11 12  1  0  0  0  0
 11 13  1  0  0  0  0
 11 14  1  0  0  0  0
 14 15  1  0  0  0  0
 14 16  1  0  0  0  0
 14 17  1  0  0  0  0
 17 18  1  0  0  0  0
 17 19  1  0  0  0  0
 17 20  1  0  0  0  0
 20 21  1  0  0  0  0
 20 22  2  0  0  0  0
 22 23  1  0  0  0  0
 22 26  1  0  0  0  0
 23 24  1  0  0  0  0
 23 25  1  0  0  0  0
 26 27  1  0  0  0  0
 26 28  1  0  0  0  0
 29 30  2  0  0  0  0
 29 31  1  0  0  0  0
 31 32  1  0  0  0  0
 31 33  1  0  0  0  0
 33 34  1  0  0  0  0
 33 35  1  0  0  0  0
 33 36  1  0  0  0  0
M  CHG  1  20   1
M  END
$$$$

  -OEChem-02172215453D

 36 35  0     1  0  0  0  0  0999 V2000
   -4.6235   -1.8150    1.0119 H   0  0  0  0  0  0  0  0  0  0  0  0
   -4.4227   -0.7871    0.6966 C   0  0  0  0  0  0  0  0  0  0  0  0
   -4.8777   -0.1047    1.4189 H   0  0  0  0  0  0  0  0  0  0  0  0
   -4.8792   -0.6276   -0.2834 H   0  0  0  0  0  0  0  0  0  0  0  0
   -2.9267   -0.5451    0.6173 C   0  0  0  0  0  0  0  0  0  0  0  0
   -2.1752   -1.4926    0.7703 O   0  0  0  0  0  0  0  0  0  0  0  0
   -2.4813    0.7206    0.2693 N   0  0  0  0  0  0  0  0  0  0  0  0
   -3.2408    1.3889    0.1633 H   0  0  0  0  0  0  0  0  0  0  0  0
   -1.1237    1.3304    0.3464 C   0  0  1  0  0  0  0  0  0  0  0  0
   -1.2080    2.1218    1.0974 H   0  0  0  0  0  0  0  0  0  0  0  0
    0.0583    0.4499    0.8371 C   0  0  0  0  0  0  0  0  0  0  0  0
    0.1218   -0.4386    0.2000 H   0  0  0  0  0  0  0  0  0  0  0  0
    0.9961    1.0008    0.7083 H   0  0  0  0  0  0  0  0  0  0  0  0
   -0.0168    0.0303    2.3173 C   0  0  0  0  0  0  0  0  0  0  0  0
   -0.0133    0.9279    2.9443 H   0  0  0  0  0  0  0  0  0  0  0  0
   -0.9256   -0.5245    2.5497 H   0  0  0  0  0  0  0  0  0  0  0  0
    1.2074   -0.8240    2.6340 C   0  0  0  0  0  0  0  0  0  0  0  0
    1.2120   -1.6916    1.9643 H   0  0  0  0  0  0  0  0  0  0  0  0
    2.1120   -0.2352    2.4463 H   0  0  0  0  0  0  0  0  0  0  0  0
    1.1737   -1.2742    4.0367 N   0  3  0  0  0  0  0  0  0  0  0  0
    0.4001   -0.9445    4.6115 H   0  0  0  0  0  0  0  0  0  0  0  0
    2.0689   -2.0644    4.5545 C   0  0  0  0  0  0  0  0  0  0  0  0
    3.1274   -2.5414    3.8146 N   0  0  0  0  0  0  0  0  0  0  0  0
    3.2810   -2.1431    2.8900 H   0  0  0  0  0  0  0  0  0  0  0  0
    3.9202   -2.9579    4.2982 H   0  0  0  0  0  0  0  0  0  0  0  0
    1.9602   -2.4438    5.8712 N   0  0  0  0  0  0  0  0  0  0  0  0
    1.0885   -2.2550    6.3621 H   0  0  0  0  0  0  0  0  0  0  0  0
    2.5318   -3.2204    6.1987 H   0  0  0  0  0  0  0  0  0  0  0  0
   -0.7689    2.0956   -0.9553 C   0  0  0  0  0  0  0  0  0  0  0  0
    0.3578    2.5426   -1.1209 O   0  0  0  0  0  0  0  0  0  0  0  0
   -1.7491    2.4186   -1.8785 N   0  0  0  0  0  0  0  0  0  0  0  0
   -2.6256    1.9124   -1.8088 H   0  0  0  0  0  0  0  0  0  0  0  0
   -1.4701    3.1535   -3.1090 C   0  0  0  0  0  0  0  0  0  0  0  0
   -0.7730    2.5937   -3.7415 H   0  0  0  0  0  0  0  0  0  0  0  0
   -2.3945    3.3172   -3.6717 H   0  0  0  0  0  0  0  0  0  0  0  0
   -1.0300    4.1306   -2.8820 H   0  0  0  0  0  0  0  0  0  0  0  0
  1  2  1  0  0  0  0
  2  3  1  0  0  0  0
  2  4  1  0  0  0  0
  2  5  1  0  0  0  0
  5  6  2  0  0  0  0
  5  7  1  0  0  0  0
  7  8  1  0  0  0  0
  7  9  1  0  0  0  0
  9 10  1  0  0  0  0
  9 11  1  0  0  0  0
  9 29  1  0  0  0  0
 11 12  1  0  0  0  0
 11 13  1  0  0  0  0
 11 14  1  0  0  0  0
 14 15  1  0  0  0  0
 14 16  1  0  0  0  0
 14 17  1  0  0  0  0
 17 18  1  0  0  0  0
 17 19  1  0  0  0  0
 17 20  1  0  0  0  0
 20 21  1  0  0  0  0
 20 22  2  0  0  0  0
 22 23  1  0  0  0  0
 22 26  1  0  0  0  0
 23 24  1  0  0  0  0
 23 25  1  0  0  0  0
 26 27  1  0  0  0  0
 26 28  1  0  0  0  0
 29 30  2  0  0  0  0
 29 31  1  0  0  0  0
 31 32  1  0  0  0  0
 31 33  1  0  0  0  0
 33 34  1  0  0  0  0
 33 35  1  0  0  0  0
 33 36  1  0  0  0  0
M  CHG  1  20   1
M  END
$$$$

  -OEChem-02172215453D

 36 35  0     1  0  0  0  0  0999 V2000
   -4.6174   -1.8216    0.9923 H   0  0  0  0  0  0  0  0  0  0  0  0
   -4.4182   -0.7982    0.6613 C   0  0  0  0  0  0  0  0  0  0  0  0
   -4.8916   -0.1059    1.3616 H   0  0  0  0  0  0  0  0  0  0  0  0
   -4.8560   -0.6611   -0.3307 H   0  0  0  0  0  0  0  0  0  0  0  0
   -2.9228   -0.5476    0.6062 C   0  0  0  0  0  0  0  0  0  0  0  0
   -2.1709   -1.4917    0.7768 O   0  0  0  0  0  0  0  0  0  0  0  0
   -2.4804    0.7221    0.2675 N   0  0  0  0  0  0  0  0  0  0  0  0
   -3.2433    1.3815    0.1442 H   0  0  0  0  0  0  0  0  0  0  0  0
   -1.1232    1.3328    0.3431 C   0  0  1  0  0  0  0  0  0  0  0  0
   -1.2067    2.1214    1.0972 H   0  0  0  0  0  0  0  0  0  0  0  0
    0.0583    0.4511    0.8367 C   0  0  0  0  0  0  0  0  0  0  0  0
    0.1236   -0.4378    0.1999 H   0  0  0  0  0  0  0  0  0  0  0  0
    0.9960    1.0028    0.7114 H   0  0  0  0  0  0  0  0  0  0  0  0
   -0.0169    0.0335    2.3176 C   0  0  0  0  0  0  0  0  0  0  0  0
   -0.0114    0.9322    2.9429 H   0  0  0  0  0  0  0  0  0  0  0  0
   -0.9264   -0.5191    2.5518 H   0  0  0  0  0  0  0  0  0  0  0  0
    1.2068   -0.8220    2.6346 C   0  0  0  0  0  0  0  0  0  0  0  0
    1.2100   -1.6902    1.9657 H   0  0  0  0  0  0  0  0  0  0  0  0
    2.1124   -0.2350    2.4455 H   0  0  0  0  0  0  0  0  0  0  0  0
    1.1744   -1.2712    4.0377 N   0  3  0  0  0  0  0  0  0  0  0  0
    0.4029   -0.9396    4.6143 H   0  0  0  0  0  0  0  0  0  0  0  0
    2.0698   -2.0620    4.5546 C   0  0  0  0  0  0  0  0  0  0  0  0
    3.1270   -2.5406    3.8141 N   0  0  0  0  0  0  0  0  0  0  0  0
    3.2762   -2.1487    2.8861 H   0  0  0  0  0  0  0  0  0  0  0  0
    3.9228   -2.9508    4.2980 H   0  0  0  0  0  0  0  0  0  0  0  0
    1.9630   -2.4403    5.8717 N   0  0  0  0  0  0  0  0  0  0  0  0
    1.0910   -2.2529    6.3622 H   0  0  0  0  0  0  0  0  0  0  0  0
    2.5346   -3.2173    6.1979 H   0  0  0  0  0  0  0  0  0  0  0  0
   -0.7811    2.1096   -0.9580 C   0  0  0  0  0  0  0  0  0  0  0  0
    0.3816    2.3024   -1.2866 O   0  0  0  0  0  0  0  0  0  0  0  0
   -1.7780    2.7054   -1.7135 N   0  0  0  0  0  0  0  0  0  0  0  0
   -2.7388    2.4692   -1.4949 H   0  0  0  0  0  0  0  0  0  0  0  0
   -1.5093    3.4557   -2.9372 C   0  0  0  0  0  0  0  0  0  0  0  0
   -1.0318    2.8128   -3.6845 H   0  0  0  0  0  0  0  0  0  0  0  0
   -2.4420    3.8427   -3.3593 H   0  0  0  0  0  0  0  0  0  0  0  0
   -0.8485    4.3045   -2.7301 H   0  0  0  0  0  0  0  0  0  0  0  0
  1  2  1  0  0  0  0
  2  3  1  0  0  0  0
  2  4  1  0  0  0  0
  2  5  1  0  0  0  0
  5  6  2  0  0  0  0
  5  7  1  0  0  0  0
  7  8  1  0  0  0  0
  7  9  1  0  0  0  0
  9 10  1  0  0  0  0
  9 11  1  0  0  0  0
  9 29  1  0  0  0  0
 11 12  1  0  0  0  0
 11 13  1  0  0  0  0
 11 14  1  0  0  0  0
 14 15  1  0  0  0  0
 14 16  1  0  0  0  0
 14 17  1  0  0  0  0
 17 18  1  0  0  0  0
 17 19  1  0  0  0  0
 17 20  1  0  0  0  0
 20 21  1  0  0  0  0
 20 22  2  0  0  0  0
 22 23  1  0  0  0  0
 22 26  1  0  0  0  0
 23 24  1  0  0  0  0
 23 25  1  0  0  0  0
 26 27  1  0  0  0  0
 26 28  1  0  0  0  0
 29 30  2  0  0  0  0
 29 31  1  0  0  0  0
 31 32  1  0  0  0  0
 31 33  1  0  0  0  0
 33 34  1  0  0  0  0
 33 35  1  0  0  0  0
 33 36  1  0  0  0  0
M  CHG  1  20   1
M  END
$$$$

  -OEChem-02172215453D

 36 35  0     1  0  0  0  0  0999 V2000
   -4.6821   -1.8086    0.8577 H   0  0  0  0  0  0  0  0  0  0  0  0
   -4.4566   -0.7844    0.5464 C   0  0  0  0  0  0  0  0  0  0  0  0
   -4.9903   -0.0939    1.2035 H   0  0  0  0  0  0  0  0  0  0  0  0
   -4.8073   -0.6464   -0.4794 H   0  0  0  0  0  0  0  0  0  0  0  0
   -2.9627   -0.5293    0.6229 C   0  0  0  0  0  0  0  0  0  0  0  0
   -2.2311   -1.4653    0.8949 O   0  0  0  0  0  0  0  0  0  0  0  0
   -2.4952    0.7320    0.2859 N   0  0  0  0  0  0  0  0  0  0  0  0
   -3.2331    1.3591   -0.0202 H   0  0  0  0  0  0  0  0  0  0  0  0
   -1.1303    1.3244    0.3551 C   0  0  1  0  0  0  0  0  0  0  0  0
   -1.2029    2.1149    1.1081 H   0  0  0  0  0  0  0  0  0  0  0  0
    0.0508    0.4448    0.8491 C   0  0  0  0  0  0  0  0  0  0  0  0
    0.1037   -0.4506    0.2202 H   0  0  0  0  0  0  0  0  0  0  0  0
    0.9868    0.9953    0.7039 H   0  0  0  0  0  0  0  0  0  0  0  0
   -0.0078    0.0356    2.3338 C   0  0  0  0  0  0  0  0  0  0  0  0
    0.0087    0.9387    2.9524 H   0  0  0  0  0  0  0  0  0  0  0  0
   -0.9145   -0.5111    2.5884 H   0  0  0  0  0  0  0  0  0  0  0  0
    1.2183   -0.8199    2.6420 C   0  0  0  0  0  0  0  0  0  0  0  0
    1.2126   -1.6921    1.9781 H   0  0  0  0  0  0  0  0  0  0  0  0
    2.1229   -0.2357    2.4395 H   0  0  0  0  0  0  0  0  0  0  0  0
    1.2001   -1.2606    4.0482 N   0  3  0  0  0  0  0  0  0  0  0  0
    0.4326   -0.9278    4.6295 H   0  0  0  0  0  0  0  0  0  0  0  0
    2.0993   -2.0497    4.5608 C   0  0  0  0  0  0  0  0  0  0  0  0
    3.1477   -2.5345    3.8122 N   0  0  0  0  0  0  0  0  0  0  0  0
    3.2849   -2.1533    2.8779 H   0  0  0  0  0  0  0  0  0  0  0  0
    3.9473   -2.9455    4.2891 H   0  0  0  0  0  0  0  0  0  0  0  0
    2.0047   -2.4224    5.8802 N   0  0  0  0  0  0  0  0  0  0  0  0
    1.1360   -2.2340    6.3763 H   0  0  0  0  0  0  0  0  0  0  0  0
    2.5761   -3.2014    6.2022 H   0  0  0  0  0  0  0  0  0  0  0  0
   -0.7996    2.0937   -0.9512 C   0  0  0  0  0  0  0  0  0  0  0  0
    0.2912    1.9829   -1.4941 O   0  0  0  0  0  0  0  0  0  0  0  0
   -1.7322    2.9470   -1.5193 N   0  0  0  0  0  0  0  0  0  0  0  0
   -2.5986    3.1104   -1.0188 H   0  0  0  0  0  0  0  0  0  0  0  0
   -1.4705    3.7213   -2.7300 C   0  0  0  0  0  0  0  0  0  0  0  0
   -1.2207    3.0566   -3.5643 H   0  0  0  0  0  0  0  0  0  0  0  0
   -2.3543    4.3038   -3.0084 H   0  0  0  0  0  0  0  0  0  0  0  0
   -0.6366    4.4137   -2.5715 H   0  0  0  0  0  0  0  0  0  0  0  0
  1  2  1  0  0  0  0
  2  3  1  0  0  0  0
  2  4  1  0  0  0  0
  2  5  1  0  0  0  0
  5  6  2  0  0  0  0
  5  7  1  0  0  0  0
  7  8  1  0  0  0  0
  7  9  1  0  0  0  0
  9 10  1  0  0  0  0
  9 11  1  0  0  0  0
  9 29  1  0  0  0  0
 11 12  1  0  0  0  0
 11 13  1  0  0  0  0
 11 14  1  0  0  0  0
 14 15  1  0  0  0  0
 14 16  1  0  0  0  0
 14 17  1  0  0  0  0
 17 18  1  0  0  0  0
 17 19  1  0  0  0  0
 17 20  1  0  0  0  0
 20 21  1  0  0  0  0
 20 22  2  0  0  0  0
 22 23  1  0  0  0  0
 22 26  1  0  0  0  0
 23 24  1  0  0  0  0
 23 25  1  0  0  0  0
 26 27  1  0  0  0  0
 26 28  1  0  0  0  0
 29 30  2  0  0  0  0
 29 31  1  0  0  0  0
 31 32  1  0  0  0  0
 31 33  1  0  0  0  0
 33 34  1  0  0  0  0
 33 35  1  0  0  0  0
 33 36  1  0  0  0  0
M  CHG  1  20   1
M  END
$$$$

  -OEChem-02172215453D

 36 35  0     1  0  0  0  0  0999 V2000
   -4.7108   -1.7830    0.8083 H   0  0  0  0  0  0  0  0  0  0  0  0
   -4.4734   -0.7627    0.4933 C   0  0  0  0  0  0  0  0  0  0  0  0
   -5.0329   -0.0638    1.1195 H   0  0  0  0  0  0  0  0  0  0  0  0
   -4.7828   -0.6380   -0.5476 H   0  0  0  0  0  0  0  0  0  0  0  0
   -2.9838   -0.5065    0.6261 C   0  0  0  0  0  0  0  0  0  0  0  0
   -2.2637   -1.4398    0.9350 O   0  0  0  0  0  0  0  0  0  0  0  0
   -2.5043    0.7506    0.2921 N   0  0  0  0  0  0  0  0  0  0  0  0
   -3.2243    1.3653   -0.0781 H   0  0  0  0  0  0  0  0  0  0  0  0
   -1.1394    1.3376    0.3722 C   0  0  1  0  0  0  0  0  0  0  0  0
   -1.2125    2.1258    1.1273 H   0  0  0  0  0  0  0  0  0  0  0  0
    0.0438    0.4618    0.8628 C   0  0  0  0  0  0  0  0  0  0  0  0
    0.0977   -0.4314    0.2304 H   0  0  0  0  0  0  0  0  0  0  0  0
    0.9754    1.0187    0.7117 H   0  0  0  0  0  0  0  0  0  0  0  0
   -0.0110    0.0417    2.3446 C   0  0  0  0  0  0  0  0  0  0  0  0
    0.0026    0.9402    2.9697 H   0  0  0  0  0  0  0  0  0  0  0  0
   -0.9134   -0.5113    2.5990 H   0  0  0  0  0  0  0  0  0  0  0  0
    1.2198   -0.8086    2.6437 C   0  0  0  0  0  0  0  0  0  0  0  0
    1.2179   -1.6758    1.9735 H   0  0  0  0  0  0  0  0  0  0  0  0
    2.1204   -0.2175    2.4439 H   0  0  0  0  0  0  0  0  0  0  0  0
    1.2049   -1.2589    4.0466 N   0  3  0  0  0  0  0  0  0  0  0  0
    0.4347   -0.9357    4.6298 H   0  0  0  0  0  0  0  0  0  0  0  0
    2.1087   -2.0467    4.5526 C   0  0  0  0  0  0  0  0  0  0  0  0
    3.1585   -2.5203    3.7985 N   0  0  0  0  0  0  0  0  0  0  0  0
    3.2910   -2.1348    2.8654 H   0  0  0  0  0  0  0  0  0  0  0  0
    3.9585   -2.9387    4.2683 H   0  0  0  0  0  0  0  0  0  0  0  0
    2.0206   -2.4265    5.8705 N   0  0  0  0  0  0  0  0  0  0  0  0
    1.1523   -2.2470    6.3707 H   0  0  0  0  0  0  0  0  0  0  0  0
    2.6016   -3.2001    6.1886 H   0  0  0  0  0  0  0  0  0  0  0  0
   -0.8086    2.0978   -0.9354 C   0  0  0  0  0  0  0  0  0  0  0  0
    0.1584    1.7927   -1.6195 O   0  0  0  0  0  0  0  0  0  0  0  0
   -1.5981    3.1635   -1.3343 N   0  0  0  0  0  0  0  0  0  0  0  0
   -2.3451    3.4627   -0.7157 H   0  0  0  0  0  0  0  0  0  0  0  0
   -1.3277    3.9488   -2.5356 C   0  0  0  0  0  0  0  0  0  0  0  0
   -1.3359    3.3074   -3.4235 H   0  0  0  0  0  0  0  0  0  0  0  0
   -2.0907    4.7229   -2.6645 H   0  0  0  0  0  0  0  0  0  0  0  0
   -0.3495    4.4364   -2.4646 H   0  0  0  0  0  0  0  0  0  0  0  0
  1  2  1  0  0  0  0
  2  3  1  0  0  0  0
  2  4  1  0  0  0  0
  2  5  1  0  0  0  0
  5  6  2  0  0  0  0
  5  7  1  0  0  0  0
  7  8  1  0  0  0  0
  7  9  1  0  0  0  0
  9 10  1  0  0  0  0
  9 11  1  0  0  0  0
  9 29  1  0  0  0  0
 11 12  1  0  0  0  0
 11 13  1  0  0  0  0
 11 14  1  0  0  0  0
 14 15  1  0  0  0  0
 14 16  1  0  0  0  0
 14 17  1  0  0  0  0
 17 18  1  0  0  0  0
 17 19  1  0  0  0  0
 17 20  1  0  0  0  0
 20 21  1  0  0  0  0
 20 22  2  0  0  0  0
 22 23  1  0  0  0  0
 22 26  1  0  0  0  0
 23 24  1  0  0  0  0
 23 25  1  0  0  0  0
 26 27  1  0  0  0  0
 26 28  1  0  0  0  0
 29 30  2  0  0  0  0
 29 31  1  0  0  0  0
 31 32  1  0  0  0  0
 31 33  1  0  0  0  0
 33 34  1  0  0  0  0
 33 35  1  0  0  0  0
 33 36  1  0  0  0  0
M  CHG  1  20   1
M  END
$$$$

  -OEChem-02172215453D

 36 35  0     1  0  0  0  0  0999 V2000
   -4.7296   -1.7633    0.7906 H   0  0  0  0  0  0  0  0  0  0  0  0
   -4.4855   -0.7447    0.4753 C   0  0  0  0  0  0  0  0  0  0  0  0
   -5.0540   -0.0424    1.0895 H   0  0  0  0  0  0  0  0  0  0  0  0
   -4.7776   -0.6239   -0.5708 H   0  0  0  0  0  0  0  0  0  0  0  0
   -2.9979   -0.4891    0.6300 C   0  0  0  0  0  0  0  0  0  0  0  0
   -2.2843   -1.4206    0.9584 O   0  0  0  0  0  0  0  0  0  0  0  0
   -2.5134    0.7665    0.2987 N   0  0  0  0  0  0  0  0  0  0  0  0
   -3.2263    1.3774   -0.0927 H   0  0  0  0  0  0  0  0  0  0  0  0
   -1.1513    1.3554    0.3883 C   0  0  1  0  0  0  0  0  0  0  0  0
   -1.2283    2.1385    1.1480 H   0  0  0  0  0  0  0  0  0  0  0  0
    0.0378    0.4846    0.8701 C   0  0  0  0  0  0  0  0  0  0  0  0
    0.0946   -0.4035    0.2304 H   0  0  0  0  0  0  0  0  0  0  0  0
    0.9636    1.0508    0.7179 H   0  0  0  0  0  0  0  0  0  0  0  0
   -0.0105    0.0472    2.3474 C   0  0  0  0  0  0  0  0  0  0  0  0
   -0.0034    0.9394    2.9813 H   0  0  0  0  0  0  0  0  0  0  0  0
   -0.9076   -0.5144    2.5992 H   0  0  0  0  0  0  0  0  0  0  0  0
    1.2268   -0.7966    2.6393 C   0  0  0  0  0  0  0  0  0  0  0  0
    1.2323   -1.6585    1.9621 H   0  0  0  0  0  0  0  0  0  0  0  0
    2.1235   -0.1977    2.4468 H   0  0  0  0  0  0  0  0  0  0  0  0
    1.2103   -1.2587    4.0383 N   0  3  0  0  0  0  0  0  0  0  0  0
    0.4323   -0.9508    4.6195 H   0  0  0  0  0  0  0  0  0  0  0  0
    2.1169   -2.0443    4.5426 C   0  0  0  0  0  0  0  0  0  0  0  0
    3.1740   -2.5062    3.7917 N   0  0  0  0  0  0  0  0  0  0  0  0
    3.3140   -2.1080    2.8650 H   0  0  0  0  0  0  0  0  0  0  0  0
    3.9721   -2.9251    4.2643 H   0  0  0  0  0  0  0  0  0  0  0  0
    2.0195   -2.4369    5.8561 N   0  0  0  0  0  0  0  0  0  0  0  0
    1.1464   -2.2646    6.3505 H   0  0  0  0  0  0  0  0  0  0  0  0
    2.5985   -3.2130    6.1713 H   0  0  0  0  0  0  0  0  0  0  0  0
   -0.8164    2.1114   -0.9182 C   0  0  0  0  0  0  0  0  0  0  0  0
   -0.0133    1.6564   -1.7205 O   0  0  0  0  0  0  0  0  0  0  0  0
   -1.3938    3.3437   -1.1722 N   0  0  0  0  0  0  0  0  0  0  0  0
   -2.0215    3.7329   -0.4753 H   0  0  0  0  0  0  0  0  0  0  0  0
   -1.1014    4.1279   -2.3685 C   0  0  0  0  0  0  0  0  0  0  0  0
   -1.3677    3.5659   -3.2702 H   0  0  0  0  0  0  0  0  0  0  0  0
   -1.6747    5.0600   -2.3624 H   0  0  0  0  0  0  0  0  0  0  0  0
   -0.0360    4.3780   -2.4131 H   0  0  0  0  0  0  0  0  0  0  0  0
  1  2  1  0  0  0  0
  2  3  1  0  0  0  0
  2  4  1  0  0  0  0
  2  5  1  0  0  0  0
  5  6  2  0  0  0  0
  5  7  1  0  0  0  0
  7  8  1  0  0  0  0
  7  9  1  0  0  0  0
  9 10  1  0  0  0  0
  9 11  1  0  0  0  0
  9 29  1  0  0  0  0
 11 12  1  0  0  0  0
 11 13  1  0  0  0  0
 11 14  1  0  0  0  0
 14 15  1  0  0  0  0
 14 16  1  0  0  0  0
 14 17  1  0  0  0  0
 17 18  1  0  0  0  0
 17 19  1  0  0  0  0
 17 20  1  0  0  0  0
 20 21  1  0  0  0  0
 20 22  2  0  0  0  0
 22 23  1  0  0  0  0
 22 26  1  0  0  0  0
 23 24  1  0  0  0  0
 23 25  1  0  0  0  0
 26 27  1  0  0  0  0
 26 28  1  0  0  0  0
 29 30  2  0  0  0  0
 29 31  1  0  0  0  0
 31 32  1  0  0  0  0
 31 33  1  0  0  0  0
 33 34  1  0  0  0  0
 33 35  1  0  0  0  0
 33 36  1  0  0  0  0
M  CHG  1  20   1
M  END
$$$$

  -OEChem-02172215453D

 36 35  0     1  0  0  0  0  0999 V2000
   -4.7504   -1.7503    0.7439 H   0  0  0  0  0  0  0  0  0  0  0  0
   -4.5007   -0.7289    0.4424 C   0  0  0  0  0  0  0  0  0  0  0  0
   -5.0840   -0.0318    1.0484 H   0  0  0  0  0  0  0  0  0  0  0  0
   -4.7686   -0.5996   -0.6093 H   0  0  0  0  0  0  0  0  0  0  0  0
   -3.0175   -0.4723    0.6336 C   0  0  0  0  0  0  0  0  0  0  0  0
   -2.3114   -1.4017    0.9833 O   0  0  0  0  0  0  0  0  0  0  0  0
   -2.5270    0.7813    0.3057 N   0  0  0  0  0  0  0  0  0  0  0  0
   -3.2313    1.3878   -0.1083 H   0  0  0  0  0  0  0  0  0  0  0  0
   -1.1671    1.3705    0.4091 C   0  0  1  0  0  0  0  0  0  0  0  0
   -1.2539    2.1496    1.1718 H   0  0  0  0  0  0  0  0  0  0  0  0
    0.0251    0.5058    0.8900 C   0  0  0  0  0  0  0  0  0  0  0  0
    0.0873   -0.3783    0.2456 H   0  0  0  0  0  0  0  0  0  0  0  0
    0.9481    1.0775    0.7401 H   0  0  0  0  0  0  0  0  0  0  0  0
   -0.0213    0.0553    2.3630 C   0  0  0  0  0  0  0  0  0  0  0  0
   -0.0231    0.9418    3.0053 H   0  0  0  0  0  0  0  0  0  0  0  0
   -0.9130   -0.5170    2.6096 H   0  0  0  0  0  0  0  0  0  0  0  0
    1.2240   -0.7803    2.6450 C   0  0  0  0  0  0  0  0  0  0  0  0
    1.2361   -1.6347    1.9585 H   0  0  0  0  0  0  0  0  0  0  0  0
    2.1150   -0.1710    2.4575 H   0  0  0  0  0  0  0  0  0  0  0  0
    1.2151   -1.2574    4.0388 N   0  3  0  0  0  0  0  0  0  0  0  0
    0.4356   -0.9629    4.6248 H   0  0  0  0  0  0  0  0  0  0  0  0
    2.1304   -2.0400    4.5320 C   0  0  0  0  0  0  0  0  0  0  0  0
    3.1896   -2.4834    3.7727 N   0  0  0  0  0  0  0  0  0  0  0  0
    3.3188   -2.0804    2.8465 H   0  0  0  0  0  0  0  0  0  0  0  0
    3.9942   -2.8982    4.2378 H   0  0  0  0  0  0  0  0  0  0  0  0
    2.0422   -2.4475    5.8415 N   0  0  0  0  0  0  0  0  0  0  0  0
    1.1691   -2.2897    6.3408 H   0  0  0  0  0  0  0  0  0  0  0  0
    2.6283   -3.2232    6.1442 H   0  0  0  0  0  0  0  0  0  0  0  0
   -0.8162    2.1228   -0.8932 C   0  0  0  0  0  0  0  0  0  0  0  0
   -0.2313    1.5513   -1.8017 O   0  0  0  0  0  0  0  0  0  0  0  0
   -1.1265    3.4646   -1.0295 N   0  0  0  0  0  0  0  0  0  0  0  0
   -1.5973    3.9293   -0.2587 H   0  0  0  0  0  0  0  0  0  0  0  0
   -0.8062    4.2384   -2.2254 C   0  0  0  0  0  0  0  0  0  0  0  0
   -1.3093    3.8159   -3.1018 H   0  0  0  0  0  0  0  0  0  0  0  0
   -1.1337    5.2759   -2.1064 H   0  0  0  0  0  0  0  0  0  0  0  0
    0.2740    4.2372   -2.4068 H   0  0  0  0  0  0  0  0  0  0  0  0
  1  2  1  0  0  0  0
  2  3  1  0  0  0  0
  2  4  1  0  0  0  0
  2  5  1  0  0  0  0
  5  6  2  0  0  0  0
  5  7  1  0  0  0  0
  7  8  1  0  0  0  0
  7  9  1  0  0  0  0
  9 10  1  0  0  0  0
  9 11  1  0  0  0  0
  9 29  1  0  0  0  0
 11 12  1  0  0  0  0
 11 13  1  0  0  0  0
 11 14  1  0  0  0  0
 14 15  1  0  0  0  0
 14 16  1  0  0  0  0
 14 17  1  0  0  0  0
 17 18  1  0  0  0  0
 17 19  1  0  0  0  0
 17 20  1  0  0  0  0
 20 21  1  0  0  0  0
 20 22  2  0  0  0  0
 22 23  1  0  0  0  0
 22 26  1  0  0  0  0
 23 24  1  0  0  0  0
 23 25  1  0  0  0  0
 26 27  1  0  0  0  0
 26 28  1  0  0  0  0
 29 30  2  0  0  0  0
 29 31  1  0  0  0  0
 31 32  1  0  0  0  0
 31 33  1  0  0  0  0
 33 34  1  0  0  0  0
 33 35  1  0  0  0  0
 33 36  1  0  0  0  0
M  CHG  1  20   1
M  END
$$$$

  -OEChem-02172215453D

 36 35  0     1  0  0  0  0  0999 V2000
   -4.7503   -1.7323    0.7216 H   0  0  0  0  0  0  0  0  0  0  0  0
   -4.4957   -0.7124    0.4194 C   0  0  0  0  0  0  0  0  0  0  0  0
   -5.0899   -0.0128    1.0117 H   0  0  0  0  0  0  0  0  0  0  0  0
   -4.7455   -0.5891   -0.6376 H   0  0  0  0  0  0  0  0  0  0  0  0
   -3.0161   -0.4536    0.6356 C   0  0  0  0  0  0  0  0  0  0  0  0
   -2.3159   -1.3816    1.0011 O   0  0  0  0  0  0  0  0  0  0  0  0
   -2.5215    0.7997    0.3139 N   0  0  0  0  0  0  0  0  0  0  0  0
   -3.2156    1.3990   -0.1271 H   0  0  0  0  0  0  0  0  0  0  0  0
   -1.1620    1.3880    0.4222 C   0  0  1  0  0  0  0  0  0  0  0  0
   -1.2526    2.1619    1.1895 H   0  0  0  0  0  0  0  0  0  0  0  0
    0.0319    0.5230    0.8954 C   0  0  0  0  0  0  0  0  0  0  0  0
    0.0929   -0.3567    0.2445 H   0  0  0  0  0  0  0  0  0  0  0  0
    0.9529    1.0975    0.7465 H   0  0  0  0  0  0  0  0  0  0  0  0
   -0.0120    0.0609    2.3662 C   0  0  0  0  0  0  0  0  0  0  0  0
   -0.0135    0.9432    3.0140 H   0  0  0  0  0  0  0  0  0  0  0  0
   -0.9025   -0.5129    2.6119 H   0  0  0  0  0  0  0  0  0  0  0  0
    1.2334   -0.7755    2.6476 C   0  0  0  0  0  0  0  0  0  0  0  0
    1.2472   -1.6267    1.9572 H   0  0  0  0  0  0  0  0  0  0  0  0
    2.1248   -0.1654    2.4657 H   0  0  0  0  0  0  0  0  0  0  0  0
    1.2198   -1.2598    4.0395 N   0  3  0  0  0  0  0  0  0  0  0  0
    0.4366   -0.9702    4.6233 H   0  0  0  0  0  0  0  0  0  0  0  0
    2.1331   -2.0445    4.5341 C   0  0  0  0  0  0  0  0  0  0  0  0
    3.1963   -2.4850    3.7788 N   0  0  0  0  0  0  0  0  0  0  0  0
    3.3314   -2.0786    2.8551 H   0  0  0  0  0  0  0  0  0  0  0  0
    3.9978   -2.9027    4.2468 H   0  0  0  0  0  0  0  0  0  0  0  0
    2.0366   -2.4616    5.8401 N   0  0  0  0  0  0  0  0  0  0  0  0
    1.1589   -2.3112    6.3336 H   0  0  0  0  0  0  0  0  0  0  0  0
    2.6220   -3.2386    6.1407 H   0  0  0  0  0  0  0  0  0  0  0  0
   -0.8081    2.1440   -0.8768 C   0  0  0  0  0  0  0  0  0  0  0  0
   -0.5009    1.5226   -1.8832 O   0  0  0  0  0  0  0  0  0  0  0  0
   -0.8232    3.5275   -0.9155 N   0  0  0  0  0  0  0  0  0  0  0  0
   -1.0974    4.0288   -0.0757 H   0  0  0  0  0  0  0  0  0  0  0  0
   -0.5149    4.2937   -2.1195 C   0  0  0  0  0  0  0  0  0  0  0  0
   -1.2279    4.0596   -2.9175 H   0  0  0  0  0  0  0  0  0  0  0  0
   -0.5701    5.3668   -1.9118 H   0  0  0  0  0  0  0  0  0  0  0  0
    0.4955    4.0630   -2.4739 H   0  0  0  0  0  0  0  0  0  0  0  0
  1  2  1  0  0  0  0
  2  3  1  0  0  0  0
  2  4  1  0  0  0  0
  2  5  1  0  0  0  0
  5  6  2  0  0  0  0
  5  7  1  0  0  0  0
  7  8  1  0  0  0  0
  7  9  1  0  0  0  0
  9 10  1  0  0  0  0
  9 11  1  0  0  0  0
  9 29  1  0  0  0  0
 11 12  1  0  0  0  0
 11 13  1  0  0  0  0
 11 14  1  0  0  0  0
 14 15  1  0  0  0  0
 14 16  1  0  0  0  0
 14 17  1  0  0  0  0
 17 18  1  0  0  0  0
 17 19  1  0  0  0  0
 17 20  1  0  0  0  0
 20 21  1  0  0  0  0
 20 22  2  0  0  0  0
 22 23  1  0  0  0  0
 22 26  1  0  0  0  0
 23 24  1  0  0  0  0
 23 25  1  0  0  0  0
 26 27  1  0  0  0  0
 26 28  1  0  0  0  0
 29 30  2  0  0  0  0
 29 31  1  0  0  0  0
 31 32  1  0  0  0  0
 31 33  1  0  0  0  0
 33 34  1  0  0  0  0
 33 35  1  0  0  0  0
 33 36  1  0  0  0  0
M  CHG  1  20   1
M  END
$$$$

  -OEChem-02172215453D

 36 35  0     1  0  0  0  0  0999 V2000
   -4.7482   -1.7154    0.6930 H   0  0  0  0  0  0  0  0  0  0  0  0
   -4.4864   -0.6960    0.3954 C   0  0  0  0  0  0  0  0  0  0  0  0
   -5.0938    0.0052    0.9724 H   0  0  0  0  0  0  0  0  0  0  0  0
   -4.7109   -0.5739   -0.6673 H   0  0  0  0  0  0  0  0  0  0  0  0
   -3.0124   -0.4373    0.6450 C   0  0  0  0  0  0  0  0  0  0  0  0
   -2.3212   -1.3652    1.0279 O   0  0  0  0  0  0  0  0  0  0  0  0
   -2.5106    0.8136    0.3264 N   0  0  0  0  0  0  0  0  0  0  0  0
   -3.1874    1.3990   -0.1586 H   0  0  0  0  0  0  0  0  0  0  0  0
   -1.1476    1.3943    0.4290 C   0  0  1  0  0  0  0  0  0  0  0  0
   -1.2379    2.1664    1.1983 H   0  0  0  0  0  0  0  0  0  0  0  0
    0.0450    0.5254    0.8947 C   0  0  0  0  0  0  0  0  0  0  0  0
    0.0971   -0.3545    0.2436 H   0  0  0  0  0  0  0  0  0  0  0  0
    0.9681    1.0952    0.7424 H   0  0  0  0  0  0  0  0  0  0  0  0
    0.0043    0.0641    2.3657 C   0  0  0  0  0  0  0  0  0  0  0  0
    0.0086    0.9478    3.0120 H   0  0  0  0  0  0  0  0  0  0  0  0
   -0.8877   -0.5044    2.6162 H   0  0  0  0  0  0  0  0  0  0  0  0
    1.2456   -0.7777    2.6465 C   0  0  0  0  0  0  0  0  0  0  0  0
    1.2546   -1.6306    1.9581 H   0  0  0  0  0  0  0  0  0  0  0  0
    2.1408   -0.1733    2.4636 H   0  0  0  0  0  0  0  0  0  0  0  0
    1.2273   -1.2573    4.0398 N   0  3  0  0  0  0  0  0  0  0  0  0
    0.4443   -0.9617    4.6212 H   0  0  0  0  0  0  0  0  0  0  0  0
    2.1343   -2.0457    4.5392 C   0  0  0  0  0  0  0  0  0  0  0  0
    3.1963   -2.4959    3.7882 N   0  0  0  0  0  0  0  0  0  0  0  0
    3.3359   -2.0966    2.8621 H   0  0  0  0  0  0  0  0  0  0  0  0
    3.9911   -2.9244    4.2577 H   0  0  0  0  0  0  0  0  0  0  0  0
    2.0304   -2.4572    5.8463 N   0  0  0  0  0  0  0  0  0  0  0  0
    1.1532   -2.2949    6.3372 H   0  0  0  0  0  0  0  0  0  0  0  0
    2.6056   -3.2406    6.1506 H   0  0  0  0  0  0  0  0  0  0  0  0
   -0.7936    2.1547   -0.8672 C   0  0  0  0  0  0  0  0  0  0  0  0
   -0.8156    1.5725   -1.9413 O   0  0  0  0  0  0  0  0  0  0  0  0
   -0.4963    3.5062   -0.8381 N   0  0  0  0  0  0  0  0  0  0  0  0
   -0.5259    3.9857    0.0567 H   0  0  0  0  0  0  0  0  0  0  0  0
   -0.2208    4.2862   -2.0414 C   0  0  0  0  0  0  0  0  0  0  0  0
   -1.0885    4.2808   -2.7101 H   0  0  0  0  0  0  0  0  0  0  0  0
    0.0052    5.3243   -1.7782 H   0  0  0  0  0  0  0  0  0  0  0  0
    0.6388    3.8725   -2.5801 H   0  0  0  0  0  0  0  0  0  0  0  0
  1  2  1  0  0  0  0
  2  3  1  0  0  0  0
  2  4  1  0  0  0  0
  2  5  1  0  0  0  0
  5  6  2  0  0  0  0
  5  7  1  0  0  0  0
  7  8  1  0  0  0  0
  7  9  1  0  0  0  0
  9 10  1  0  0  0  0
  9 11  1  0  0  0  0
  9 29  1  0  0  0  0
 11 12  1  0  0  0  0
 11 13  1  0  0  0  0
 11 14  1  0  0  0  0
 14 15  1  0  0  0  0
 14 16  1  0  0  0  0
 14 17  1  0  0  0  0
 17 18  1  0  0  0  0
 17 19  1  0  0  0  0
 17 20  1  0  0  0  0
 20 21  1  0  0  0  0
 20 22  2  0  0  0  0
 22 23  1  0  0  0  0
 22 26  1  0  0  0  0
 23 24  1  0  0  0  0
 23 25  1  0  0  0  0
 26 27  1  0  0  0  0
 26 28  1  0  0  0  0
 29 30  2  0  0  0  0
 29 31  1  0  0  0  0
 31 32  1  0  0  0  0
 31 33  1  0  0  0  0
 33 34  1  0  0  0  0
 33 35  1  0  0  0  0
 33 36  1  0  0  0  0
M  CHG  1  20   1
M  END
$$$$

  -OEChem-02172215453D

 36 35  0     1  0  0  0  0  0999 V2000
   -4.7443   -1.6992    0.6801 H   0  0  0  0  0  0  0  0  0  0  0  0
   -4.4747   -0.6819    0.3827 C   0  0  0  0  0  0  0  0  0  0  0  0
   -5.0866    0.0238    0.9497 H   0  0  0  0  0  0  0  0  0  0  0  0
   -4.6843   -0.5612   -0.6833 H   0  0  0  0  0  0  0  0  0  0  0  0
   -3.0035   -0.4274    0.6505 C   0  0  0  0  0  0  0  0  0  0  0  0
   -2.3188   -1.3560    1.0441 O   0  0  0  0  0  0  0  0  0  0  0  0
   -2.4952    0.8208    0.3341 N   0  0  0  0  0  0  0  0  0  0  0  0
   -3.1545    1.3928   -0.1910 H   0  0  0  0  0  0  0  0  0  0  0  0
   -1.1277    1.3922    0.4239 C   0  0  1  0  0  0  0  0  0  0  0  0
   -1.2105    2.1659    1.1925 H   0  0  0  0  0  0  0  0  0  0  0  0
    0.0631    0.5168    0.8824 C   0  0  0  0  0  0  0  0  0  0  0  0
    0.1058   -0.3657    0.2341 H   0  0  0  0  0  0  0  0  0  0  0  0
    0.9894    1.0796    0.7239 H   0  0  0  0  0  0  0  0  0  0  0  0
    0.0259    0.0629    2.3565 C   0  0  0  0  0  0  0  0  0  0  0  0
    0.0392    0.9508    2.9969 H   0  0  0  0  0  0  0  0  0  0  0  0
   -0.8707   -0.4954    2.6144 H   0  0  0  0  0  0  0  0  0  0  0  0
    1.2601   -0.7882    2.6431 C   0  0  0  0  0  0  0  0  0  0  0  0
    1.2619   -1.6469    1.9614 H   0  0  0  0  0  0  0  0  0  0  0  0
    2.1605   -0.1929    2.4565 H   0  0  0  0  0  0  0  0  0  0  0  0
    1.2346   -1.2554    4.0408 N   0  3  0  0  0  0  0  0  0  0  0  0
    0.4523   -0.9477    4.6167 H   0  0  0  0  0  0  0  0  0  0  0  0
    2.1316   -2.0482    4.5514 C   0  0  0  0  0  0  0  0  0  0  0  0
    3.1918   -2.5174    3.8095 N   0  0  0  0  0  0  0  0  0  0  0  0
    3.3414   -2.1269    2.8812 H   0  0  0  0  0  0  0  0  0  0  0  0
    3.9796   -2.9495    4.2876 H   0  0  0  0  0  0  0  0  0  0  0  0
    2.0178   -2.4458    5.8620 N   0  0  0  0  0  0  0  0  0  0  0  0
    1.1399   -2.2702    6.3470 H   0  0  0  0  0  0  0  0  0  0  0  0
    2.5832   -3.2324    6.1762 H   0  0  0  0  0  0  0  0  0  0  0  0
   -0.7828    2.1586   -0.8721 C   0  0  0  0  0  0  0  0  0  0  0  0
   -1.1251    1.7126   -1.9579 O   0  0  0  0  0  0  0  0  0  0  0  0
   -0.1835    3.4048   -0.8157 N   0  0  0  0  0  0  0  0  0  0  0  0
    0.0354    3.7908    0.0977 H   0  0  0  0  0  0  0  0  0  0  0  0
    0.0647    4.2221   -1.9997 C   0  0  0  0  0  0  0  0  0  0  0  0
   -0.8780    4.4679   -2.5008 H   0  0  0  0  0  0  0  0  0  0  0  0
    0.5603    5.1566   -1.7193 H   0  0  0  0  0  0  0  0  0  0  0  0
    0.7088    3.6890   -2.7073 H   0  0  0  0  0  0  0  0  0  0  0  0
  1  2  1  0  0  0  0
  2  3  1  0  0  0  0
  2  4  1  0  0  0  0
  2  5  1  0  0  0  0
  5  6  2  0  0  0  0
  5  7  1  0  0  0  0
  7  8  1  0  0  0  0
  7  9  1  0  0  0  0
  9 10  1  0  0  0  0
  9 11  1  0  0  0  0
  9 29  1  0  0  0  0
 11 12  1  0  0  0  0
 11 13  1  0  0  0  0
 11 14  1  0  0  0  0
 14 15  1  0  0  0  0
 14 16  1  0  0  0  0
 14 17  1  0  0  0  0
 17 18  1  0  0  0  0
 17 19  1  0  0  0  0
 17 20  1  0  0  0  0
 20 21  1  0  0  0  0
 20 22  2  0  0  0  0
 22 23  1  0  0  0  0
 22 26  1  0  0  0  0
 23 24  1  0  0  0  0
 23 25  1  0  0  0  0
 26 27  1  0  0  0  0
 26 28  1  0  0  0  0
 29 30  2  0  0  0  0
 29 31  1  0  0  0  0
 31 32  1  0  0  0  0
 31 33  1  0  0  0  0
 33 34  1  0  0  0  0
 33 35  1  0  0  0  0
 33 36  1  0  0  0  0
M  CHG  1  20   1
M  END
$$$$

  -OEChem-02172215453D

 36 35  0     1  0  0  0  0  0999 V2000
   -4.7017   -1.7264    0.6594 H   0  0  0  0  0  0  0  0  0  0  0  0
   -4.4381   -0.7059    0.3676 C   0  0  0  0  0  0  0  0  0  0  0  0
   -5.0621   -0.0073    0.9301 H   0  0  0  0  0  0  0  0  0  0  0  0
   -4.6384   -0.5845   -0.7001 H   0  0  0  0  0  0  0  0  0  0  0  0
   -2.9718   -0.4381    0.6498 C   0  0  0  0  0  0  0  0  0  0  0  0
   -2.2795   -1.3640    1.0376 O   0  0  0  0  0  0  0  0  0  0  0  0
   -2.4724    0.8156    0.3408 N   0  0  0  0  0  0  0  0  0  0  0  0
   -3.1260    1.3757   -0.2055 H   0  0  0  0  0  0  0  0  0  0  0  0
   -1.1073    1.3947    0.4188 C   0  0  1  0  0  0  0  0  0  0  0  0
   -1.1878    2.1679    1.1886 H   0  0  0  0  0  0  0  0  0  0  0  0
    0.0852    0.5190    0.8753 C   0  0  0  0  0  0  0  0  0  0  0  0
    0.1236   -0.3671    0.2320 H   0  0  0  0  0  0  0  0  0  0  0  0
    1.0136    1.0764    0.7121 H   0  0  0  0  0  0  0  0  0  0  0  0
    0.0471    0.0749    2.3531 C   0  0  0  0  0  0  0  0  0  0  0  0
    0.0647    0.9670    2.9874 H   0  0  0  0  0  0  0  0  0  0  0  0
   -0.8528   -0.4761    2.6156 H   0  0  0  0  0  0  0  0  0  0  0  0
    1.2776   -0.7786    2.6489 C   0  0  0  0  0  0  0  0  0  0  0  0
    1.2757   -1.6424    1.9745 H   0  0  0  0  0  0  0  0  0  0  0  0
    2.1821   -0.1899    2.4595 H   0  0  0  0  0  0  0  0  0  0  0  0
    1.2479   -1.2342    4.0505 N   0  3  0  0  0  0  0  0  0  0  0  0
    0.4726   -0.9087    4.6259 H   0  0  0  0  0  0  0  0  0  0  0  0
    2.1404   -2.0261    4.5705 C   0  0  0  0  0  0  0  0  0  0  0  0
    3.1998   -2.5054    3.8334 N   0  0  0  0  0  0  0  0  0  0  0  0
    3.1807   -2.3745    2.8239 H   0  0  0  0  0  0  0  0  0  0  0  0
    3.7728   -3.2551    4.2145 H   0  0  0  0  0  0  0  0  0  0  0  0
    2.0293   -2.3953    5.8903 N   0  0  0  0  0  0  0  0  0  0  0  0
    1.1766   -2.1788    6.4029 H   0  0  0  0  0  0  0  0  0  0  0  0
    2.6670   -3.0909    6.2726 H   0  0  0  0  0  0  0  0  0  0  0  0
   -0.7814    2.1785   -0.8743 C   0  0  0  0  0  0  0  0  0  0  0  0
   -1.3756    1.9237   -1.9132 O   0  0  0  0  0  0  0  0  0  0  0  0
    0.0750    3.2657   -0.8440 N   0  0  0  0  0  0  0  0  0  0  0  0
    0.5038    3.5133    0.0423 H   0  0  0  0  0  0  0  0  0  0  0  0
    0.3242    4.1161   -2.0048 C   0  0  0  0  0  0  0  0  0  0  0  0
   -0.6055    4.5862   -2.3436 H   0  0  0  0  0  0  0  0  0  0  0  0
    1.0369    4.9067   -1.7508 H   0  0  0  0  0  0  0  0  0  0  0  0
    0.7411    3.5283   -2.8299 H   0  0  0  0  0  0  0  0  0  0  0  0
  1  2  1  0  0  0  0
  2  3  1  0  0  0  0
  2  4  1  0  0  0  0
  2  5  1  0  0  0  0
  5  6  2  0  0  0  0
  5  7  1  0  0  0  0
  7  8  1  0  0  0  0
  7  9  1  0  0  0  0
  9 10  1  0  0  0  0
  9 11  1  0  0  0  0
  9 29  1  0  0  0  0
 11 12  1  0  0  0  0
 11 13  1  0  0  0  0
 11 14  1  0  0  0  0
 14 15  1  0  0  0  0
 14 16  1  0  0  0  0
 14 17  1  0  0  0  0
 17 18  1  0  0  0  0
 17 19  1  0  0  0  0
 17 20  1  0  0  0  0
 20 21  1  0  0  0  0
 20 22  2  0  0  0  0
 22 23  1  0  0  0  0
 22 26  1  0  0  0  0
 23 24  1  0  0  0  0
 23 25  1  0  0  0  0
 26 27  1  0  0  0  0
 26 28  1  0  0  0  0
 29 30  2  0  0  0  0
 29 31  1  0  0  0  0
 31 32  1  0  0  0  0
 31 33  1  0  0  0  0
 33 34  1  0  0  0  0
 33 35  1  0  0  0  0
 33 36  1  0  0  0  0
M  CHG  1  20   1
M  END
$$$$

  -OEChem-02172215453D

 36 35  0     1  0  0  0  0  0999 V2000
   -4.6704   -1.7251    0.6985 H   0  0  0  0  0  0  0  0  0  0  0  0
   -4.4082   -0.7072    0.3962 C   0  0  0  0  0  0  0  0  0  0  0  0
   -5.0170   -0.0029    0.9682 H   0  0  0  0  0  0  0  0  0  0  0  0
   -4.6304   -0.5887   -0.6675 H   0  0  0  0  0  0  0  0  0  0  0  0
   -2.9350   -0.4455    0.6466 C   0  0  0  0  0  0  0  0  0  0  0  0
   -2.2338   -1.3792    0.9993 O   0  0  0  0  0  0  0  0  0  0  0  0
   -2.4403    0.8124    0.3473 N   0  0  0  0  0  0  0  0  0  0  0  0
   -3.1016    1.3828   -0.1804 H   0  0  0  0  0  0  0  0  0  0  0  0
   -1.0775    1.3984    0.4163 C   0  0  1  0  0  0  0  0  0  0  0  0
   -1.1508    2.1696    1.1890 H   0  0  0  0  0  0  0  0  0  0  0  0
    0.1123    0.5130    0.8658 C   0  0  0  0  0  0  0  0  0  0  0  0
    0.1439   -0.3724    0.2214 H   0  0  0  0  0  0  0  0  0  0  0  0
    1.0463    1.0610    0.7063 H   0  0  0  0  0  0  0  0  0  0  0  0
    0.0656    0.0704    2.3445 C   0  0  0  0  0  0  0  0  0  0  0  0
    0.0874    0.9636    2.9773 H   0  0  0  0  0  0  0  0  0  0  0  0
   -0.8409   -0.4716    2.6034 H   0  0  0  0  0  0  0  0  0  0  0  0
    1.2859   -0.7938    2.6505 C   0  0  0  0  0  0  0  0  0  0  0  0
    1.2796   -1.6600    1.9791 H   0  0  0  0  0  0  0  0  0  0  0  0
    2.1973   -0.2146    2.4657 H   0  0  0  0  0  0  0  0  0  0  0  0
    1.2403   -1.2437    4.0535 N   0  3  0  0  0  0  0  0  0  0  0  0
    0.4644   -0.9072    4.6218 H   0  0  0  0  0  0  0  0  0  0  0  0
    2.1200   -2.0424    4.5845 C   0  0  0  0  0  0  0  0  0  0  0  0
    3.1809   -2.5357    3.8589 N   0  0  0  0  0  0  0  0  0  0  0  0
    3.1742   -2.4076    2.8489 H   0  0  0  0  0  0  0  0  0  0  0  0
    3.7456   -3.2870    4.2494 H   0  0  0  0  0  0  0  0  0  0  0  0
    1.9919   -2.4071    5.9042 N   0  0  0  0  0  0  0  0  0  0  0  0
    1.1335   -2.1850    6.4048 H   0  0  0  0  0  0  0  0  0  0  0  0
    2.6152   -3.1127    6.2918 H   0  0  0  0  0  0  0  0  0  0  0  0
   -0.7757    2.1975   -0.8759 C   0  0  0  0  0  0  0  0  0  0  0  0
   -1.5532    2.1502   -1.8208 O   0  0  0  0  0  0  0  0  0  0  0  0
    0.2864    3.0837   -0.9353 N   0  0  0  0  0  0  0  0  0  0  0  0
    0.8843    3.1698   -0.1197 H   0  0  0  0  0  0  0  0  0  0  0  0
    0.5451    3.9424   -2.0881 C   0  0  0  0  0  0  0  0  0  0  0  0
   -0.3084    4.6033   -2.2750 H   0  0  0  0  0  0  0  0  0  0  0  0
    1.4284    4.5634   -1.9101 H   0  0  0  0  0  0  0  0  0  0  0  0
    0.7234    3.3384   -2.9843 H   0  0  0  0  0  0  0  0  0  0  0  0
  1  2  1  0  0  0  0
  2  3  1  0  0  0  0
  2  4  1  0  0  0  0
  2  5  1  0  0  0  0
  5  6  2  0  0  0  0
  5  7  1  0  0  0  0
  7  8  1  0  0  0  0
  7  9  1  0  0  0  0
  9 10  1  0  0  0  0
  9 11  1  0  0  0  0
  9 29  1  0  0  0  0
 11 12  1  0  0  0  0
 11 13  1  0  0  0  0
 11 14  1  0  0  0  0
 14 15  1  0  0  0  0
 14 16  1  0  0  0  0
 14 17  1  0  0  0  0
 17 18  1  0  0  0  0
 17 19  1  0  0  0  0
 17 20  1  0  0  0  0
 20 21  1  0  0  0  0
 20 22  2  0  0  0  0
 22 23  1  0  0  0  0
 22 26  1  0  0  0  0
 23 24  1  0  0  0  0
 23 25  1  0  0  0  0
 26 27  1  0  0  0  0
 26 28  1  0  0  0  0
 29 30  2  0  0  0  0
 29 31  1  0  0  0  0
 31 32  1  0  0  0  0
 31 33  1  0  0  0  0
 33 34  1  0  0  0  0
 33 35  1  0  0  0  0
 33 36  1  0  0  0  0
M  CHG  1  20   1
M  END
$$$$

  -OEChem-02172215453D

 36 35  0     1  0  0  0  0  0999 V2000
   -4.5125   -0.4564    1.7562 H   0  0  0  0  0  0  0  0  0  0  0  0
   -3.4430   -0.6820    1.7479 C   0  0  0  0  0  0  0  0  0  0  0  0
   -2.9436   -0.0318    2.4691 H   0  0  0  0  0  0  0  0  0  0  0  0
   -3.2995   -1.7248    2.0417 H   0  0  0  0  0  0  0  0  0  0  0  0
   -2.8913   -0.4506    0.3517 C   0  0  0  0  0  0  0  0  0  0  0  0
   -2.9074   -1.3427   -0.4741 O   0  0  0  0  0  0  0  0  0  0  0  0
   -2.5411    0.8067   -0.0647 N   0  0  0  0  0  0  0  0  0  0  0  0
   -2.7224    0.8955   -1.0697 H   0  0  0  0  0  0  0  0  0  0  0  0
   -1.3034    1.5341    0.2953 C   0  0  1  0  0  0  0  0  0  0  0  0
   -1.4808    2.1369    1.1911 H   0  0  0  0  0  0  0  0  0  0  0  0
   -0.0437    0.6307    0.4951 C   0  0  0  0  0  0  0  0  0  0  0  0
    0.0936    0.0483   -0.4240 H   0  0  0  0  0  0  0  0  0  0  0  0
    0.8336    1.2765    0.6035 H   0  0  0  0  0  0  0  0  0  0  0  0
   -0.0203   -0.3420    1.6881 C   0  0  0  0  0  0  0  0  0  0  0  0
   -0.8199   -1.0778    1.6195 H   0  0  0  0  0  0  0  0  0  0  0  0
   -0.1349    0.2144    2.6245 H   0  0  0  0  0  0  0  0  0  0  0  0
    1.3023   -1.1085    1.6737 C   0  0  0  0  0  0  0  0  0  0  0  0
    1.3926   -1.6392    0.7188 H   0  0  0  0  0  0  0  0  0  0  0  0
    2.1318   -0.3971    1.7548 H   0  0  0  0  0  0  0  0  0  0  0  0
    1.3514   -2.0699    2.7910 N   0  3  0  0  0  0  0  0  0  0  0  0
    0.5517   -2.0944    3.4219 H   0  0  0  0  0  0  0  0  0  0  0  0
    2.3395   -2.8958    2.9855 C   0  0  0  0  0  0  0  0  0  0  0  0
    3.4308   -2.9326    2.1473 N   0  0  0  0  0  0  0  0  0  0  0  0
    3.3659   -2.4322    1.2633 H   0  0  0  0  0  0  0  0  0  0  0  0
    4.0509   -3.7388    2.1926 H   0  0  0  0  0  0  0  0  0  0  0  0
    2.3018   -3.7591    4.0547 N   0  0  0  0  0  0  0  0  0  0  0  0
    1.5910   -3.6274    4.7717 H   0  0  0  0  0  0  0  0  0  0  0  0
    3.1519   -4.2593    4.3092 H   0  0  0  0  0  0  0  0  0  0  0  0
   -0.9450    2.4822   -0.8860 C   0  0  0  0  0  0  0  0  0  0  0  0
   -1.6117    2.4594   -1.9128 O   0  0  0  0  0  0  0  0  0  0  0  0
    0.1693    3.3050   -0.8469 N   0  0  0  0  0  0  0  0  0  0  0  0
    0.6660    3.3878    0.0344 H   0  0  0  0  0  0  0  0  0  0  0  0
    0.5165    4.2220   -1.9296 C   0  0  0  0  0  0  0  0  0  0  0  0
   -0.2703    4.9723   -2.0635 H   0  0  0  0  0  0  0  0  0  0  0  0
    1.4539    4.7401   -1.7046 H   0  0  0  0  0  0  0  0  0  0  0  0
    0.6445    3.6767   -2.8711 H   0  0  0  0  0  0  0  0  0  0  0  0
  1  2  1  0  0  0  0
  2  3  1  0  0  0  0
  2  4  1  0  0  0  0
  2  5  1  0  0  0  0
  5  6  2  0  0  0  0
  5  7  1  0  0  0  0
  7  8  1  0  0  0  0
  7  9  1  0  0  0  0
  9 10  1  0  0  0  0
  9 11  1  0  0  0  0
  9 29  1  0  0  0  0
 11 12  1  0  0  0  0
 11 13  1  0  0  0  0
 11 14  1  0  0  0  0
 14 15  1  0  0  0  0
 14 16  1  0  0  0  0
 14 17  1  0  0  0  0
 17 18  1  0  0  0  0
 17 19  1  0  0  0  0
 17 20  1  0  0  0  0
 20 21  1  0  0  0  0
 20 22  2  0  0  0  0
 22 23  1  0  0  0  0
 22 26  1  0  0  0  0
 23 24  1  0  0  0  0
 23 25  1  0  0  0  0
 26 27  1  0  0  0  0
 26 28  1  0  0  0  0
 29 30  2  0  0  0  0
 29 31  1  0  0  0  0
 31 32  1  0  0  0  0
 31 33  1  0  0  0  0
 33 34  1  0  0  0  0
 33 35  1  0  0  0  0
 33 36  1  0  0  0  0
M  CHG  1  20   1
M  END
$$$$

  -OEChem-02172215453D

 36 35  0     1  0  0  0  0  0999 V2000
   -4.9417   -0.1272   -0.1895 H   0  0  0  0  0  0  0  0  0  0  0  0
   -4.5184   -0.4899    0.7508 C   0  0  0  0  0  0  0  0  0  0  0  0
   -4.9130    0.1098    1.5744 H   0  0  0  0  0  0  0  0  0  0  0  0
   -4.8242   -1.5302    0.8943 H   0  0  0  0  0  0  0  0  0  0  0  0
   -3.0053   -0.3855    0.7124 C   0  0  0  0  0  0  0  0  0  0  0  0
   -2.3509   -1.4087    0.8080 O   0  0  0  0  0  0  0  0  0  0  0  0
   -2.4460    0.8438    0.4173 N   0  0  0  0  0  0  0  0  0  0  0  0
   -3.1380    1.5417    0.1370 H   0  0  0  0  0  0  0  0  0  0  0  0
   -1.0617    1.3811    0.4126 C   0  0  1  0  0  0  0  0  0  0  0  0
   -0.9855    1.9444    1.3475 H   0  0  0  0  0  0  0  0  0  0  0  0
    0.1594    0.4197    0.4643 C   0  0  0  0  0  0  0  0  0  0  0  0
    0.0592   -0.2926   -0.3621 H   0  0  0  0  0  0  0  0  0  0  0  0
    1.0771    0.9905    0.2970 H   0  0  0  0  0  0  0  0  0  0  0  0
    0.3470   -0.3631    1.7823 C   0  0  0  0  0  0  0  0  0  0  0  0
   -0.5072   -0.9703    2.0597 H   0  0  0  0  0  0  0  0  0  0  0  0
    0.4944    0.3563    2.5945 H   0  0  0  0  0  0  0  0  0  0  0  0
    1.5789   -1.2567    1.6684 C   0  0  0  0  0  0  0  0  0  0  0  0
    1.4422   -1.9391    0.8220 H   0  0  0  0  0  0  0  0  0  0  0  0
    2.4614   -0.6359    1.4790 H   0  0  0  0  0  0  0  0  0  0  0  0
    1.7518   -2.0266    2.9135 N   0  3  0  0  0  0  0  0  0  0  0  0
    1.0586   -1.8801    3.6463 H   0  0  0  0  0  0  0  0  0  0  0  0
    2.6860   -2.9157    3.0890 C   0  0  0  0  0  0  0  0  0  0  0  0
    3.6018   -3.2085    2.1042 N   0  0  0  0  0  0  0  0  0  0  0  0
    3.4205   -2.8464    1.1704 H   0  0  0  0  0  0  0  0  0  0  0  0
    4.1394   -4.0691    2.1837 H   0  0  0  0  0  0  0  0  0  0  0  0
    2.7627   -3.5935    4.2824 N   0  0  0  0  0  0  0  0  0  0  0  0
    2.1981   -3.2746    5.0675 H   0  0  0  0  0  0  0  0  0  0  0  0
    3.6003   -4.1369    4.4832 H   0  0  0  0  0  0  0  0  0  0  0  0
   -0.9617    2.4856   -0.6740 C   0  0  0  0  0  0  0  0  0  0  0  0
   -1.9907    3.0070   -1.0877 O   0  0  0  0  0  0  0  0  0  0  0  0
    0.2509    2.9682   -1.1376 N   0  0  0  0  0  0  0  0  0  0  0  0
    1.1006    2.5418   -0.7842 H   0  0  0  0  0  0  0  0  0  0  0  0
    0.3626    4.0308   -2.1331 C   0  0  0  0  0  0  0  0  0  0  0  0
   -0.0764    4.9601   -1.7540 H   0  0  0  0  0  0  0  0  0  0  0  0
    1.4141    4.2190   -2.3721 H   0  0  0  0  0  0  0  0  0  0  0  0
   -0.1552    3.7493   -3.0565 H   0  0  0  0  0  0  0  0  0  0  0  0
  1  2  1  0  0  0  0
  2  3  1  0  0  0  0
  2  4  1  0  0  0  0
  2  5  1  0  0  0  0
  5  6  2  0  0  0  0
  5  7  1  0  0  0  0
  7  8  1  0  0  0  0
  7  9  1  0  0  0  0
  9 10  1  0  0  0  0
  9 11  1  0  0  0  0
  9 29  1  0  0  0  0
 11 12  1  0  0  0  0
 11 13  1  0  0  0  0
 11 14  1  0  0  0  0
 14 15  1  0  0  0  0
 14 16  1  0  0  0  0
 14 17  1  0  0  0  0
 17 18  1  0  0  0  0
 17 19  1  0  0  0  0
 17 20  1  0  0  0  0
 20 21  1  0  0  0  0
 20 22  2  0  0  0  0
 22 23  1  0  0  0  0
 22 26  1  0  0  0  0
 23 24  1  0  0  0  0
 23 25  1  0  0  0  0
 26 27  1  0  0  0  0
 26 28  1  0  0  0  0
 29 30  2  0  0  0  0
 29 31  1  0  0  0  0
 31 32  1  0  0  0  0
 31 33  1  0  0  0  0
 33 34  1  0  0  0  0
 33 35  1  0  0  0  0
 33 36  1  0  0  0  0
M  CHG  1  20   1
M  END
$$$$

  -OEChem-02172215453D

 36 35  0     1  0  0  0  0  0999 V2000
   -4.9323   -0.1000   -0.1159 H   0  0  0  0  0  0  0  0  0  0  0  0
   -4.4677   -0.5074    0.7857 C   0  0  0  0  0  0  0  0  0  0  0  0
   -4.8267    0.0495    1.6547 H   0  0  0  0  0  0  0  0  0  0  0  0
   -4.7664   -1.5541    0.8906 H   0  0  0  0  0  0  0  0  0  0  0  0
   -2.9577   -0.3966    0.6862 C   0  0  0  0  0  0  0  0  0  0  0  0
   -2.2952   -1.4191    0.7252 O   0  0  0  0  0  0  0  0  0  0  0  0
   -2.4108    0.8399    0.3982 N   0  0  0  0  0  0  0  0  0  0  0  0
   -3.1115    1.5538    0.1901 H   0  0  0  0  0  0  0  0  0  0  0  0
   -1.0275    1.3764    0.3929 C   0  0  1  0  0  0  0  0  0  0  0  0
   -0.9495    1.9372    1.3295 H   0  0  0  0  0  0  0  0  0  0  0  0
    0.1933    0.4161    0.4486 C   0  0  0  0  0  0  0  0  0  0  0  0
    0.1013   -0.2993   -0.3759 H   0  0  0  0  0  0  0  0  0  0  0  0
    1.1099    0.9917    0.2884 H   0  0  0  0  0  0  0  0  0  0  0  0
    0.3693   -0.3573    1.7741 C   0  0  0  0  0  0  0  0  0  0  0  0
   -0.4920   -0.9583    2.0468 H   0  0  0  0  0  0  0  0  0  0  0  0
    0.5122    0.3682    2.5819 H   0  0  0  0  0  0  0  0  0  0  0  0
    1.5987   -1.2572    1.6814 C   0  0  0  0  0  0  0  0  0  0  0  0
    1.4671   -1.9482    0.8414 H   0  0  0  0  0  0  0  0  0  0  0  0
    2.4869   -0.6434    1.4951 H   0  0  0  0  0  0  0  0  0  0  0  0
    1.7536   -2.0139    2.9371 N   0  3  0  0  0  0  0  0  0  0  0  0
    1.0825   -1.8189    3.6789 H   0  0  0  0  0  0  0  0  0  0  0  0
    2.6807   -2.9057    3.1346 C   0  0  0  0  0  0  0  0  0  0  0  0
    3.6059   -3.2141    2.1630 N   0  0  0  0  0  0  0  0  0  0  0  0
    3.4452   -2.8673    1.2195 H   0  0  0  0  0  0  0  0  0  0  0  0
    4.2009   -4.0308    2.2848 H   0  0  0  0  0  0  0  0  0  0  0  0
    2.7478   -3.5558    4.3444 N   0  0  0  0  0  0  0  0  0  0  0  0
    2.0037   -3.4324    5.0287 H   0  0  0  0  0  0  0  0  0  0  0  0
    3.4201   -4.3088    4.4776 H   0  0  0  0  0  0  0  0  0  0  0  0
   -0.9395    2.4883   -0.6841 C   0  0  0  0  0  0  0  0  0  0  0  0
   -1.9355    3.1667   -0.9046 O   0  0  0  0  0  0  0  0  0  0  0  0
    0.2248    2.7762   -1.3761 N   0  0  0  0  0  0  0  0  0  0  0  0
    1.0259    2.1711   -1.2305 H   0  0  0  0  0  0  0  0  0  0  0  0
    0.3076    3.8124   -2.4016 C   0  0  0  0  0  0  0  0  0  0  0  0
    0.0588    4.7919   -1.9787 H   0  0  0  0  0  0  0  0  0  0  0  0
    1.3210    3.8623   -2.8116 H   0  0  0  0  0  0  0  0  0  0  0  0
   -0.3861    3.5979   -3.2217 H   0  0  0  0  0  0  0  0  0  0  0  0
  1  2  1  0  0  0  0
  2  3  1  0  0  0  0
  2  4  1  0  0  0  0
  2  5  1  0  0  0  0
  5  6  2  0  0  0  0
  5  7  1  0  0  0  0
  7  8  1  0  0  0  0
  7  9  1  0  0  0  0
  9 10  1  0  0  0  0
  9 11  1  0  0  0  0
  9 29  1  0  0  0  0
 11 12  1  0  0  0  0
 11 13  1  0  0  0  0
 11 14  1  0  0  0  0
 14 15  1  0  0  0  0
 14 16  1  0  0  0  0
 14 17  1  0  0  0  0
 17 18  1  0  0  0  0
 17 19  1  0  0  0  0
 17 20  1  0  0  0  0
 20 21  1  0  0  0  0
 20 22  2  0  0  0  0
 22 23  1  0  0  0  0
 22 26  1  0  0  0  0
 23 24  1  0  0  0  0
 23 25  1  0  0  0  0
 26 27  1  0  0  0  0
 26 28  1  0  0  0  0
 29 30  2  0  0  0  0
 29 31  1  0  0  0  0
 31 32  1  0  0  0  0
 31 33  1  0  0  0  0
 33 34  1  0  0  0  0
 33 35  1  0  0  0  0
 33 36  1  0  0  0  0
M  CHG  1  20   1
M  END
$$$$

  -OEChem-02172215453D

 36 35  0     1  0  0  0  0  0999 V2000
   -4.9264   -0.1273   -0.1149 H   0  0  0  0  0  0  0  0  0  0  0  0
   -4.4468   -0.5049    0.7917 C   0  0  0  0  0  0  0  0  0  0  0  0
   -4.7943    0.0778    1.6481 H   0  0  0  0  0  0  0  0  0  0  0  0
   -4.7400   -1.5490    0.9339 H   0  0  0  0  0  0  0  0  0  0  0  0
   -2.9388   -0.3930    0.6649 C   0  0  0  0  0  0  0  0  0  0  0  0
   -2.2749   -1.4156    0.6719 O   0  0  0  0  0  0  0  0  0  0  0  0
   -2.3936    0.8452    0.3812 N   0  0  0  0  0  0  0  0  0  0  0  0
   -3.0946    1.5714    0.2249 H   0  0  0  0  0  0  0  0  0  0  0  0
   -1.0072    1.3716    0.3861 C   0  0  1  0  0  0  0  0  0  0  0  0
   -0.9326    1.9303    1.3246 H   0  0  0  0  0  0  0  0  0  0  0  0
    0.2111    0.4108    0.4480 C   0  0  0  0  0  0  0  0  0  0  0  0
    0.1248   -0.3038   -0.3776 H   0  0  0  0  0  0  0  0  0  0  0  0
    1.1275    0.9899    0.2946 H   0  0  0  0  0  0  0  0  0  0  0  0
    0.3741   -0.3632    1.7743 C   0  0  0  0  0  0  0  0  0  0  0  0
   -0.4922   -0.9623    2.0372 H   0  0  0  0  0  0  0  0  0  0  0  0
    0.5113    0.3608    2.5842 H   0  0  0  0  0  0  0  0  0  0  0  0
    1.6025   -1.2650    1.6911 C   0  0  0  0  0  0  0  0  0  0  0  0
    1.4774   -1.9546    0.8488 H   0  0  0  0  0  0  0  0  0  0  0  0
    2.4930   -0.6520    1.5130 H   0  0  0  0  0  0  0  0  0  0  0  0
    1.7454   -2.0226    2.9475 N   0  3  0  0  0  0  0  0  0  0  0  0
    1.0678   -1.8280    3.6836 H   0  0  0  0  0  0  0  0  0  0  0  0
    2.6693   -2.9162    3.1519 C   0  0  0  0  0  0  0  0  0  0  0  0
    3.6021   -3.2252    2.1876 N   0  0  0  0  0  0  0  0  0  0  0  0
    3.4556   -2.8700    1.2451 H   0  0  0  0  0  0  0  0  0  0  0  0
    4.1956   -4.0424    2.3124 H   0  0  0  0  0  0  0  0  0  0  0  0
    2.7236   -3.5691    4.3608 N   0  0  0  0  0  0  0  0  0  0  0  0
    1.9808   -3.4364    5.0444 H   0  0  0  0  0  0  0  0  0  0  0  0
    3.3980   -4.3184    4.5034 H   0  0  0  0  0  0  0  0  0  0  0  0
   -0.9073    2.4829   -0.6859 C   0  0  0  0  0  0  0  0  0  0  0  0
   -1.8120    3.3052   -0.7511 O   0  0  0  0  0  0  0  0  0  0  0  0
    0.1481    2.5736   -1.5773 N   0  0  0  0  0  0  0  0  0  0  0  0
    0.8233    1.8161   -1.5854 H   0  0  0  0  0  0  0  0  0  0  0  0
    0.2013    3.5682   -2.6449 C   0  0  0  0  0  0  0  0  0  0  0  0
    0.1731    4.5810   -2.2285 H   0  0  0  0  0  0  0  0  0  0  0  0
    1.1253    3.4597   -3.2212 H   0  0  0  0  0  0  0  0  0  0  0  0
   -0.6475    3.4460   -3.3266 H   0  0  0  0  0  0  0  0  0  0  0  0
  1  2  1  0  0  0  0
  2  3  1  0  0  0  0
  2  4  1  0  0  0  0
  2  5  1  0  0  0  0
  5  6  2  0  0  0  0
  5  7  1  0  0  0  0
  7  8  1  0  0  0  0
  7  9  1  0  0  0  0
  9 10  1  0  0  0  0
  9 11  1  0  0  0  0
  9 29  1  0  0  0  0
 11 12  1  0  0  0  0
 11 13  1  0  0  0  0
 11 14  1  0  0  0  0
 14 15  1  0  0  0  0
 14 16  1  0  0  0  0
 14 17  1  0  0  0  0
 17 18  1  0  0  0  0
 17 19  1  0  0  0  0
 17 20  1  0  0  0  0
 20 21  1  0  0  0  0
 20 22  2  0  0  0  0
 22 23  1  0  0  0  0
 22 26  1  0  0  0  0
 23 24  1  0  0  0  0
 23 25  1  0  0  0  0
 26 27  1  0  0  0  0
 26 28  1  0  0  0  0
 29 30  2  0  0  0  0
 29 31  1  0  0  0  0
 31 32  1  0  0  0  0
 31 33  1  0  0  0  0
 33 34  1  0  0  0  0
 33 35  1  0  0  0  0
 33 36  1  0  0  0  0
M  CHG  1  20   1
M  END
$$$$

  -OEChem-02172215453D

 36 35  0     1  0  0  0  0  0999 V2000
   -4.9421   -0.1008   -0.0718 H   0  0  0  0  0  0  0  0  0  0  0  0
   -4.4381   -0.4928    0.8151 C   0  0  0  0  0  0  0  0  0  0  0  0
   -4.7561    0.0811    1.6887 H   0  0  0  0  0  0  0  0  0  0  0  0
   -4.7336   -1.5366    0.9532 H   0  0  0  0  0  0  0  0  0  0  0  0
   -2.9343   -0.3896    0.6453 C   0  0  0  0  0  0  0  0  0  0  0  0
   -2.2751   -1.4150    0.6218 O   0  0  0  0  0  0  0  0  0  0  0  0
   -2.3880    0.8478    0.3622 N   0  0  0  0  0  0  0  0  0  0  0  0
   -3.0872    1.5837    0.2524 H   0  0  0  0  0  0  0  0  0  0  0  0
   -0.9979    1.3616    0.3751 C   0  0  1  0  0  0  0  0  0  0  0  0
   -0.9235    1.9157    1.3165 H   0  0  0  0  0  0  0  0  0  0  0  0
    0.2164    0.3970    0.4365 C   0  0  0  0  0  0  0  0  0  0  0  0
    0.1302   -0.3154   -0.3912 H   0  0  0  0  0  0  0  0  0  0  0  0
    1.1329    0.9772    0.2831 H   0  0  0  0  0  0  0  0  0  0  0  0
    0.3702   -0.3832    1.7602 C   0  0  0  0  0  0  0  0  0  0  0  0
   -0.5008   -0.9801    2.0136 H   0  0  0  0  0  0  0  0  0  0  0  0
    0.5042    0.3370    2.5741 H   0  0  0  0  0  0  0  0  0  0  0  0
    1.5955   -1.2905    1.6825 C   0  0  0  0  0  0  0  0  0  0  0  0
    1.4731   -1.9771    0.8374 H   0  0  0  0  0  0  0  0  0  0  0  0
    2.4895   -0.6806    1.5120 H   0  0  0  0  0  0  0  0  0  0  0  0
    1.7277   -2.0530    2.9376 N   0  3  0  0  0  0  0  0  0  0  0  0
    1.0256   -1.8835    3.6569 H   0  0  0  0  0  0  0  0  0  0  0  0
    2.6470   -2.9509    3.1444 C   0  0  0  0  0  0  0  0  0  0  0  0
    3.5849   -3.2615    2.1863 N   0  0  0  0  0  0  0  0  0  0  0  0
    3.4334   -2.9033    1.2456 H   0  0  0  0  0  0  0  0  0  0  0  0
    4.1137   -4.1255    2.2874 H   0  0  0  0  0  0  0  0  0  0  0  0
    2.6875   -3.6158    4.3468 N   0  0  0  0  0  0  0  0  0  0  0  0
    2.1094   -3.2780    5.1139 H   0  0  0  0  0  0  0  0  0  0  0  0
    3.5192   -4.1566    4.5770 H   0  0  0  0  0  0  0  0  0  0  0  0
   -0.8780    2.4700   -0.6930 C   0  0  0  0  0  0  0  0  0  0  0  0
   -1.6431    3.4223   -0.6246 O   0  0  0  0  0  0  0  0  0  0  0  0
    0.0046    2.3831   -1.7556 N   0  0  0  0  0  0  0  0  0  0  0  0
    0.5168    1.5137   -1.8679 H   0  0  0  0  0  0  0  0  0  0  0  0
    0.0303    3.3552   -2.8445 C   0  0  0  0  0  0  0  0  0  0  0  0
    0.2256    4.3611   -2.4572 H   0  0  0  0  0  0  0  0  0  0  0  0
    0.8190    3.1044   -3.5606 H   0  0  0  0  0  0  0  0  0  0  0  0
   -0.9283    3.3638   -3.3741 H   0  0  0  0  0  0  0  0  0  0  0  0
  1  2  1  0  0  0  0
  2  3  1  0  0  0  0
  2  4  1  0  0  0  0
  2  5  1  0  0  0  0
  5  6  2  0  0  0  0
  5  7  1  0  0  0  0
  7  8  1  0  0  0  0
  7  9  1  0  0  0  0
  9 10  1  0  0  0  0
  9 11  1  0  0  0  0
  9 29  1  0  0  0  0
 11 12  1  0  0  0  0
 11 13  1  0  0  0  0
 11 14  1  0  0  0  0
 14 15  1  0  0  0  0
 14 16  1  0  0  0  0
 14 17  1  0  0  0  0
 17 18  1  0  0  0  0
 17 19  1  0  0  0  0
 17 20  1  0  0  0  0
 20 21  1  0  0  0  0
 20 22  2  0  0  0  0
 22 23  1  0  0  0  0
 22 26  1  0  0  0  0
 23 24  1  0  0  0  0
 23 25  1  0  0  0  0
 26 27  1  0  0  0  0
 26 28  1  0  0  0  0
 29 30  2  0  0  0  0
 29 31  1  0  0  0  0
 31 32  1  0  0  0  0
 31 33  1  0  0  0  0
 33 34  1  0  0  0  0
 33 35  1  0  0  0  0
 33 36  1  0  0  0  0
M  CHG  1  20   1
M  END
$$$$

  -OEChem-02172215453D

 36 35  0     1  0  0  0  0  0999 V2000
   -4.9643   -0.0988   -0.0496 H   0  0  0  0  0  0  0  0  0  0  0  0
   -4.4498   -0.4944    0.8297 C   0  0  0  0  0  0  0  0  0  0  0  0
   -4.7570    0.0763    1.7095 H   0  0  0  0  0  0  0  0  0  0  0  0
   -4.7437   -1.5389    0.9672 H   0  0  0  0  0  0  0  0  0  0  0  0
   -2.9479   -0.3911    0.6416 C   0  0  0  0  0  0  0  0  0  0  0  0
   -2.2876   -1.4155    0.6120 O   0  0  0  0  0  0  0  0  0  0  0  0
   -2.4034    0.8436    0.3428 N   0  0  0  0  0  0  0  0  0  0  0  0
   -3.1024    1.5826    0.2633 H   0  0  0  0  0  0  0  0  0  0  0  0
   -1.0106    1.3500    0.3620 C   0  0  1  0  0  0  0  0  0  0  0  0
   -0.9422    1.9101    1.3007 H   0  0  0  0  0  0  0  0  0  0  0  0
    0.2045    0.3890    0.4352 C   0  0  0  0  0  0  0  0  0  0  0  0
    0.1245   -0.3277   -0.3891 H   0  0  0  0  0  0  0  0  0  0  0  0
    1.1187    0.9728    0.2797 H   0  0  0  0  0  0  0  0  0  0  0  0
    0.3584   -0.3875    1.7602 C   0  0  0  0  0  0  0  0  0  0  0  0
   -0.5095   -0.9910    2.0096 H   0  0  0  0  0  0  0  0  0  0  0  0
    0.4867    0.3336    2.5744 H   0  0  0  0  0  0  0  0  0  0  0  0
    1.5891   -1.2873    1.6802 C   0  0  0  0  0  0  0  0  0  0  0  0
    1.4706   -1.9740    0.8344 H   0  0  0  0  0  0  0  0  0  0  0  0
    2.4786   -0.6706    1.5091 H   0  0  0  0  0  0  0  0  0  0  0  0
    1.7273   -2.0498    2.9341 N   0  3  0  0  0  0  0  0  0  0  0  0
    1.0254   -1.8836    3.6543 H   0  0  0  0  0  0  0  0  0  0  0  0
    2.6521   -2.9422    3.1392 C   0  0  0  0  0  0  0  0  0  0  0  0
    3.5909   -3.2470    2.1803 N   0  0  0  0  0  0  0  0  0  0  0  0
    3.4385   -2.8871    1.2404 H   0  0  0  0  0  0  0  0  0  0  0  0
    4.1272   -4.1063    2.2813 H   0  0  0  0  0  0  0  0  0  0  0  0
    2.6967   -3.6081    4.3406 N   0  0  0  0  0  0  0  0  0  0  0  0
    2.1172   -3.2737    5.1080 H   0  0  0  0  0  0  0  0  0  0  0  0
    3.5308   -4.1458    4.5693 H   0  0  0  0  0  0  0  0  0  0  0  0
   -0.8609    2.4415   -0.7162 C   0  0  0  0  0  0  0  0  0  0  0  0
   -1.4159    3.5162   -0.5389 O   0  0  0  0  0  0  0  0  0  0  0  0
   -0.1995    2.1999   -1.9073 N   0  0  0  0  0  0  0  0  0  0  0  0
    0.0944    1.2448   -2.0895 H   0  0  0  0  0  0  0  0  0  0  0  0
   -0.1664    3.1627   -3.0040 C   0  0  0  0  0  0  0  0  0  0  0  0
    0.2595    4.1144   -2.6678 H   0  0  0  0  0  0  0  0  0  0  0  0
    0.4495    2.7830   -3.8252 H   0  0  0  0  0  0  0  0  0  0  0  0
   -1.1771    3.3457   -3.3844 H   0  0  0  0  0  0  0  0  0  0  0  0
  1  2  1  0  0  0  0
  2  3  1  0  0  0  0
  2  4  1  0  0  0  0
  2  5  1  0  0  0  0
  5  6  2  0  0  0  0
  5  7  1  0  0  0  0
  7  8  1  0  0  0  0
  7  9  1  0  0  0  0
  9 10  1  0  0  0  0
  9 11  1  0  0  0  0
  9 29  1  0  0  0  0
 11 12  1  0  0  0  0
 11 13  1  0  0  0  0
 11 14  1  0  0  0  0
 14 15  1  0  0  0  0
 14 16  1  0  0  0  0
 14 17  1  0  0  0  0
 17 18  1  0  0  0  0
 17 19  1  0  0  0  0
 17 20  1  0  0  0  0
 20 21  1  0  0  0  0
 20 22  2  0  0  0  0
 22 23  1  0  0  0  0
 22 26  1  0  0  0  0
 23 24  1  0  0  0  0
 23 25  1  0  0  0  0
 26 27  1  0  0  0  0
 26 28  1  0  0  0  0
 29 30  2  0  0  0  0
 29 31  1  0  0  0  0
 31 32  1  0  0  0  0
 31 33  1  0  0  0  0
 33 34  1  0  0  0  0
 33 35  1  0  0  0  0
 33 36  1  0  0  0  0
M  CHG  1  20   1
M  END
$$$$

  -OEChem-02172215453D

 36 35  0     1  0  0  0  0  0999 V2000
   -4.9858   -0.1164   -0.0171 H   0  0  0  0  0  0  0  0  0  0  0  0
   -4.4555   -0.5031    0.8568 C   0  0  0  0  0  0  0  0  0  0  0  0
   -4.7481    0.0750    1.7365 H   0  0  0  0  0  0  0  0  0  0  0  0
   -4.7466   -1.5463    1.0090 H   0  0  0  0  0  0  0  0  0  0  0  0
   -2.9572   -0.3999    0.6421 C   0  0  0  0  0  0  0  0  0  0  0  0
   -2.2970   -1.4240    0.5998 O   0  0  0  0  0  0  0  0  0  0  0  0
   -2.4186    0.8334    0.3272 N   0  0  0  0  0  0  0  0  0  0  0  0
   -3.1201    1.5711    0.2680 H   0  0  0  0  0  0  0  0  0  0  0  0
   -1.0255    1.3392    0.3472 C   0  0  1  0  0  0  0  0  0  0  0  0
   -0.9603    1.9042    1.2836 H   0  0  0  0  0  0  0  0  0  0  0  0
    0.1917    0.3820    0.4255 C   0  0  0  0  0  0  0  0  0  0  0  0
    0.1157   -0.3374   -0.3969 H   0  0  0  0  0  0  0  0  0  0  0  0
    1.1035    0.9683    0.2657 H   0  0  0  0  0  0  0  0  0  0  0  0
    0.3467   -0.3904    1.7528 C   0  0  0  0  0  0  0  0  0  0  0  0
   -0.5203   -0.9950    2.0038 H   0  0  0  0  0  0  0  0  0  0  0  0
    0.4736    0.3335    2.5649 H   0  0  0  0  0  0  0  0  0  0  0  0
    1.5810   -1.2859    1.6750 C   0  0  0  0  0  0  0  0  0  0  0  0
    1.4661   -1.9736    0.8297 H   0  0  0  0  0  0  0  0  0  0  0  0
    2.4677   -0.6657    1.5032 H   0  0  0  0  0  0  0  0  0  0  0  0
    1.7256   -2.0472    2.9291 N   0  3  0  0  0  0  0  0  0  0  0  0
    1.0244   -1.8853    3.6507 H   0  0  0  0  0  0  0  0  0  0  0  0
    2.6556   -2.9348    3.1324 C   0  0  0  0  0  0  0  0  0  0  0  0
    3.5942   -3.2350    2.1717 N   0  0  0  0  0  0  0  0  0  0  0  0
    3.4439   -2.8700    1.2335 H   0  0  0  0  0  0  0  0  0  0  0  0
    4.1346   -4.0921    2.2700 H   0  0  0  0  0  0  0  0  0  0  0  0
    2.7058   -3.6022    4.3329 N   0  0  0  0  0  0  0  0  0  0  0  0
    2.1312   -3.2678    5.1042 H   0  0  0  0  0  0  0  0  0  0  0  0
    3.5428   -4.1371    4.5573 H   0  0  0  0  0  0  0  0  0  0  0  0
   -0.8601    2.4155   -0.7419 C   0  0  0  0  0  0  0  0  0  0  0  0
   -1.1489    3.5736   -0.4804 O   0  0  0  0  0  0  0  0  0  0  0  0
   -0.4692    2.0746   -2.0238 N   0  0  0  0  0  0  0  0  0  0  0  0
   -0.3948    1.0838   -2.2371 H   0  0  0  0  0  0  0  0  0  0  0  0
   -0.4264    3.0339   -3.1227 C   0  0  0  0  0  0  0  0  0  0  0  0
    0.2333    3.8726   -2.8753 H   0  0  0  0  0  0  0  0  0  0  0  0
   -0.0461    2.5547   -4.0301 H   0  0  0  0  0  0  0  0  0  0  0  0
   -1.4279    3.4254   -3.3310 H   0  0  0  0  0  0  0  0  0  0  0  0
  1  2  1  0  0  0  0
  2  3  1  0  0  0  0
  2  4  1  0  0  0  0
  2  5  1  0  0  0  0
  5  6  2  0  0  0  0
  5  7  1  0  0  0  0
  7  8  1  0  0  0  0
  7  9  1  0  0  0  0
  9 10  1  0  0  0  0
  9 11  1  0  0  0  0
  9 29  1  0  0  0  0
 11 12  1  0  0  0  0
 11 13  1  0  0  0  0
 11 14  1  0  0  0  0
 14 15  1  0  0  0  0
 14 16  1  0  0  0  0
 14 17  1  0  0  0  0
 17 18  1  0  0  0  0
 17 19  1  0  0  0  0
 17 20  1  0  0  0  0
 20 21  1  0  0  0  0
 20 22  2  0  0  0  0
 22 23  1  0  0  0  0
 22 26  1  0  0  0  0
 23 24  1  0  0  0  0
 23 25  1  0  0  0  0
 26 27  1  0  0  0  0
 26 28  1  0  0  0  0
 29 30  2  0  0  0  0
 29 31  1  0  0  0  0
 31 32  1  0  0  0  0
 31 33  1  0  0  0  0
 33 34  1  0  0  0  0
 33 35  1  0  0  0  0
 33 36  1  0  0  0  0
M  CHG  1  20   1
M  END
$$$$

  -OEChem-02172215453D

 36 35  0     1  0  0  0  0  0999 V2000
   -4.5493   -0.4513    1.8317 H   0  0  0  0  0  0  0  0  0  0  0  0
   -3.4894   -0.7171    1.8024 C   0  0  0  0  0  0  0  0  0  0  0  0
   -2.9583   -0.1144    2.5424 H   0  0  0  0  0  0  0  0  0  0  0  0
   -3.3830   -1.7748    2.0562 H   0  0  0  0  0  0  0  0  0  0  0  0
   -2.9396   -0.4535    0.4116 C   0  0  0  0  0  0  0  0  0  0  0  0
   -2.8759   -1.3352   -0.4241 O   0  0  0  0  0  0  0  0  0  0  0  0
   -2.6154    0.8121    0.0021 N   0  0  0  0  0  0  0  0  0  0  0  0
   -2.8920    0.9214   -0.9730 H   0  0  0  0  0  0  0  0  0  0  0  0
   -1.3205    1.4690    0.2817 C   0  0  1  0  0  0  0  0  0  0  0  0
   -1.4358    2.0626    1.1954 H   0  0  0  0  0  0  0  0  0  0  0  0
   -0.0619    0.5667    0.4502 C   0  0  0  0  0  0  0  0  0  0  0  0
    0.0347   -0.0585   -0.4444 H   0  0  0  0  0  0  0  0  0  0  0  0
    0.8170    1.2210    0.4890 H   0  0  0  0  0  0  0  0  0  0  0  0
   -0.0110   -0.3564    1.6798 C   0  0  0  0  0  0  0  0  0  0  0  0
   -0.8305   -1.0742    1.6719 H   0  0  0  0  0  0  0  0  0  0  0  0
   -0.0811    0.2435    2.5939 H   0  0  0  0  0  0  0  0  0  0  0  0
    1.2976   -1.1460    1.6552 C   0  0  0  0  0  0  0  0  0  0  0  0
    1.3494   -1.7175    0.7216 H   0  0  0  0  0  0  0  0  0  0  0  0
    2.1399   -0.4451    1.6809 H   0  0  0  0  0  0  0  0  0  0  0  0
    1.3669   -2.0600    2.8107 N   0  3  0  0  0  0  0  0  0  0  0  0
    0.5916   -2.0358    3.4715 H   0  0  0  0  0  0  0  0  0  0  0  0
    2.3463   -2.8949    3.0106 C   0  0  0  0  0  0  0  0  0  0  0  0
    3.4102   -2.9879    2.1421 N   0  0  0  0  0  0  0  0  0  0  0  0
    3.3405   -2.5065    1.2480 H   0  0  0  0  0  0  0  0  0  0  0  0
    4.0238   -3.7981    2.2039 H   0  0  0  0  0  0  0  0  0  0  0  0
    2.3279   -3.7121    4.1158 N   0  0  0  0  0  0  0  0  0  0  0  0
    1.6470   -3.5313    4.8510 H   0  0  0  0  0  0  0  0  0  0  0  0
    3.1786   -4.2138    4.3652 H   0  0  0  0  0  0  0  0  0  0  0  0
   -1.0161    2.4526   -0.8693 C   0  0  0  0  0  0  0  0  0  0  0  0
   -1.0856    3.6530   -0.6596 O   0  0  0  0  0  0  0  0  0  0  0  0
   -0.5962    2.0002   -2.1085 N   0  0  0  0  0  0  0  0  0  0  0  0
   -0.6273    0.9988   -2.2801 H   0  0  0  0  0  0  0  0  0  0  0  0
   -0.3238    2.8954   -3.2290 C   0  0  0  0  0  0  0  0  0  0  0  0
    0.4703    3.6041   -2.9700 H   0  0  0  0  0  0  0  0  0  0  0  0
   -0.0014    2.3227   -4.1039 H   0  0  0  0  0  0  0  0  0  0  0  0
   -1.2232    3.4599   -3.4974 H   0  0  0  0  0  0  0  0  0  0  0  0
  1  2  1  0  0  0  0
  2  3  1  0  0  0  0
  2  4  1  0  0  0  0
  2  5  1  0  0  0  0
  5  6  2  0  0  0  0
  5  7  1  0  0  0  0
  7  8  1  0  0  0  0
  7  9  1  0  0  0  0
  9 10  1  0  0  0  0
  9 11  1  0  0  0  0
  9 29  1  0  0  0  0
 11 12  1  0  0  0  0
 11 13  1  0  0  0  0
 11 14  1  0  0  0  0
 14 15  1  0  0  0  0
 14 16  1  0  0  0  0
 14 17  1  0  0  0  0
 17 18  1  0  0  0  0
 17 19  1  0  0  0  0
 17 20  1  0  0  0  0
 20 21  1  0  0  0  0
 20 22  2  0  0  0  0
 22 23  1  0  0  0  0
 22 26  1  0  0  0  0
 23 24  1  0  0  0  0
 23 25  1  0  0  0  0
 26 27  1  0  0  0  0
 26 28  1  0  0  0  0
 29 30  2  0  0  0  0
 29 31  1  0  0  0  0
 31 32  1  0  0  0  0
 31 33  1  0  0  0  0
 33 34  1  0  0  0  0
 33 35  1  0  0  0  0
 33 36  1  0  0  0  0
M  CHG  1  20   1
M  END
$$$$

  -OEChem-02172215453D

 36 35  0     1  0  0  0  0  0999 V2000
   -4.5325   -0.5638    1.9312 H   0  0  0  0  0  0  0  0  0  0  0  0
   -3.4580   -0.7411    1.8355 C   0  0  0  0  0  0  0  0  0  0  0  0
   -2.9346   -0.0788    2.5287 H   0  0  0  0  0  0  0  0  0  0  0  0
   -3.2464   -1.7804    2.0981 H   0  0  0  0  0  0  0  0  0  0  0  0
   -3.0271   -0.4649    0.4054 C   0  0  0  0  0  0  0  0  0  0  0  0
   -3.2522   -1.2696   -0.4770 O   0  0  0  0  0  0  0  0  0  0  0  0
   -2.6712    0.7928   -0.0036 N   0  0  0  0  0  0  0  0  0  0  0  0
   -2.9692    0.9289   -0.9690 H   0  0  0  0  0  0  0  0  0  0  0  0
   -1.3940    1.4679    0.3103 C   0  0  1  0  0  0  0  0  0  0  0  0
   -1.5346    2.0654    1.2180 H   0  0  0  0  0  0  0  0  0  0  0  0
   -0.1232    0.5863    0.4863 C   0  0  0  0  0  0  0  0  0  0  0  0
    0.0027   -0.0156   -0.4207 H   0  0  0  0  0  0  0  0  0  0  0  0
    0.7412    1.2578    0.5538 H   0  0  0  0  0  0  0  0  0  0  0  0
   -0.0651   -0.3606    1.6948 C   0  0  0  0  0  0  0  0  0  0  0  0
   -0.8648   -1.0989    1.6549 H   0  0  0  0  0  0  0  0  0  0  0  0
   -0.1610    0.2146    2.6222 H   0  0  0  0  0  0  0  0  0  0  0  0
    1.2646   -1.1142    1.6612 C   0  0  0  0  0  0  0  0  0  0  0  0
    1.3375   -1.6598    0.7139 H   0  0  0  0  0  0  0  0  0  0  0  0
    2.0865   -0.3907    1.7087 H   0  0  0  0  0  0  0  0  0  0  0  0
    1.3588   -2.0566    2.7918 N   0  3  0  0  0  0  0  0  0  0  0  0
    0.5861   -2.0692    3.4560 H   0  0  0  0  0  0  0  0  0  0  0  0
    2.3644   -2.8655    2.9693 C   0  0  0  0  0  0  0  0  0  0  0  0
    3.4308   -2.8995    2.0993 N   0  0  0  0  0  0  0  0  0  0  0  0
    3.3507   -2.3906    1.2213 H   0  0  0  0  0  0  0  0  0  0  0  0
    4.0758   -3.6862    2.1420 H   0  0  0  0  0  0  0  0  0  0  0  0
    2.3729   -3.7139    4.0510 N   0  0  0  0  0  0  0  0  0  0  0  0
    1.6876   -3.5756    4.7912 H   0  0  0  0  0  0  0  0  0  0  0  0
    3.2405   -4.1925    4.2872 H   0  0  0  0  0  0  0  0  0  0  0  0
   -1.0537    2.4318   -0.8462 C   0  0  0  0  0  0  0  0  0  0  0  0
   -0.8225    3.6036   -0.5947 O   0  0  0  0  0  0  0  0  0  0  0  0
   -0.8820    1.9613   -2.1372 N   0  0  0  0  0  0  0  0  0  0  0  0
   -1.0867    0.9820   -2.3184 H   0  0  0  0  0  0  0  0  0  0  0  0
   -0.5214    2.8241   -3.2580 C   0  0  0  0  0  0  0  0  0  0  0  0
    0.4659    3.2703   -3.0971 H   0  0  0  0  0  0  0  0  0  0  0  0
   -0.4920    2.2478   -4.1881 H   0  0  0  0  0  0  0  0  0  0  0  0
   -1.2551    3.6292   -3.3746 H   0  0  0  0  0  0  0  0  0  0  0  0
  1  2  1  0  0  0  0
  2  3  1  0  0  0  0
  2  4  1  0  0  0  0
  2  5  1  0  0  0  0
  5  6  2  0  0  0  0
  5  7  1  0  0  0  0
  7  8  1  0  0  0  0
  7  9  1  0  0  0  0
  9 10  1  0  0  0  0
  9 11  1  0  0  0  0
  9 29  1  0  0  0  0
 11 12  1  0  0  0  0
 11 13  1  0  0  0  0
 11 14  1  0  0  0  0
 14 15  1  0  0  0  0
 14 16  1  0  0  0  0
 14 17  1  0  0  0  0
 17 18  1  0  0  0  0
 17 19  1  0  0  0  0
 17 20  1  0  0  0  0
 20 21  1  0  0  0  0
 20 22  2  0  0  0  0
 22 23  1  0  0  0  0
 22 26  1  0  0  0  0
 23 24  1  0  0  0  0
 23 25  1  0  0  0  0
 26 27  1  0  0  0  0
 26 28  1  0  0  0  0
 29 30  2  0  0  0  0
 29 31  1  0  0  0  0
 31 32  1  0  0  0  0
 31 33  1  0  0  0  0
 33 34  1  0  0  0  0
 33 35  1  0  0  0  0
 33 36  1  0  0  0  0
M  CHG  1  20   1
M  END
$$$$

  -OEChem-02172215453D

 36 35  0     1  0  0  0  0  0999 V2000
   -4.5036   -0.6025    2.0157 H   0  0  0  0  0  0  0  0  0  0  0  0
   -3.4314   -0.7607    1.8725 C   0  0  0  0  0  0  0  0  0  0  0  0
   -2.8911   -0.0934    2.5472 H   0  0  0  0  0  0  0  0  0  0  0  0
   -3.1919   -1.7977    2.1191 H   0  0  0  0  0  0  0  0  0  0  0  0
   -3.0683   -0.4692    0.4261 C   0  0  0  0  0  0  0  0  0  0  0  0
   -3.4128   -1.2278   -0.4582 O   0  0  0  0  0  0  0  0  0  0  0  0
   -2.6967    0.7850    0.0187 N   0  0  0  0  0  0  0  0  0  0  0  0
   -3.0275    0.9488   -0.9310 H   0  0  0  0  0  0  0  0  0  0  0  0
   -1.4259    1.4732    0.3356 C   0  0  1  0  0  0  0  0  0  0  0  0
   -1.5695    2.0718    1.2421 H   0  0  0  0  0  0  0  0  0  0  0  0
   -0.1477    0.5989    0.4992 C   0  0  0  0  0  0  0  0  0  0  0  0
   -0.0211    0.0102   -0.4164 H   0  0  0  0  0  0  0  0  0  0  0  0
    0.7130    1.2747    0.5717 H   0  0  0  0  0  0  0  0  0  0  0  0
   -0.0754   -0.3606    1.6965 C   0  0  0  0  0  0  0  0  0  0  0  0
   -0.8674   -1.1061    1.6463 H   0  0  0  0  0  0  0  0  0  0  0  0
   -0.1758    0.2025    2.6311 H   0  0  0  0  0  0  0  0  0  0  0  0
    1.2598   -1.1048    1.6535 C   0  0  0  0  0  0  0  0  0  0  0  0
    1.3370   -1.6409    0.7009 H   0  0  0  0  0  0  0  0  0  0  0  0
    2.0771   -0.3764    1.7081 H   0  0  0  0  0  0  0  0  0  0  0  0
    1.3576   -2.0558    2.7768 N   0  3  0  0  0  0  0  0  0  0  0  0
    0.5833   -2.0785    3.4387 H   0  0  0  0  0  0  0  0  0  0  0  0
    2.3659   -2.8620    2.9511 C   0  0  0  0  0  0  0  0  0  0  0  0
    3.4348   -2.8864    2.0840 N   0  0  0  0  0  0  0  0  0  0  0  0
    3.3563   -2.3698    1.2103 H   0  0  0  0  0  0  0  0  0  0  0  0
    4.0802   -3.6730    2.1213 H   0  0  0  0  0  0  0  0  0  0  0  0
    2.3756   -3.7160    4.0284 N   0  0  0  0  0  0  0  0  0  0  0  0
    1.6893   -3.5824    4.7686 H   0  0  0  0  0  0  0  0  0  0  0  0
    3.2467   -4.1877    4.2658 H   0  0  0  0  0  0  0  0  0  0  0  0
   -1.0738    2.4318   -0.8229 C   0  0  0  0  0  0  0  0  0  0  0  0
   -0.5983    3.5261   -0.5632 O   0  0  0  0  0  0  0  0  0  0  0  0
   -1.1809    2.0271   -2.1434 N   0  0  0  0  0  0  0  0  0  0  0  0
   -1.5121    1.0843   -2.3304 H   0  0  0  0  0  0  0  0  0  0  0  0
   -0.8113    2.8787   -3.2698 C   0  0  0  0  0  0  0  0  0  0  0  0
    0.2566    3.1191   -3.2358 H   0  0  0  0  0  0  0  0  0  0  0  0
   -1.0212    2.3704   -4.2160 H   0  0  0  0  0  0  0  0  0  0  0  0
   -1.3818    3.8135   -3.2480 H   0  0  0  0  0  0  0  0  0  0  0  0
  1  2  1  0  0  0  0
  2  3  1  0  0  0  0
  2  4  1  0  0  0  0
  2  5  1  0  0  0  0
  5  6  2  0  0  0  0
  5  7  1  0  0  0  0
  7  8  1  0  0  0  0
  7  9  1  0  0  0  0
  9 10  1  0  0  0  0
  9 11  1  0  0  0  0
  9 29  1  0  0  0  0
 11 12  1  0  0  0  0
 11 13  1  0  0  0  0
 11 14  1  0  0  0  0
 14 15  1  0  0  0  0
 14 16  1  0  0  0  0
 14 17  1  0  0  0  0
 17 18  1  0  0  0  0
 17 19  1  0  0  0  0
 17 20  1  0  0  0  0
 20 21  1  0  0  0  0
 20 22  2  0  0  0  0
 22 23  1  0  0  0  0
 22 26  1  0  0  0  0
 23 24  1  0  0  0  0
 23 25  1  0  0  0  0
 26 27  1  0  0  0  0
 26 28  1  0  0  0  0
 29 30  2  0  0  0  0
 29 31  1  0  0  0  0
 31 32  1  0  0  0  0
 31 33  1  0  0  0  0
 33 34  1  0  0  0  0
 33 35  1  0  0  0  0
 33 36  1  0  0  0  0
M  CHG  1  20   1
M  END
$$$$

  -OEChem-02172215453D

 36 35  0     1  0  0  0  0  0999 V2000
   -4.5011   -0.5788    2.0837 H   0  0  0  0  0  0  0  0  0  0  0  0
   -3.4313   -0.7382    1.9244 C   0  0  0  0  0  0  0  0  0  0  0  0
   -2.8807   -0.0615    2.5813 H   0  0  0  0  0  0  0  0  0  0  0  0
   -3.1866   -1.7720    2.1796 H   0  0  0  0  0  0  0  0  0  0  0  0
   -3.0946   -0.4648    0.4681 C   0  0  0  0  0  0  0  0  0  0  0  0
   -3.5107   -1.2037   -0.4017 O   0  0  0  0  0  0  0  0  0  0  0  0
   -2.7085    0.7798    0.0448 N   0  0  0  0  0  0  0  0  0  0  0  0
   -3.0686    0.9521   -0.8916 H   0  0  0  0  0  0  0  0  0  0  0  0
   -1.4355    1.4735    0.3444 C   0  0  1  0  0  0  0  0  0  0  0  0
   -1.5710    2.0836    1.2439 H   0  0  0  0  0  0  0  0  0  0  0  0
   -0.1627    0.5890    0.5071 C   0  0  0  0  0  0  0  0  0  0  0  0
   -0.0499   -0.0067   -0.4061 H   0  0  0  0  0  0  0  0  0  0  0  0
    0.7063    1.2555    0.5680 H   0  0  0  0  0  0  0  0  0  0  0  0
   -0.0831   -0.3609    1.7115 C   0  0  0  0  0  0  0  0  0  0  0  0
   -0.8794   -1.1025    1.6766 H   0  0  0  0  0  0  0  0  0  0  0  0
   -0.1692    0.2100    2.6424 H   0  0  0  0  0  0  0  0  0  0  0  0
    1.2483   -1.1116    1.6559 C   0  0  0  0  0  0  0  0  0  0  0  0
    1.3101   -1.6557    0.7066 H   0  0  0  0  0  0  0  0  0  0  0  0
    2.0674   -0.3844    1.6924 H   0  0  0  0  0  0  0  0  0  0  0  0
    1.3620   -2.0564    2.7830 N   0  3  0  0  0  0  0  0  0  0  0  0
    0.6159   -2.0493    3.4770 H   0  0  0  0  0  0  0  0  0  0  0  0
    2.3721   -2.8632    2.9434 C   0  0  0  0  0  0  0  0  0  0  0  0
    3.4250   -2.8924    2.0573 N   0  0  0  0  0  0  0  0  0  0  0  0
    3.4801   -2.1572    1.3551 H   0  0  0  0  0  0  0  0  0  0  0  0
    4.2884   -3.3540    2.3371 H   0  0  0  0  0  0  0  0  0  0  0  0
    2.4032   -3.7097    4.0262 N   0  0  0  0  0  0  0  0  0  0  0  0
    1.5624   -3.8221    4.5893 H   0  0  0  0  0  0  0  0  0  0  0  0
    3.0884   -4.4635    4.0353 H   0  0  0  0  0  0  0  0  0  0  0  0
   -1.0698    2.4177   -0.8248 C   0  0  0  0  0  0  0  0  0  0  0  0
   -0.3980    3.4114   -0.5918 O   0  0  0  0  0  0  0  0  0  0  0  0
   -1.4442    2.1393   -2.1295 N   0  0  0  0  0  0  0  0  0  0  0  0
   -1.8883    1.2454   -2.3201 H   0  0  0  0  0  0  0  0  0  0  0  0
   -1.1029    3.0030   -3.2556 C   0  0  0  0  0  0  0  0  0  0  0  0
   -0.0161    3.0725   -3.3723 H   0  0  0  0  0  0  0  0  0  0  0  0
   -1.5259    2.6039   -4.1827 H   0  0  0  0  0  0  0  0  0  0  0  0
   -1.5049    4.0105   -3.1016 H   0  0  0  0  0  0  0  0  0  0  0  0
  1  2  1  0  0  0  0
  2  3  1  0  0  0  0
  2  4  1  0  0  0  0
  2  5  1  0  0  0  0
  5  6  2  0  0  0  0
  5  7  1  0  0  0  0
  7  8  1  0  0  0  0
  7  9  1  0  0  0  0
  9 10  1  0  0  0  0
  9 11  1  0  0  0  0
  9 29  1  0  0  0  0
 11 12  1  0  0  0  0
 11 13  1  0  0  0  0
 11 14  1  0  0  0  0
 14 15  1  0  0  0  0
 14 16  1  0  0  0  0
 14 17  1  0  0  0  0
 17 18  1  0  0  0  0
 17 19  1  0  0  0  0
 17 20  1  0  0  0  0
 20 21  1  0  0  0  0
 20 22  2  0  0  0  0
 22 23  1  0  0  0  0
 22 26  1  0  0  0  0
 23 24  1  0  0  0  0
 23 25  1  0  0  0  0
 26 27  1  0  0  0  0
 26 28  1  0  0  0  0
 29 30  2  0  0  0  0
 29 31  1  0  0  0  0
 31 32  1  0  0  0  0
 31 33  1  0  0  0  0
 33 34  1  0  0  0  0
 33 35  1  0  0  0  0
 33 36  1  0  0  0  0
M  CHG  1  20   1
M  END
$$$$

  -OEChem-02172215453D

 36 35  0     1  0  0  0  0  0999 V2000
   -3.7339   -2.0370    0.3154 H   0  0  0  0  0  0  0  0  0  0  0  0
   -2.7985   -1.4701    0.3140 C   0  0  0  0  0  0  0  0  0  0  0  0
   -2.0439   -2.0431    0.8540 H   0  0  0  0  0  0  0  0  0  0  0  0
   -2.4788   -1.3400   -0.7230 H   0  0  0  0  0  0  0  0  0  0  0  0
   -3.0256   -0.1148    0.9671 C   0  0  0  0  0  0  0  0  0  0  0  0
   -3.8747    0.0103    1.8264 O   0  0  0  0  0  0  0  0  0  0  0  0
   -2.5816    1.0561    0.4031 N   0  0  0  0  0  0  0  0  0  0  0  0
   -3.1761    1.8163    0.7346 H   0  0  0  0  0  0  0  0  0  0  0  0
   -1.1685    1.4686    0.2212 C   0  0  1  0  0  0  0  0  0  0  0  0
   -0.9726    2.1517    1.0549 H   0  0  0  0  0  0  0  0  0  0  0  0
   -0.0545    0.3947    0.3314 C   0  0  0  0  0  0  0  0  0  0  0  0
   -0.2596   -0.4084   -0.3829 H   0  0  0  0  0  0  0  0  0  0  0  0
    0.9012    0.8444    0.0389 H   0  0  0  0  0  0  0  0  0  0  0  0
    0.1158   -0.1864    1.7496 C   0  0  0  0  0  0  0  0  0  0  0  0
   -0.8030   -0.6409    2.1201 H   0  0  0  0  0  0  0  0  0  0  0  0
    0.3763    0.6275    2.4355 H   0  0  0  0  0  0  0  0  0  0  0  0
    1.2323   -1.2293    1.7508 C   0  0  0  0  0  0  0  0  0  0  0  0
    0.9868   -2.0199    1.0329 H   0  0  0  0  0  0  0  0  0  0  0  0
    2.1681   -0.7533    1.4365 H   0  0  0  0  0  0  0  0  0  0  0  0
    1.3793   -1.8016    3.1024 N   0  3  0  0  0  0  0  0  0  0  0  0
    0.8063   -1.3980    3.8430 H   0  0  0  0  0  0  0  0  0  0  0  0
    2.2150   -2.7560    3.3964 C   0  0  0  0  0  0  0  0  0  0  0  0
    3.0424   -3.3147    2.4490 N   0  0  0  0  0  0  0  0  0  0  0  0
    3.1139   -2.8496    1.5463 H   0  0  0  0  0  0  0  0  0  0  0  0
    3.8341   -3.8731    2.7622 H   0  0  0  0  0  0  0  0  0  0  0  0
    2.2844   -3.2230    4.6874 N   0  0  0  0  0  0  0  0  0  0  0  0
    1.5680   -2.9395    5.3534 H   0  0  0  0  0  0  0  0  0  0  0  0
    2.7863   -4.0911    4.8661 H   0  0  0  0  0  0  0  0  0  0  0  0
   -0.9825    2.3695   -1.0200 C   0  0  0  0  0  0  0  0  0  0  0  0
    0.0690    2.9743   -1.1708 O   0  0  0  0  0  0  0  0  0  0  0  0
   -1.9692    2.4613   -1.9839 N   0  0  0  0  0  0  0  0  0  0  0  0
   -2.8344    1.9550   -1.8122 H   0  0  0  0  0  0  0  0  0  0  0  0
   -1.8651    3.3099   -3.1663 C   0  0  0  0  0  0  0  0  0  0  0  0
   -0.9754    3.0499   -3.7498 H   0  0  0  0  0  0  0  0  0  0  0  0
   -2.7447    3.1807   -3.8047 H   0  0  0  0  0  0  0  0  0  0  0  0
   -1.7992    4.3642   -2.8772 H   0  0  0  0  0  0  0  0  0  0  0  0
  1  2  1  0  0  0  0
  2  3  1  0  0  0  0
  2  4  1  0  0  0  0
  2  5  1  0  0  0  0
  5  6  2  0  0  0  0
  5  7  1  0  0  0  0
  7  8  1  0  0  0  0
  7  9  1  0  0  0  0
  9 10  1  0  0  0  0
  9 11  1  0  0  0  0
  9 29  1  0  0  0  0
 11 12  1  0  0  0  0
 11 13  1  0  0  0  0
 11 14  1  0  0  0  0
 14 15  1  0  0  0  0
 14 16  1  0  0  0  0
 14 17  1  0  0  0  0
 17 18  1  0  0  0  0
 17 19  1  0  0  0  0
 17 20  1  0  0  0  0
 20 21  1  0  0  0  0
 20 22  2  0  0  0  0
 22 23  1  0  0  0  0
 22 26  1  0  0  0  0
 23 24  1  0  0  0  0
 23 25  1  0  0  0  0
 26 27  1  0  0  0  0
 26 28  1  0  0  0  0
 29 30  2  0  0  0  0
 29 31  1  0  0  0  0
 31 32  1  0  0  0  0
 31 33  1  0  0  0  0
 33 34  1  0  0  0  0
 33 35  1  0  0  0  0
 33 36  1  0  0  0  0
M  CHG  1  20   1
M  END
$$$$

  -OEChem-02172215453D

 36 35  0     1  0  0  0  0  0999 V2000
   -3.7486   -2.0241    0.2794 H   0  0  0  0  0  0  0  0  0  0  0  0
   -2.8025   -1.4782    0.3360 C   0  0  0  0  0  0  0  0  0  0  0  0
   -2.0940   -2.0686    0.9184 H   0  0  0  0  0  0  0  0  0  0  0  0
   -2.4192   -1.3522   -0.6795 H   0  0  0  0  0  0  0  0  0  0  0  0
   -3.0390   -0.1217    0.9824 C   0  0  0  0  0  0  0  0  0  0  0  0
   -3.8888    0.0007    1.8415 O   0  0  0  0  0  0  0  0  0  0  0  0
   -2.6019    1.0518    0.4184 N   0  0  0  0  0  0  0  0  0  0  0  0
   -3.1995    1.8062    0.7570 H   0  0  0  0  0  0  0  0  0  0  0  0
   -1.1920    1.4773    0.2358 C   0  0  1  0  0  0  0  0  0  0  0  0
   -0.9973    2.1608    1.0689 H   0  0  0  0  0  0  0  0  0  0  0  0
   -0.0743    0.4045    0.3437 C   0  0  0  0  0  0  0  0  0  0  0  0
   -0.2752   -0.3957   -0.3748 H   0  0  0  0  0  0  0  0  0  0  0  0
    0.8825    0.8549    0.0573 H   0  0  0  0  0  0  0  0  0  0  0  0
    0.1002   -0.1820    1.7585 C   0  0  0  0  0  0  0  0  0  0  0  0
   -0.8153   -0.6422    2.1297 H   0  0  0  0  0  0  0  0  0  0  0  0
    0.3600    0.6287    2.4484 H   0  0  0  0  0  0  0  0  0  0  0  0
    1.2203   -1.2204    1.7464 C   0  0  0  0  0  0  0  0  0  0  0  0
    0.9733   -2.0059    1.0233 H   0  0  0  0  0  0  0  0  0  0  0  0
    2.1523   -0.7380    1.4304 H   0  0  0  0  0  0  0  0  0  0  0  0
    1.3782   -1.8037    3.0916 N   0  3  0  0  0  0  0  0  0  0  0  0
    0.8068   -1.4107    3.8388 H   0  0  0  0  0  0  0  0  0  0  0  0
    2.2198   -2.7569    3.3716 C   0  0  0  0  0  0  0  0  0  0  0  0
    3.0435   -3.3034    2.4137 N   0  0  0  0  0  0  0  0  0  0  0  0
    3.1143   -2.8238    1.5184 H   0  0  0  0  0  0  0  0  0  0  0  0
    3.8357   -3.8665    2.7171 H   0  0  0  0  0  0  0  0  0  0  0  0
    2.2959   -3.2381    4.6570 N   0  0  0  0  0  0  0  0  0  0  0  0
    1.5790   -2.9672    5.3277 H   0  0  0  0  0  0  0  0  0  0  0  0
    2.7995   -4.1079    4.8221 H   0  0  0  0  0  0  0  0  0  0  0  0
   -1.0203    2.3806   -1.0095 C   0  0  0  0  0  0  0  0  0  0  0  0
    0.0827    2.8293   -1.2874 O   0  0  0  0  0  0  0  0  0  0  0  0
   -2.1029    2.7052   -1.8062 N   0  0  0  0  0  0  0  0  0  0  0  0
   -2.9928    2.2679   -1.5812 H   0  0  0  0  0  0  0  0  0  0  0  0
   -2.0064    3.5462   -2.9948 C   0  0  0  0  0  0  0  0  0  0  0  0
   -1.3438    3.0877   -3.7366 H   0  0  0  0  0  0  0  0  0  0  0  0
   -2.9937    3.6787   -3.4483 H   0  0  0  0  0  0  0  0  0  0  0  0
   -1.6125    4.5349   -2.7349 H   0  0  0  0  0  0  0  0  0  0  0  0
  1  2  1  0  0  0  0
  2  3  1  0  0  0  0
  2  4  1  0  0  0  0
  2  5  1  0  0  0  0
  5  6  2  0  0  0  0
  5  7  1  0  0  0  0
  7  8  1  0  0  0  0
  7  9  1  0  0  0  0
  9 10  1  0  0  0  0
  9 11  1  0  0  0  0
  9 29  1  0  0  0  0
 11 12  1  0  0  0  0
 11 13  1  0  0  0  0
 11 14  1  0  0  0  0
 14 15  1  0  0  0  0
 14 16  1  0  0  0  0
 14 17  1  0  0  0  0
 17 18  1  0  0  0  0
 17 19  1  0  0  0  0
 17 20  1  0  0  0  0
 20 21  1  0  0  0  0
 20 22  2  0  0  0  0
 22 23  1  0  0  0  0
 22 26  1  0  0  0  0
 23 24  1  0  0  0  0
 23 25  1  0  0  0  0
 26 27  1  0  0  0  0
 26 28  1  0  0  0  0
 29 30  2  0  0  0  0
 29 31  1  0  0  0  0
 31 32  1  0  0  0  0
 31 33  1  0  0  0  0
 33 34  1  0  0  0  0
 33 35  1  0  0  0  0
 33 36  1  0  0  0  0
M  CHG  1  20   1
M  END
$$$$

  -OEChem-02172215453D

 36 35  0     1  0  0  0  0  0999 V2000
   -4.5348   -0.6246    1.8900 H   0  0  0  0  0  0  0  0  0  0  0  0
   -3.4582   -0.8027    1.8256 C   0  0  0  0  0  0  0  0  0  0  0  0
   -2.9547   -0.1507    2.5423 H   0  0  0  0  0  0  0  0  0  0  0  0
   -3.2565   -1.8454    2.0828 H   0  0  0  0  0  0  0  0  0  0  0  0
   -2.9810   -0.5118    0.4128 C   0  0  0  0  0  0  0  0  0  0  0  0
   -3.1784   -1.3107   -0.4805 O   0  0  0  0  0  0  0  0  0  0  0  0
   -2.6638    0.7610    0.0182 N   0  0  0  0  0  0  0  0  0  0  0  0
   -2.8435    0.8006   -0.9846 H   0  0  0  0  0  0  0  0  0  0  0  0
   -1.4151    1.4811    0.3693 C   0  0  1  0  0  0  0  0  0  0  0  0
   -1.5864    2.0657    1.2789 H   0  0  0  0  0  0  0  0  0  0  0  0
   -0.1430    0.5888    0.5668 C   0  0  0  0  0  0  0  0  0  0  0  0
    0.0044    0.0154   -0.3557 H   0  0  0  0  0  0  0  0  0  0  0  0
    0.7266    1.2455    0.6828 H   0  0  0  0  0  0  0  0  0  0  0  0
   -0.0866   -0.3826    1.7570 C   0  0  0  0  0  0  0  0  0  0  0  0
   -0.8717   -1.1340    1.6984 H   0  0  0  0  0  0  0  0  0  0  0  0
   -0.1943    0.1702    2.6964 H   0  0  0  0  0  0  0  0  0  0  0  0
    1.2545   -1.1152    1.7071 C   0  0  0  0  0  0  0  0  0  0  0  0
    1.3361   -1.6347    0.7458 H   0  0  0  0  0  0  0  0  0  0  0  0
    2.0648   -0.3797    1.7718 H   0  0  0  0  0  0  0  0  0  0  0  0
    1.3658   -2.0846    2.8127 N   0  3  0  0  0  0  0  0  0  0  0  0
    0.5939   -2.1298    3.4760 H   0  0  0  0  0  0  0  0  0  0  0  0
    2.3865   -2.8791    2.9654 C   0  0  0  0  0  0  0  0  0  0  0  0
    3.4499   -2.8690    2.0912 N   0  0  0  0  0  0  0  0  0  0  0  0
    3.3543   -2.3368    1.2284 H   0  0  0  0  0  0  0  0  0  0  0  0
    4.1030   -3.6499    2.1034 H   0  0  0  0  0  0  0  0  0  0  0  0
    2.4161   -3.7533    4.0258 N   0  0  0  0  0  0  0  0  0  0  0  0
    1.7336   -3.6418    4.7730 H   0  0  0  0  0  0  0  0  0  0  0  0
    3.2969   -4.2134    4.2498 H   0  0  0  0  0  0  0  0  0  0  0  0
   -1.0744    2.4793   -0.7786 C   0  0  0  0  0  0  0  0  0  0  0  0
    0.0385    2.9806   -0.8692 O   0  0  0  0  0  0  0  0  0  0  0  0
   -2.0211    2.8143   -1.7341 N   0  0  0  0  0  0  0  0  0  0  0  0
   -2.9854    2.5629   -1.5359 H   0  0  0  0  0  0  0  0  0  0  0  0
   -1.7713    3.7891   -2.7927 C   0  0  0  0  0  0  0  0  0  0  0  0
   -0.9138    3.4836   -3.4019 H   0  0  0  0  0  0  0  0  0  0  0  0
   -2.6447    3.8705   -3.4477 H   0  0  0  0  0  0  0  0  0  0  0  0
   -1.5650    4.7766   -2.3658 H   0  0  0  0  0  0  0  0  0  0  0  0
  1  2  1  0  0  0  0
  2  3  1  0  0  0  0
  2  4  1  0  0  0  0
  2  5  1  0  0  0  0
  5  6  2  0  0  0  0
  5  7  1  0  0  0  0
  7  8  1  0  0  0  0
  7  9  1  0  0  0  0
  9 10  1  0  0  0  0
  9 11  1  0  0  0  0
  9 29  1  0  0  0  0
 11 12  1  0  0  0  0
 11 13  1  0  0  0  0
 11 14  1  0  0  0  0
 14 15  1  0  0  0  0
 14 16  1  0  0  0  0
 14 17  1  0  0  0  0
 17 18  1  0  0  0  0
 17 19  1  0  0  0  0
 17 20  1  0  0  0  0
 20 21  1  0  0  0  0
 20 22  2  0  0  0  0
 22 23  1  0  0  0  0
 22 26  1  0  0  0  0
 23 24  1  0  0  0  0
 23 25  1  0  0  0  0
 26 27  1  0  0  0  0
 26 28  1  0  0  0  0
 29 30  2  0  0  0  0
 29 31  1  0  0  0  0
 31 32  1  0  0  0  0
 31 33  1  0  0  0  0
 33 34  1  0  0  0  0
 33 35  1  0  0  0  0
 33 36  1  0  0  0  0
M  CHG  1  20   1
M  END
$$$$

  -OEChem-02172215453D

 36 35  0     1  0  0  0  0  0999 V2000
   -4.5238   -0.6069    1.8520 H   0  0  0  0  0  0  0  0  0  0  0  0
   -3.4474   -0.7881    1.7931 C   0  0  0  0  0  0  0  0  0  0  0  0
   -2.9465   -0.1461    2.5207 H   0  0  0  0  0  0  0  0  0  0  0  0
   -3.2515   -1.8346    2.0398 H   0  0  0  0  0  0  0  0  0  0  0  0
   -2.9622   -0.4832    0.3859 C   0  0  0  0  0  0  0  0  0  0  0  0
   -3.1791   -1.2638   -0.5188 O   0  0  0  0  0  0  0  0  0  0  0  0
   -2.6321    0.7929    0.0124 N   0  0  0  0  0  0  0  0  0  0  0  0
   -2.8153    0.8625   -0.9892 H   0  0  0  0  0  0  0  0  0  0  0  0
   -1.3843    1.5019    0.3846 C   0  0  1  0  0  0  0  0  0  0  0  0
   -1.5607    2.0814    1.2963 H   0  0  0  0  0  0  0  0  0  0  0  0
   -0.1174    0.6046    0.5870 C   0  0  0  0  0  0  0  0  0  0  0  0
    0.0412    0.0411   -0.3401 H   0  0  0  0  0  0  0  0  0  0  0  0
    0.7487    1.2625    0.7216 H   0  0  0  0  0  0  0  0  0  0  0  0
   -0.0755   -0.3798    1.7663 C   0  0  0  0  0  0  0  0  0  0  0  0
   -0.8615   -1.1288    1.6892 H   0  0  0  0  0  0  0  0  0  0  0  0
   -0.1922    0.1622    2.7110 H   0  0  0  0  0  0  0  0  0  0  0  0
    1.2654   -1.1132    1.7205 C   0  0  0  0  0  0  0  0  0  0  0  0
    1.3556   -1.6207    0.7535 H   0  0  0  0  0  0  0  0  0  0  0  0
    2.0756   -0.3795    1.8019 H   0  0  0  0  0  0  0  0  0  0  0  0
    1.3666   -2.0963    2.8149 N   0  3  0  0  0  0  0  0  0  0  0  0
    0.5883   -2.1505    3.4699 H   0  0  0  0  0  0  0  0  0  0  0  0
    2.3860   -2.8928    2.9663 C   0  0  0  0  0  0  0  0  0  0  0  0
    3.4570   -2.8712    2.1015 N   0  0  0  0  0  0  0  0  0  0  0  0
    3.3691   -2.3282    1.2446 H   0  0  0  0  0  0  0  0  0  0  0  0
    4.1118   -3.6507    2.1106 H   0  0  0  0  0  0  0  0  0  0  0  0
    2.4045   -3.7837    4.0133 N   0  0  0  0  0  0  0  0  0  0  0  0
    1.7097   -3.6905    4.7514 H   0  0  0  0  0  0  0  0  0  0  0  0
    3.2807   -4.2521    4.2383 H   0  0  0  0  0  0  0  0  0  0  0  0
   -1.0534    2.5033   -0.7636 C   0  0  0  0  0  0  0  0  0  0  0  0
    0.0969    2.8165   -1.0418 O   0  0  0  0  0  0  0  0  0  0  0  0
   -2.0801    3.0594   -1.5091 N   0  0  0  0  0  0  0  0  0  0  0  0
   -3.0312    2.8943   -1.1889 H   0  0  0  0  0  0  0  0  0  0  0  0
   -1.8631    4.0341   -2.5743 C   0  0  0  0  0  0  0  0  0  0  0  0
   -1.2198    3.6134   -3.3545 H   0  0  0  0  0  0  0  0  0  0  0  0
   -2.8170    4.3156   -3.0310 H   0  0  0  0  0  0  0  0  0  0  0  0
   -1.3891    4.9381   -2.1775 H   0  0  0  0  0  0  0  0  0  0  0  0
  1  2  1  0  0  0  0
  2  3  1  0  0  0  0
  2  4  1  0  0  0  0
  2  5  1  0  0  0  0
  5  6  2  0  0  0  0
  5  7  1  0  0  0  0
  7  8  1  0  0  0  0
  7  9  1  0  0  0  0
  9 10  1  0  0  0  0
  9 11  1  0  0  0  0
  9 29  1  0  0  0  0
 11 12  1  0  0  0  0
 11 13  1  0  0  0  0
 11 14  1  0  0  0  0
 14 15  1  0  0  0  0
 14 16  1  0  0  0  0
 14 17  1  0  0  0  0
 17 18  1  0  0  0  0
 17 19  1  0  0  0  0
 17 20  1  0  0  0  0
 20 21  1  0  0  0  0
 20 22  2  0  0  0  0
 22 23  1  0  0  0  0
 22 26  1  0  0  0  0
 23 24  1  0  0  0  0
 23 25  1  0  0  0  0
 26 27  1  0  0  0  0
 26 28  1  0  0  0  0
 29 30  2  0  0  0  0
 29 31  1  0  0  0  0
 31 32  1  0  0  0  0
 31 33  1  0  0  0  0
 33 34  1  0  0  0  0
 33 35  1  0  0  0  0
 33 36  1  0  0  0  0
M  CHG  1  20   1
M  END
$$$$

  -OEChem-02172215453D

 36 35  0     1  0  0  0  0  0999 V2000
   -4.5153   -0.6280    1.8106 H   0  0  0  0  0  0  0  0  0  0  0  0
   -3.4346   -0.7832    1.7546 C   0  0  0  0  0  0  0  0  0  0  0  0
   -2.9516   -0.1329    2.4872 H   0  0  0  0  0  0  0  0  0  0  0  0
   -3.2154   -1.8262    1.9964 H   0  0  0  0  0  0  0  0  0  0  0  0
   -2.9519   -0.4603    0.3505 C   0  0  0  0  0  0  0  0  0  0  0  0
   -3.1928   -1.2206   -0.5654 O   0  0  0  0  0  0  0  0  0  0  0  0
   -2.6077    0.8185   -0.0026 N   0  0  0  0  0  0  0  0  0  0  0  0
   -2.7989    0.9176   -1.0007 H   0  0  0  0  0  0  0  0  0  0  0  0
   -1.3598    1.5153    0.3885 C   0  0  1  0  0  0  0  0  0  0  0  0
   -1.5404    2.0874    1.3039 H   0  0  0  0  0  0  0  0  0  0  0  0
   -0.0974    0.6145    0.5968 C   0  0  0  0  0  0  0  0  0  0  0  0
    0.0682    0.0555   -0.3319 H   0  0  0  0  0  0  0  0  0  0  0  0
    0.7665    1.2741    0.7393 H   0  0  0  0  0  0  0  0  0  0  0  0
   -0.0690   -0.3792    1.7683 C   0  0  0  0  0  0  0  0  0  0  0  0
   -0.8554   -1.1260    1.6748 H   0  0  0  0  0  0  0  0  0  0  0  0
   -0.1953    0.1540    2.7168 H   0  0  0  0  0  0  0  0  0  0  0  0
    1.2712   -1.1142    1.7294 C   0  0  0  0  0  0  0  0  0  0  0  0
    1.3699   -1.6140    0.7591 H   0  0  0  0  0  0  0  0  0  0  0  0
    2.0812   -0.3820    1.8245 H   0  0  0  0  0  0  0  0  0  0  0  0
    1.3604   -2.1062    2.8164 N   0  3  0  0  0  0  0  0  0  0  0  0
    0.5741   -2.1661    3.4614 H   0  0  0  0  0  0  0  0  0  0  0  0
    2.3769   -2.9060    2.9716 C   0  0  0  0  0  0  0  0  0  0  0  0
    3.4570   -2.8808    2.1180 N   0  0  0  0  0  0  0  0  0  0  0  0
    3.3776   -2.3323    1.2637 H   0  0  0  0  0  0  0  0  0  0  0  0
    4.1049   -3.6662    2.1240 H   0  0  0  0  0  0  0  0  0  0  0  0
    2.3838   -3.8036    4.0128 N   0  0  0  0  0  0  0  0  0  0  0  0
    1.6874   -3.7063    4.7490 H   0  0  0  0  0  0  0  0  0  0  0  0
    3.2579   -4.2735    4.2423 H   0  0  0  0  0  0  0  0  0  0  0  0
   -1.0247    2.5233   -0.7503 C   0  0  0  0  0  0  0  0  0  0  0  0
    0.1035    2.6494   -1.2095 O   0  0  0  0  0  0  0  0  0  0  0  0
   -2.0374    3.3092   -1.2720 N   0  0  0  0  0  0  0  0  0  0  0  0
   -2.9618    3.2211   -0.8574 H   0  0  0  0  0  0  0  0  0  0  0  0
   -1.8338    4.2893   -2.3349 C   0  0  0  0  0  0  0  0  0  0  0  0
   -1.5200    3.7929   -3.2593 H   0  0  0  0  0  0  0  0  0  0  0  0
   -2.7626    4.8331   -2.5333 H   0  0  0  0  0  0  0  0  0  0  0  0
   -1.0654    5.0154   -2.0484 H   0  0  0  0  0  0  0  0  0  0  0  0
  1  2  1  0  0  0  0
  2  3  1  0  0  0  0
  2  4  1  0  0  0  0
  2  5  1  0  0  0  0
  5  6  2  0  0  0  0
  5  7  1  0  0  0  0
  7  8  1  0  0  0  0
  7  9  1  0  0  0  0
  9 10  1  0  0  0  0
  9 11  1  0  0  0  0
  9 29  1  0  0  0  0
 11 12  1  0  0  0  0
 11 13  1  0  0  0  0
 11 14  1  0  0  0  0
 14 15  1  0  0  0  0
 14 16  1  0  0  0  0
 14 17  1  0  0  0  0
 17 18  1  0  0  0  0
 17 19  1  0  0  0  0
 17 20  1  0  0  0  0
 20 21  1  0  0  0  0
 20 22  2  0  0  0  0
 22 23  1  0  0  0  0
 22 26  1  0  0  0  0
 23 24  1  0  0  0  0
 23 25  1  0  0  0  0
 26 27  1  0  0  0  0
 26 28  1  0  0  0  0
 29 30  2  0  0  0  0
 29 31  1  0  0  0  0
 31 32  1  0  0  0  0
 31 33  1  0  0  0  0
 33 34  1  0  0  0  0
 33 35  1  0  0  0  0
 33 36  1  0  0  0  0
M  CHG  1  20   1
M  END
$$$$

  -OEChem-02172215453D

 36 35  0     1  0  0  0  0  0999 V2000
   -4.5078   -0.6081    1.8013 H   0  0  0  0  0  0  0  0  0  0  0  0
   -3.4274   -0.7634    1.7400 C   0  0  0  0  0  0  0  0  0  0  0  0
   -2.9417   -0.1125    2.4700 H   0  0  0  0  0  0  0  0  0  0  0  0
   -3.2065   -1.8061    1.9804 H   0  0  0  0  0  0  0  0  0  0  0  0
   -2.9525   -0.4405    0.3333 C   0  0  0  0  0  0  0  0  0  0  0  0
   -3.2330   -1.1851   -0.5838 O   0  0  0  0  0  0  0  0  0  0  0  0
   -2.5919    0.8352   -0.0146 N   0  0  0  0  0  0  0  0  0  0  0  0
   -2.7849    0.9465   -1.0112 H   0  0  0  0  0  0  0  0  0  0  0  0
   -1.3455    1.5237    0.3888 C   0  0  1  0  0  0  0  0  0  0  0  0
   -1.5300    2.0954    1.3035 H   0  0  0  0  0  0  0  0  0  0  0  0
   -0.0873    0.6210    0.6063 C   0  0  0  0  0  0  0  0  0  0  0  0
    0.0801    0.0562   -0.3187 H   0  0  0  0  0  0  0  0  0  0  0  0
    0.7754    1.2833    0.7463 H   0  0  0  0  0  0  0  0  0  0  0  0
   -0.0684   -0.3754    1.7748 C   0  0  0  0  0  0  0  0  0  0  0  0
   -0.8550   -1.1209    1.6722 H   0  0  0  0  0  0  0  0  0  0  0  0
   -0.2011    0.1545    2.7241 H   0  0  0  0  0  0  0  0  0  0  0  0
    1.2720   -1.1099    1.7419 C   0  0  0  0  0  0  0  0  0  0  0  0
    1.3766   -1.6051    0.7699 H   0  0  0  0  0  0  0  0  0  0  0  0
    2.0809   -0.3776    1.8445 H   0  0  0  0  0  0  0  0  0  0  0  0
    1.3585   -2.1068    2.8247 N   0  3  0  0  0  0  0  0  0  0  0  0
    0.5700   -2.1724    3.4666 H   0  0  0  0  0  0  0  0  0  0  0  0
    2.3770   -2.9042    2.9784 C   0  0  0  0  0  0  0  0  0  0  0  0
    3.4588   -2.8697    2.1275 N   0  0  0  0  0  0  0  0  0  0  0  0
    3.3764   -2.3213    1.2733 H   0  0  0  0  0  0  0  0  0  0  0  0
    4.1119   -3.6506    2.1334 H   0  0  0  0  0  0  0  0  0  0  0  0
    2.3850   -3.8081    4.0137 N   0  0  0  0  0  0  0  0  0  0  0  0
    1.6835   -3.7230    4.7466 H   0  0  0  0  0  0  0  0  0  0  0  0
    3.2597   -4.2780    4.2414 H   0  0  0  0  0  0  0  0  0  0  0  0
   -0.9975    2.5249   -0.7492 C   0  0  0  0  0  0  0  0  0  0  0  0
    0.0483    2.4673   -1.3837 O   0  0  0  0  0  0  0  0  0  0  0  0
   -1.9064    3.5192   -1.0629 N   0  0  0  0  0  0  0  0  0  0  0  0
   -2.7865    3.5309   -0.5537 H   0  0  0  0  0  0  0  0  0  0  0  0
   -1.7014    4.4903   -2.1335 C   0  0  0  0  0  0  0  0  0  0  0  0
   -1.6571    3.9875   -3.1054 H   0  0  0  0  0  0  0  0  0  0  0  0
   -2.5240    5.2118   -2.1548 H   0  0  0  0  0  0  0  0  0  0  0  0
   -0.7666    5.0403   -1.9803 H   0  0  0  0  0  0  0  0  0  0  0  0
  1  2  1  0  0  0  0
  2  3  1  0  0  0  0
  2  4  1  0  0  0  0
  2  5  1  0  0  0  0
  5  6  2  0  0  0  0
  5  7  1  0  0  0  0
  7  8  1  0  0  0  0
  7  9  1  0  0  0  0
  9 10  1  0  0  0  0
  9 11  1  0  0  0  0
  9 29  1  0  0  0  0
 11 12  1  0  0  0  0
 11 13  1  0  0  0  0
 11 14  1  0  0  0  0
 14 15  1  0  0  0  0
 14 16  1  0  0  0  0
 14 17  1  0  0  0  0
 17 18  1  0  0  0  0
 17 19  1  0  0  0  0
 17 20  1  0  0  0  0
 20 21  1  0  0  0  0
 20 22  2  0  0  0  0
 22 23  1  0  0  0  0
 22 26  1  0  0  0  0
 23 24  1  0  0  0  0
 23 25  1  0  0  0  0
 26 27  1  0  0  0  0
 26 28  1  0  0  0  0
 29 30  2  0  0  0  0
 29 31  1  0  0  0  0
 31 32  1  0  0  0  0
 31 33  1  0  0  0  0
 33 34  1  0  0  0  0
 33 35  1  0  0  0  0
 33 36  1  0  0  0  0
M  CHG  1  20   1
M  END
$$$$

  -OEChem-02172215453D

 36 35  0     1  0  0  0  0  0999 V2000
   -4.5130   -0.6122    1.7672 H   0  0  0  0  0  0  0  0  0  0  0  0
   -3.4311   -0.7608    1.7137 C   0  0  0  0  0  0  0  0  0  0  0  0
   -2.9549   -0.1075    2.4475 H   0  0  0  0  0  0  0  0  0  0  0  0
   -3.2057   -1.8022    1.9560 H   0  0  0  0  0  0  0  0  0  0  0  0
   -2.9465   -0.4348    0.3109 C   0  0  0  0  0  0  0  0  0  0  0  0
   -3.2096   -1.1846   -0.6073 O   0  0  0  0  0  0  0  0  0  0  0  0
   -2.5826    0.8416   -0.0321 N   0  0  0  0  0  0  0  0  0  0  0  0
   -2.7649    0.9552   -1.0307 H   0  0  0  0  0  0  0  0  0  0  0  0
   -1.3394    1.5273    0.3830 C   0  0  1  0  0  0  0  0  0  0  0  0
   -1.5296    2.0929    1.3004 H   0  0  0  0  0  0  0  0  0  0  0  0
   -0.0826    0.6253    0.6053 C   0  0  0  0  0  0  0  0  0  0  0  0
    0.0860    0.0573   -0.3175 H   0  0  0  0  0  0  0  0  0  0  0  0
    0.7802    1.2881    0.7422 H   0  0  0  0  0  0  0  0  0  0  0  0
   -0.0697   -0.3759    1.7699 C   0  0  0  0  0  0  0  0  0  0  0  0
   -0.8557   -1.1212    1.6614 H   0  0  0  0  0  0  0  0  0  0  0  0
   -0.2062    0.1502    2.7206 H   0  0  0  0  0  0  0  0  0  0  0  0
    1.2721   -1.1081    1.7408 C   0  0  0  0  0  0  0  0  0  0  0  0
    1.3835   -1.5988    0.7672 H   0  0  0  0  0  0  0  0  0  0  0  0
    2.0793   -0.3750    1.8512 H   0  0  0  0  0  0  0  0  0  0  0  0
    1.3538   -2.1097    2.8198 N   0  3  0  0  0  0  0  0  0  0  0  0
    0.5611   -2.1804    3.4558 H   0  0  0  0  0  0  0  0  0  0  0  0
    2.3721   -2.9066    2.9764 C   0  0  0  0  0  0  0  0  0  0  0  0
    3.4589   -2.8678    2.1324 N   0  0  0  0  0  0  0  0  0  0  0  0
    3.3810   -2.3139    1.2815 H   0  0  0  0  0  0  0  0  0  0  0  0
    4.1055   -3.6542    2.1323 H   0  0  0  0  0  0  0  0  0  0  0  0
    2.3739   -3.8158    4.0070 N   0  0  0  0  0  0  0  0  0  0  0  0
    1.6718   -3.7305    4.7393 H   0  0  0  0  0  0  0  0  0  0  0  0
    3.2466   -4.2888    4.2349 H   0  0  0  0  0  0  0  0  0  0  0  0
   -0.9735    2.5321   -0.7440 C   0  0  0  0  0  0  0  0  0  0  0  0
   -0.0622    2.3237   -1.5348 O   0  0  0  0  0  0  0  0  0  0  0  0
   -1.7016    3.7018   -0.8615 N   0  0  0  0  0  0  0  0  0  0  0  0
   -2.5075    3.8180   -0.2526 H   0  0  0  0  0  0  0  0  0  0  0  0
   -1.4738    4.6859   -1.9156 C   0  0  0  0  0  0  0  0  0  0  0  0
   -1.7120    4.2605   -2.8963 H   0  0  0  0  0  0  0  0  0  0  0  0
   -2.1055    5.5656   -1.7563 H   0  0  0  0  0  0  0  0  0  0  0  0
   -0.4280    5.0117   -1.9191 H   0  0  0  0  0  0  0  0  0  0  0  0
  1  2  1  0  0  0  0
  2  3  1  0  0  0  0
  2  4  1  0  0  0  0
  2  5  1  0  0  0  0
  5  6  2  0  0  0  0
  5  7  1  0  0  0  0
  7  8  1  0  0  0  0
  7  9  1  0  0  0  0
  9 10  1  0  0  0  0
  9 11  1  0  0  0  0
  9 29  1  0  0  0  0
 11 12  1  0  0  0  0
 11 13  1  0  0  0  0
 11 14  1  0  0  0  0
 14 15  1  0  0  0  0
 14 16  1  0  0  0  0
 14 17  1  0  0  0  0
 17 18  1  0  0  0  0
 17 19  1  0  0  0  0
 17 20  1  0  0  0  0
 20 21  1  0  0  0  0
 20 22  2  0  0  0  0
 22 23  1  0  0  0  0
 22 26  1  0  0  0  0
 23 24  1  0  0  0  0
 23 25  1  0  0  0  0
 26 27  1  0  0  0  0
 26 28  1  0  0  0  0
 29 30  2  0  0  0  0
 29 31  1  0  0  0  0
 31 32  1  0  0  0  0
 31 33  1  0  0  0  0
 33 34  1  0  0  0  0
 33 35  1  0  0  0  0
 33 36  1  0  0  0  0
M  CHG  1  20   1
M  END
$$$$

  -OEChem-02172215453D

 36 35  0     1  0  0  0  0  0999 V2000
   -4.5050   -0.5537    1.7744 H   0  0  0  0  0  0  0  0  0  0  0  0
   -3.4283   -0.7345    1.7148 C   0  0  0  0  0  0  0  0  0  0  0  0
   -2.9280   -0.0926    2.4428 H   0  0  0  0  0  0  0  0  0  0  0  0
   -3.2320   -1.7812    1.9597 H   0  0  0  0  0  0  0  0  0  0  0  0
   -2.9443   -0.4271    0.3075 C   0  0  0  0  0  0  0  0  0  0  0  0
   -3.2072   -1.1893   -0.6005 O   0  0  0  0  0  0  0  0  0  0  0  0
   -2.5750    0.8446   -0.0464 N   0  0  0  0  0  0  0  0  0  0  0  0
   -2.7389    0.9463   -1.0499 H   0  0  0  0  0  0  0  0  0  0  0  0
   -1.3368    1.5311    0.3784 C   0  0  1  0  0  0  0  0  0  0  0  0
   -1.5341    2.0985    1.2930 H   0  0  0  0  0  0  0  0  0  0  0  0
   -0.0769    0.6344    0.6039 C   0  0  0  0  0  0  0  0  0  0  0  0
    0.0985    0.0656   -0.3174 H   0  0  0  0  0  0  0  0  0  0  0  0
    0.7823    1.3013    0.7421 H   0  0  0  0  0  0  0  0  0  0  0  0
   -0.0679   -0.3714    1.7652 C   0  0  0  0  0  0  0  0  0  0  0  0
   -0.8506   -1.1193    1.6465 H   0  0  0  0  0  0  0  0  0  0  0  0
   -0.2155    0.1506    2.7167 H   0  0  0  0  0  0  0  0  0  0  0  0
    1.2764   -1.1002    1.7452 C   0  0  0  0  0  0  0  0  0  0  0  0
    1.3960   -1.5887    0.7715 H   0  0  0  0  0  0  0  0  0  0  0  0
    2.0812   -0.3655    1.8636 H   0  0  0  0  0  0  0  0  0  0  0  0
    1.3527   -2.1052    2.8216 N   0  3  0  0  0  0  0  0  0  0  0  0
    0.5522   -2.1854    3.4467 H   0  0  0  0  0  0  0  0  0  0  0  0
    2.3725   -2.8992    2.9833 C   0  0  0  0  0  0  0  0  0  0  0  0
    3.4662   -2.8538    2.1480 N   0  0  0  0  0  0  0  0  0  0  0  0
    3.3920   -2.3016    1.2955 H   0  0  0  0  0  0  0  0  0  0  0  0
    4.1214   -3.6329    2.1569 H   0  0  0  0  0  0  0  0  0  0  0  0
    2.3677   -3.8135    4.0096 N   0  0  0  0  0  0  0  0  0  0  0  0
    1.6536   -3.7409    4.7315 H   0  0  0  0  0  0  0  0  0  0  0  0
    3.2386   -4.2870    4.2439 H   0  0  0  0  0  0  0  0  0  0  0  0
   -0.9513    2.5219   -0.7514 C   0  0  0  0  0  0  0  0  0  0  0  0
   -0.2460    2.1789   -1.6909 O   0  0  0  0  0  0  0  0  0  0  0  0
   -1.4392    3.8152   -0.7195 N   0  0  0  0  0  0  0  0  0  0  0  0
   -2.1135    4.0471    0.0047 H   0  0  0  0  0  0  0  0  0  0  0  0
   -1.2007    4.7852   -1.7845 C   0  0  0  0  0  0  0  0  0  0  0  0
   -1.6507    4.4434   -2.7227 H   0  0  0  0  0  0  0  0  0  0  0  0
   -1.6399    5.7528   -1.5222 H   0  0  0  0  0  0  0  0  0  0  0  0
   -0.1263    4.9281   -1.9421 H   0  0  0  0  0  0  0  0  0  0  0  0
  1  2  1  0  0  0  0
  2  3  1  0  0  0  0
  2  4  1  0  0  0  0
  2  5  1  0  0  0  0
  5  6  2  0  0  0  0
  5  7  1  0  0  0  0
  7  8  1  0  0  0  0
  7  9  1  0  0  0  0
  9 10  1  0  0  0  0
  9 11  1  0  0  0  0
  9 29  1  0  0  0  0
 11 12  1  0  0  0  0
 11 13  1  0  0  0  0
 11 14  1  0  0  0  0
 14 15  1  0  0  0  0
 14 16  1  0  0  0  0
 14 17  1  0  0  0  0
 17 18  1  0  0  0  0
 17 19  1  0  0  0  0
 17 20  1  0  0  0  0
 20 21  1  0  0  0  0
 20 22  2  0  0  0  0
 22 23  1  0  0  0  0
 22 26  1  0  0  0  0
 23 24  1  0  0  0  0
 23 25  1  0  0  0  0
 26 27  1  0  0  0  0
 26 28  1  0  0  0  0
 29 30  2  0  0  0  0
 29 31  1  0  0  0  0
 31 32  1  0  0  0  0
 31 33  1  0  0  0  0
 33 34  1  0  0  0  0
 33 35  1  0  0  0  0
 33 36  1  0  0  0  0
M  CHG  1  20   1
M  END
$$$$

  -OEChem-02172215453D

 36 35  0     1  0  0  0  0  0999 V2000
   -4.5016   -0.5426    1.7641 H   0  0  0  0  0  0  0  0  0  0  0  0
   -3.4240   -0.7188    1.7095 C   0  0  0  0  0  0  0  0  0  0  0  0
   -2.9285   -0.0685    2.4329 H   0  0  0  0  0  0  0  0  0  0  0  0
   -3.2238   -1.7622    1.9646 H   0  0  0  0  0  0  0  0  0  0  0  0
   -2.9379   -0.4223    0.3006 C   0  0  0  0  0  0  0  0  0  0  0  0
   -3.1848   -1.2012   -0.5980 O   0  0  0  0  0  0  0  0  0  0  0  0
   -2.5633    0.8456   -0.0627 N   0  0  0  0  0  0  0  0  0  0  0  0
   -2.7057    0.9353   -1.0713 H   0  0  0  0  0  0  0  0  0  0  0  0
   -1.3310    1.5353    0.3718 C   0  0  1  0  0  0  0  0  0  0  0  0
   -1.5368    2.1044    1.2835 H   0  0  0  0  0  0  0  0  0  0  0  0
   -0.0678    0.6459    0.5961 C   0  0  0  0  0  0  0  0  0  0  0  0
    0.1155    0.0837   -0.3278 H   0  0  0  0  0  0  0  0  0  0  0  0
    0.7875    1.3161    0.7428 H   0  0  0  0  0  0  0  0  0  0  0  0
   -0.0631   -0.3662    1.7516 C   0  0  0  0  0  0  0  0  0  0  0  0
   -0.8421   -1.1160    1.6215 H   0  0  0  0  0  0  0  0  0  0  0  0
   -0.2212    0.1496    2.7046 H   0  0  0  0  0  0  0  0  0  0  0  0
    1.2825   -1.0928    1.7412 C   0  0  0  0  0  0  0  0  0  0  0  0
    1.4120   -1.5777    0.7670 H   0  0  0  0  0  0  0  0  0  0  0  0
    2.0856   -0.3586    1.8710 H   0  0  0  0  0  0  0  0  0  0  0  0
    1.3467   -2.1013    2.8151 N   0  3  0  0  0  0  0  0  0  0  0  0
    0.5403   -2.1813    3.4327 H   0  0  0  0  0  0  0  0  0  0  0  0
    2.3637   -2.8969    2.9870 C   0  0  0  0  0  0  0  0  0  0  0  0
    3.4677   -2.8512    2.1657 N   0  0  0  0  0  0  0  0  0  0  0  0
    3.4030   -2.3017    1.3108 H   0  0  0  0  0  0  0  0  0  0  0  0
    4.1226   -3.6305    2.1835 H   0  0  0  0  0  0  0  0  0  0  0  0
    2.3458   -3.8138    4.0110 N   0  0  0  0  0  0  0  0  0  0  0  0
    1.6193   -3.7483    4.7212 H   0  0  0  0  0  0  0  0  0  0  0  0
    3.2119   -4.2919    4.2538 H   0  0  0  0  0  0  0  0  0  0  0  0
   -0.9278    2.5126   -0.7606 C   0  0  0  0  0  0  0  0  0  0  0  0
   -0.4656    2.0914   -1.8124 O   0  0  0  0  0  0  0  0  0  0  0  0
   -1.1383    3.8715   -0.6130 N   0  0  0  0  0  0  0  0  0  0  0  0
   -1.6386    4.1854    0.2139 H   0  0  0  0  0  0  0  0  0  0  0  0
   -0.8878    4.8348   -1.6812 C   0  0  0  0  0  0  0  0  0  0  0  0
   -1.5471    4.6420   -2.5344 H   0  0  0  0  0  0  0  0  0  0  0  0
   -1.0713    5.8531   -1.3249 H   0  0  0  0  0  0  0  0  0  0  0  0
    0.1519    4.7727   -2.0206 H   0  0  0  0  0  0  0  0  0  0  0  0
  1  2  1  0  0  0  0
  2  3  1  0  0  0  0
  2  4  1  0  0  0  0
  2  5  1  0  0  0  0
  5  6  2  0  0  0  0
  5  7  1  0  0  0  0
  7  8  1  0  0  0  0
  7  9  1  0  0  0  0
  9 10  1  0  0  0  0
  9 11  1  0  0  0  0
  9 29  1  0  0  0  0
 11 12  1  0  0  0  0
 11 13  1  0  0  0  0
 11 14  1  0  0  0  0
 14 15  1  0  0  0  0
 14 16  1  0  0  0  0
 14 17  1  0  0  0  0
 17 18  1  0  0  0  0
 17 19  1  0  0  0  0
 17 20  1  0  0  0  0
 20 21  1  0  0  0  0
 20 22  2  0  0  0  0
 22 23  1  0  0  0  0
 22 26  1  0  0  0  0
 23 24  1  0  0  0  0
 23 25  1  0  0  0  0
 26 27  1  0  0  0  0
 26 28  1  0  0  0  0
 29 30  2  0  0  0  0
 29 31  1  0  0  0  0
 31 32  1  0  0  0  0
 31 33  1  0  0  0  0
 33 34  1  0  0  0  0
 33 35  1  0  0  0  0
 33 36  1  0  0  0  0
M  CHG  1  20   1
M  END
$$$$

  -OEChem-02172215453D

 36 35  0     1  0  0  0  0  0999 V2000
   -4.5036   -0.5014    1.7749 H   0  0  0  0  0  0  0  0  0  0  0  0
   -3.4281   -0.6905    1.7230 C   0  0  0  0  0  0  0  0  0  0  0  0
   -2.9258   -0.0353    2.4375 H   0  0  0  0  0  0  0  0  0  0  0  0
   -3.2388   -1.7323    1.9930 H   0  0  0  0  0  0  0  0  0  0  0  0
   -2.9387   -0.4198    0.3099 C   0  0  0  0  0  0  0  0  0  0  0  0
   -3.1612   -1.2259   -0.5711 O   0  0  0  0  0  0  0  0  0  0  0  0
   -2.5605    0.8411   -0.0728 N   0  0  0  0  0  0  0  0  0  0  0  0
   -2.6836    0.9133   -1.0861 H   0  0  0  0  0  0  0  0  0  0  0  0
   -1.3323    1.5367    0.3630 C   0  0  1  0  0  0  0  0  0  0  0  0
   -1.5424    2.1148    1.2678 H   0  0  0  0  0  0  0  0  0  0  0  0
   -0.0673    0.6511    0.5845 C   0  0  0  0  0  0  0  0  0  0  0  0
    0.1193    0.0953   -0.3424 H   0  0  0  0  0  0  0  0  0  0  0  0
    0.7858    1.3229    0.7356 H   0  0  0  0  0  0  0  0  0  0  0  0
   -0.0624   -0.3638    1.7384 C   0  0  0  0  0  0  0  0  0  0  0  0
   -0.8404   -1.1149    1.6057 H   0  0  0  0  0  0  0  0  0  0  0  0
   -0.2235    0.1497    2.6923 H   0  0  0  0  0  0  0  0  0  0  0  0
    1.2836   -1.0893    1.7304 C   0  0  0  0  0  0  0  0  0  0  0  0
    1.4162   -1.5727    0.7558 H   0  0  0  0  0  0  0  0  0  0  0  0
    2.0861   -0.3549    1.8639 H   0  0  0  0  0  0  0  0  0  0  0  0
    1.3439   -2.0989    2.8036 N   0  3  0  0  0  0  0  0  0  0  0  0
    0.5316   -2.1852    3.4127 H   0  0  0  0  0  0  0  0  0  0  0  0
    2.3603   -2.8947    2.9784 C   0  0  0  0  0  0  0  0  0  0  0  0
    3.4672   -2.8484    2.1610 N   0  0  0  0  0  0  0  0  0  0  0  0
    3.4044   -2.2991    1.3059 H   0  0  0  0  0  0  0  0  0  0  0  0
    4.1202   -3.6294    2.1787 H   0  0  0  0  0  0  0  0  0  0  0  0
    2.3384   -3.8125    4.0016 N   0  0  0  0  0  0  0  0  0  0  0  0
    1.6150   -3.7402    4.7144 H   0  0  0  0  0  0  0  0  0  0  0  0
    3.2040   -4.2909    4.2454 H   0  0  0  0  0  0  0  0  0  0  0  0
   -0.9139    2.4937   -0.7793 C   0  0  0  0  0  0  0  0  0  0  0  0
   -0.6900    2.0508   -1.8976 O   0  0  0  0  0  0  0  0  0  0  0  0
   -0.8271    3.8564   -0.5586 N   0  0  0  0  0  0  0  0  0  0  0  0
   -1.1386    4.2117    0.3409 H   0  0  0  0  0  0  0  0  0  0  0  0
   -0.5423    4.8153   -1.6223 C   0  0  0  0  0  0  0  0  0  0  0  0
   -1.3459    4.8124   -2.3667 H   0  0  0  0  0  0  0  0  0  0  0  0
   -0.4557    5.8256   -1.2106 H   0  0  0  0  0  0  0  0  0  0  0  0
    0.4003    4.5675   -2.1222 H   0  0  0  0  0  0  0  0  0  0  0  0
  1  2  1  0  0  0  0
  2  3  1  0  0  0  0
  2  4  1  0  0  0  0
  2  5  1  0  0  0  0
  5  6  2  0  0  0  0
  5  7  1  0  0  0  0
  7  8  1  0  0  0  0
  7  9  1  0  0  0  0
  9 10  1  0  0  0  0
  9 11  1  0  0  0  0
  9 29  1  0  0  0  0
 11 12  1  0  0  0  0
 11 13  1  0  0  0  0
 11 14  1  0  0  0  0
 14 15  1  0  0  0  0
 14 16  1  0  0  0  0
 14 17  1  0  0  0  0
 17 18  1  0  0  0  0
 17 19  1  0  0  0  0
 17 20  1  0  0  0  0
 20 21  1  0  0  0  0
 20 22  2  0  0  0  0
 22 23  1  0  0  0  0
 22 26  1  0  0  0  0
 23 24  1  0  0  0  0
 23 25  1  0  0  0  0
 26 27  1  0  0  0  0
 26 28  1  0  0  0  0
 29 30  2  0  0  0  0
 29 31  1  0  0  0  0
 31 32  1  0  0  0  0
 31 33  1  0  0  0  0
 33 34  1  0  0  0  0
 33 35  1  0  0  0  0
 33 36  1  0  0  0  0
M  CHG  1  20   1
M  END
$$$$

  -OEChem-02172215453D

 36 35  0     1  0  0  0  0  0999 V2000
   -4.5010   -0.4641    1.7872 H   0  0  0  0  0  0  0  0  0  0  0  0
   -3.4288   -0.6714    1.7356 C   0  0  0  0  0  0  0  0  0  0  0  0
   -2.9139   -0.0165    2.4414 H   0  0  0  0  0  0  0  0  0  0  0  0
   -3.2564   -1.7130    2.0172 H   0  0  0  0  0  0  0  0  0  0  0  0
   -2.9378   -0.4241    0.3190 C   0  0  0  0  0  0  0  0  0  0  0  0
   -3.1291   -1.2575   -0.5438 O   0  0  0  0  0  0  0  0  0  0  0  0
   -2.5597    0.8303   -0.0839 N   0  0  0  0  0  0  0  0  0  0  0  0
   -2.6762    0.8902   -1.0998 H   0  0  0  0  0  0  0  0  0  0  0  0
   -1.3343    1.5357    0.3448 C   0  0  1  0  0  0  0  0  0  0  0  0
   -1.5456    2.1247    1.2425 H   0  0  0  0  0  0  0  0  0  0  0  0
   -0.0683    0.6528    0.5650 C   0  0  0  0  0  0  0  0  0  0  0  0
    0.1140    0.0963   -0.3626 H   0  0  0  0  0  0  0  0  0  0  0  0
    0.7861    1.3241    0.7117 H   0  0  0  0  0  0  0  0  0  0  0  0
   -0.0587   -0.3578    1.7229 C   0  0  0  0  0  0  0  0  0  0  0  0
   -0.8365   -1.1098    1.5959 H   0  0  0  0  0  0  0  0  0  0  0  0
   -0.2177    0.1597    2.6749 H   0  0  0  0  0  0  0  0  0  0  0  0
    1.2867   -1.0842    1.7156 C   0  0  0  0  0  0  0  0  0  0  0  0
    1.4171   -1.5734    0.7436 H   0  0  0  0  0  0  0  0  0  0  0  0
    2.0905   -0.3503    1.8441 H   0  0  0  0  0  0  0  0  0  0  0  0
    1.3443   -2.0877    2.7948 N   0  3  0  0  0  0  0  0  0  0  0  0
    0.5313   -2.1677    3.4036 H   0  0  0  0  0  0  0  0  0  0  0  0
    2.3572   -2.8863    2.9765 C   0  0  0  0  0  0  0  0  0  0  0  0
    3.4654   -2.8499    2.1605 N   0  0  0  0  0  0  0  0  0  0  0  0
    3.4037   -2.3102    1.2993 H   0  0  0  0  0  0  0  0  0  0  0  0
    4.1141   -3.6343    2.1850 H   0  0  0  0  0  0  0  0  0  0  0  0
    2.3297   -3.7971    4.0059 N   0  0  0  0  0  0  0  0  0  0  0  0
    1.6028   -3.7202    4.7147 H   0  0  0  0  0  0  0  0  0  0  0  0
    3.1919   -4.2792    4.2545 H   0  0  0  0  0  0  0  0  0  0  0  0
   -0.9086    2.4742   -0.8095 C   0  0  0  0  0  0  0  0  0  0  0  0
   -0.9077    2.0599   -1.9609 O   0  0  0  0  0  0  0  0  0  0  0  0
   -0.5248    3.7784   -0.5542 N   0  0  0  0  0  0  0  0  0  0  0  0
   -0.6440    4.1312    0.3909 H   0  0  0  0  0  0  0  0  0  0  0  0
   -0.2039    4.7287   -1.6149 C   0  0  0  0  0  0  0  0  0  0  0  0
   -1.0844    4.9190   -2.2380 H   0  0  0  0  0  0  0  0  0  0  0  0
    0.1294    5.6790   -1.1860 H   0  0  0  0  0  0  0  0  0  0  0  0
    0.5982    4.3400   -2.2515 H   0  0  0  0  0  0  0  0  0  0  0  0
  1  2  1  0  0  0  0
  2  3  1  0  0  0  0
  2  4  1  0  0  0  0
  2  5  1  0  0  0  0
  5  6  2  0  0  0  0
  5  7  1  0  0  0  0
  7  8  1  0  0  0  0
  7  9  1  0  0  0  0
  9 10  1  0  0  0  0
  9 11  1  0  0  0  0
  9 29  1  0  0  0  0
 11 12  1  0  0  0  0
 11 13  1  0  0  0  0
 11 14  1  0  0  0  0
 14 15  1  0  0  0  0
 14 16  1  0  0  0  0
 14 17  1  0  0  0  0
 17 18  1  0  0  0  0
 17 19  1  0  0  0  0
 17 20  1  0  0  0  0
 20 21  1  0  0  0  0
 20 22  2  0  0  0  0
 22 23  1  0  0  0  0
 22 26  1  0  0  0  0
 23 24  1  0  0  0  0
 23 25  1  0  0  0  0
 26 27  1  0  0  0  0
 26 28  1  0  0  0  0
 29 30  2  0  0  0  0
 29 31  1  0  0  0  0
 31 32  1  0  0  0  0
 31 33  1  0  0  0  0
 33 34  1  0  0  0  0
 33 35  1  0  0  0  0
 33 36  1  0  0  0  0
M  CHG  1  20   1
M  END
$$$$

  -OEChem-02172215453D

 36 35  0     1  0  0  0  0  0999 V2000
   -4.4979   -0.4505    1.8033 H   0  0  0  0  0  0  0  0  0  0  0  0
   -3.4267   -0.6619    1.7528 C   0  0  0  0  0  0  0  0  0  0  0  0
   -2.9090   -0.0023    2.4521 H   0  0  0  0  0  0  0  0  0  0  0  0
   -3.2572   -1.7013    2.0442 H   0  0  0  0  0  0  0  0  0  0  0  0
   -2.9355   -0.4298    0.3338 C   0  0  0  0  0  0  0  0  0  0  0  0
   -3.0958   -1.2854   -0.5137 O   0  0  0  0  0  0  0  0  0  0  0  0
   -2.5625    0.8210   -0.0844 N   0  0  0  0  0  0  0  0  0  0  0  0
   -2.6913    0.8803   -1.0994 H   0  0  0  0  0  0  0  0  0  0  0  0
   -1.3343    1.5348    0.3237 C   0  0  1  0  0  0  0  0  0  0  0  0
   -1.5374    2.1330    1.2170 H   0  0  0  0  0  0  0  0  0  0  0  0
   -0.0678    0.6501    0.5361 C   0  0  0  0  0  0  0  0  0  0  0  0
    0.1012    0.0871   -0.3902 H   0  0  0  0  0  0  0  0  0  0  0  0
    0.7917    1.3172    0.6692 H   0  0  0  0  0  0  0  0  0  0  0  0
   -0.0507   -0.3505    1.7037 C   0  0  0  0  0  0  0  0  0  0  0  0
   -0.8327   -1.1005    1.5919 H   0  0  0  0  0  0  0  0  0  0  0  0
   -0.1994    0.1773    2.6518 H   0  0  0  0  0  0  0  0  0  0  0  0
    1.2896   -1.0862    1.6956 C   0  0  0  0  0  0  0  0  0  0  0  0
    1.4103   -1.5877    0.7286 H   0  0  0  0  0  0  0  0  0  0  0  0
    2.0998   -0.3575    1.8113 H   0  0  0  0  0  0  0  0  0  0  0  0
    1.3445   -2.0776    2.7862 N   0  3  0  0  0  0  0  0  0  0  0  0
    0.5344   -2.1423    3.4008 H   0  0  0  0  0  0  0  0  0  0  0  0
    2.3512   -2.8826    2.9734 C   0  0  0  0  0  0  0  0  0  0  0  0
    3.4562   -2.8652    2.1523 N   0  0  0  0  0  0  0  0  0  0  0  0
    3.3956   -2.3357    1.2848 H   0  0  0  0  0  0  0  0  0  0  0  0
    4.1009   -3.6525    2.1860 H   0  0  0  0  0  0  0  0  0  0  0  0
    2.3198   -3.7803    4.0141 N   0  0  0  0  0  0  0  0  0  0  0  0
    1.5887   -3.6972    4.7177 H   0  0  0  0  0  0  0  0  0  0  0  0
    3.1804   -4.2607    4.2713 H   0  0  0  0  0  0  0  0  0  0  0  0
   -0.9169    2.4651   -0.8424 C   0  0  0  0  0  0  0  0  0  0  0  0
   -1.1466    2.1338   -1.9980 O   0  0  0  0  0  0  0  0  0  0  0  0
   -0.2475    3.6513   -0.5975 N   0  0  0  0  0  0  0  0  0  0  0  0
   -0.1572    3.9552    0.3673 H   0  0  0  0  0  0  0  0  0  0  0  0
    0.1107    4.5890   -1.6580 C   0  0  0  0  0  0  0  0  0  0  0  0
   -0.7901    4.9867   -2.1382 H   0  0  0  0  0  0  0  0  0  0  0  0
    0.6833    5.4269   -1.2483 H   0  0  0  0  0  0  0  0  0  0  0  0
    0.7241    4.0950   -2.4194 H   0  0  0  0  0  0  0  0  0  0  0  0
  1  2  1  0  0  0  0
  2  3  1  0  0  0  0
  2  4  1  0  0  0  0
  2  5  1  0  0  0  0
  5  6  2  0  0  0  0
  5  7  1  0  0  0  0
  7  8  1  0  0  0  0
  7  9  1  0  0  0  0
  9 10  1  0  0  0  0
  9 11  1  0  0  0  0
  9 29  1  0  0  0  0
 11 12  1  0  0  0  0
 11 13  1  0  0  0  0
 11 14  1  0  0  0  0
 14 15  1  0  0  0  0
 14 16  1  0  0  0  0
 14 17  1  0  0  0  0
 17 18  1  0  0  0  0
 17 19  1  0  0  0  0
 17 20  1  0  0  0  0
 20 21  1  0  0  0  0
 20 22  2  0  0  0  0
 22 23  1  0  0  0  0
 22 26  1  0  0  0  0
 23 24  1  0  0  0  0
 23 25  1  0  0  0  0
 26 27  1  0  0  0  0
 26 28  1  0  0  0  0
 29 30  2  0  0  0  0
 29 31  1  0  0  0  0
 31 32  1  0  0  0  0
 31 33  1  0  0  0  0
 33 34  1  0  0  0  0
 33 35  1  0  0  0  0
 33 36  1  0  0  0  0
M  CHG  1  20   1
M  END
$$$$

  -OEChem-02172215453D

 36 35  0     1  0  0  0  0  0999 V2000
   -4.4986   -0.4513    1.7914 H   0  0  0  0  0  0  0  0  0  0  0  0
   -3.4287   -0.6710    1.7509 C   0  0  0  0  0  0  0  0  0  0  0  0
   -2.9119   -0.0154    2.4547 H   0  0  0  0  0  0  0  0  0  0  0  0
   -3.2702   -1.7117    2.0439 H   0  0  0  0  0  0  0  0  0  0  0  0
   -2.9221   -0.4437    0.3363 C   0  0  0  0  0  0  0  0  0  0  0  0
   -3.0485   -1.3122   -0.5043 O   0  0  0  0  0  0  0  0  0  0  0  0
   -2.5558    0.8078   -0.0856 N   0  0  0  0  0  0  0  0  0  0  0  0
   -2.7068    0.8783   -1.0972 H   0  0  0  0  0  0  0  0  0  0  0  0
   -1.3267    1.5329    0.3027 C   0  0  1  0  0  0  0  0  0  0  0  0
   -1.5230    2.1357    1.1946 H   0  0  0  0  0  0  0  0  0  0  0  0
   -0.0621    0.6423    0.5127 C   0  0  0  0  0  0  0  0  0  0  0  0
    0.0943    0.0697   -0.4097 H   0  0  0  0  0  0  0  0  0  0  0  0
    0.8044    1.3018    0.6347 H   0  0  0  0  0  0  0  0  0  0  0  0
   -0.0411   -0.3450    1.6922 C   0  0  0  0  0  0  0  0  0  0  0  0
   -0.8296   -1.0903    1.5994 H   0  0  0  0  0  0  0  0  0  0  0  0
   -0.1769    0.1966    2.6344 H   0  0  0  0  0  0  0  0  0  0  0  0
    1.2933   -1.0918    1.6836 C   0  0  0  0  0  0  0  0  0  0  0  0
    1.4036   -1.6068    0.7226 H   0  0  0  0  0  0  0  0  0  0  0  0
    2.1103   -0.3685    1.7848 H   0  0  0  0  0  0  0  0  0  0  0  0
    1.3471   -2.0695    2.7868 N   0  3  0  0  0  0  0  0  0  0  0  0
    0.5411   -2.1181    3.4085 H   0  0  0  0  0  0  0  0  0  0  0  0
    2.3475   -2.8814    2.9783 C   0  0  0  0  0  0  0  0  0  0  0  0
    3.4476   -2.8863    2.1507 N   0  0  0  0  0  0  0  0  0  0  0  0
    3.3845   -2.3708    1.2750 H   0  0  0  0  0  0  0  0  0  0  0  0
    4.0809   -3.6826    2.1891 H   0  0  0  0  0  0  0  0  0  0  0  0
    2.3157   -3.7650    4.0308 N   0  0  0  0  0  0  0  0  0  0  0  0
    1.5931   -3.6629    4.7408 H   0  0  0  0  0  0  0  0  0  0  0  0
    3.1748   -4.2480    4.2879 H   0  0  0  0  0  0  0  0  0  0  0  0
   -0.9269    2.4656   -0.8719 C   0  0  0  0  0  0  0  0  0  0  0  0
   -1.3739    2.2646   -1.9937 O   0  0  0  0  0  0  0  0  0  0  0  0
   -0.0096    3.4872   -0.6909 N   0  0  0  0  0  0  0  0  0  0  0  0
    0.2795    3.7019    0.2586 H   0  0  0  0  0  0  0  0  0  0  0  0
    0.3588    4.4161   -1.7559 C   0  0  0  0  0  0  0  0  0  0  0  0
   -0.5141    4.9930   -2.0803 H   0  0  0  0  0  0  0  0  0  0  0  0
    1.1239    5.1144   -1.4032 H   0  0  0  0  0  0  0  0  0  0  0  0
    0.7610    3.8740   -2.6186 H   0  0  0  0  0  0  0  0  0  0  0  0
  1  2  1  0  0  0  0
  2  3  1  0  0  0  0
  2  4  1  0  0  0  0
  2  5  1  0  0  0  0
  5  6  2  0  0  0  0
  5  7  1  0  0  0  0
  7  8  1  0  0  0  0
  7  9  1  0  0  0  0
  9 10  1  0  0  0  0
  9 11  1  0  0  0  0
  9 29  1  0  0  0  0
 11 12  1  0  0  0  0
 11 13  1  0  0  0  0
 11 14  1  0  0  0  0
 14 15  1  0  0  0  0
 14 16  1  0  0  0  0
 14 17  1  0  0  0  0
 17 18  1  0  0  0  0
 17 19  1  0  0  0  0
 17 20  1  0  0  0  0
 20 21  1  0  0  0  0
 20 22  2  0  0  0  0
 22 23  1  0  0  0  0
 22 26  1  0  0  0  0
 23 24  1  0  0  0  0
 23 25  1  0  0  0  0
 26 27  1  0  0  0  0
 26 28  1  0  0  0  0
 29 30  2  0  0  0  0
 29 31  1  0  0  0  0
 31 32  1  0  0  0  0
 31 33  1  0  0  0  0
 33 34  1  0  0  0  0
 33 35  1  0  0  0  0
 33 36  1  0  0  0  0
M  CHG  1  20   1
M  END
$$$$

  -OEChem-02172215453D

 36 35  0     1  0  0  0  0  0999 V2000
   -4.5643   -1.6724    1.0644 H   0  0  0  0  0  0  0  0  0  0  0  0
   -4.2715   -0.7709    0.5187 C   0  0  0  0  0  0  0  0  0  0  0  0
   -4.1786   -1.0159   -0.5421 H   0  0  0  0  0  0  0  0  0  0  0  0
   -5.0528   -0.0166    0.6428 H   0  0  0  0  0  0  0  0  0  0  0  0
   -2.9524   -0.2401    1.0474 C   0  0  0  0  0  0  0  0  0  0  0  0
   -2.4508   -0.7649    2.0281 O   0  0  0  0  0  0  0  0  0  0  0  0
   -2.4507    0.9369    0.5318 N   0  0  0  0  0  0  0  0  0  0  0  0
   -3.0543    1.3773   -0.1675 H   0  0  0  0  0  0  0  0  0  0  0  0
   -1.1054    1.5548    0.6016 C   0  0  1  0  0  0  0  0  0  0  0  0
   -0.9652    2.0077    1.5882 H   0  0  0  0  0  0  0  0  0  0  0  0
    0.1187    0.6357    0.2628 C   0  0  0  0  0  0  0  0  0  0  0  0
   -0.0407    0.2208   -0.7389 H   0  0  0  0  0  0  0  0  0  0  0  0
    1.0213    1.2526    0.2248 H   0  0  0  0  0  0  0  0  0  0  0  0
    0.4456   -0.5208    1.2163 C   0  0  0  0  0  0  0  0  0  0  0  0
   -0.3655   -1.2428    1.2170 H   0  0  0  0  0  0  0  0  0  0  0  0
    0.5887   -0.1410    2.2338 H   0  0  0  0  0  0  0  0  0  0  0  0
    1.6658   -1.3001    0.7340 C   0  0  0  0  0  0  0  0  0  0  0  0
    1.4753   -1.6886   -0.2727 H   0  0  0  0  0  0  0  0  0  0  0  0
    2.5337   -0.6328    0.6948 H   0  0  0  0  0  0  0  0  0  0  0  0
    1.9108   -2.4074    1.6761 N   0  3  0  0  0  0  0  0  0  0  0  0
    1.2945   -2.4620    2.4876 H   0  0  0  0  0  0  0  0  0  0  0  0
    2.8450   -3.3006    1.5272 C   0  0  0  0  0  0  0  0  0  0  0  0
    3.7026   -3.2832    0.4510 N   0  0  0  0  0  0  0  0  0  0  0  0
    3.6996   -2.4611   -0.1487 H   0  0  0  0  0  0  0  0  0  0  0  0
    4.5487   -3.8481    0.4894 H   0  0  0  0  0  0  0  0  0  0  0  0
    2.9803   -4.2969    2.4641 N   0  0  0  0  0  0  0  0  0  0  0  0
    2.2426   -4.4197    3.1558 H   0  0  0  0  0  0  0  0  0  0  0  0
    3.5589   -5.1033    2.2361 H   0  0  0  0  0  0  0  0  0  0  0  0
   -1.0901    2.6766   -0.4860 C   0  0  0  0  0  0  0  0  0  0  0  0
   -2.1368    2.9941   -1.0418 O   0  0  0  0  0  0  0  0  0  0  0  0
    0.0766    3.2792   -0.9321 N   0  0  0  0  0  0  0  0  0  0  0  0
    0.9294    3.0912   -0.4152 H   0  0  0  0  0  0  0  0  0  0  0  0
    0.0925    4.3470   -1.9287 C   0  0  0  0  0  0  0  0  0  0  0  0
   -0.4665    5.2173   -1.5681 H   0  0  0  0  0  0  0  0  0  0  0  0
    1.1209    4.6590   -2.1359 H   0  0  0  0  0  0  0  0  0  0  0  0
   -0.3577    4.0045   -2.8666 H   0  0  0  0  0  0  0  0  0  0  0  0
  1  2  1  0  0  0  0
  2  3  1  0  0  0  0
  2  4  1  0  0  0  0
  2  5  1  0  0  0  0
  5  6  2  0  0  0  0
  5  7  1  0  0  0  0
  7  8  1  0  0  0  0
  7  9  1  0  0  0  0
  9 10  1  0  0  0  0
  9 11  1  0  0  0  0
  9 29  1  0  0  0  0
 11 12  1  0  0  0  0
 11 13  1  0  0  0  0
 11 14  1  0  0  0  0
 14 15  1  0  0  0  0
 14 16  1  0  0  0  0
 14 17  1  0  0  0  0
 17 18  1  0  0  0  0
 17 19  1  0  0  0  0
 17 20  1  0  0  0  0
 20 21  1  0  0  0  0
 20 22  2  0  0  0  0
 22 23  1  0  0  0  0
 22 26  1  0  0  0  0
 23 24  1  0  0  0  0
 23 25  1  0  0  0  0
 26 27  1  0  0  0  0
 26 28  1  0  0  0  0
 29 30  2  0  0  0  0
 29 31  1  0  0  0  0
 31 32  1  0  0  0  0
 31 33  1  0  0  0  0
 33 34  1  0  0  0  0
 33 35  1  0  0  0  0
 33 36  1  0  0  0  0
M  CHG  1  20   1
M  END
$$$$

  -OEChem-02172215453D

 36 35  0     1  0  0  0  0  0999 V2000
   -4.7551   -1.5127    0.9453 H   0  0  0  0  0  0  0  0  0  0  0  0
   -4.4192   -0.5872    0.4688 C   0  0  0  0  0  0  0  0  0  0  0  0
   -4.4520   -0.7177   -0.6156 H   0  0  0  0  0  0  0  0  0  0  0  0
   -5.0998    0.2195    0.7523 H   0  0  0  0  0  0  0  0  0  0  0  0
   -3.0067   -0.2512    0.9084 C   0  0  0  0  0  0  0  0  0  0  0  0
   -2.4741   -0.9498    1.7519 O   0  0  0  0  0  0  0  0  0  0  0  0
   -2.4399    0.9242    0.4576 N   0  0  0  0  0  0  0  0  0  0  0  0
   -3.0897    1.5178   -0.0612 H   0  0  0  0  0  0  0  0  0  0  0  0
   -1.0671    1.4791    0.5281 C   0  0  1  0  0  0  0  0  0  0  0  0
   -0.9275    1.9091    1.5256 H   0  0  0  0  0  0  0  0  0  0  0  0
    0.1723    0.5729    0.2217 C   0  0  0  0  0  0  0  0  0  0  0  0
    0.0339    0.1343   -0.7726 H   0  0  0  0  0  0  0  0  0  0  0  0
    1.0595    1.2151    0.1875 H   0  0  0  0  0  0  0  0  0  0  0  0
    0.4940   -0.5715    1.1919 C   0  0  0  0  0  0  0  0  0  0  0  0
   -0.3054   -1.3038    1.1910 H   0  0  0  0  0  0  0  0  0  0  0  0
    0.6157   -0.1778    2.2069 H   0  0  0  0  0  0  0  0  0  0  0  0
    1.7322   -1.3416    0.7424 C   0  0  0  0  0  0  0  0  0  0  0  0
    1.5665   -1.7424   -0.2639 H   0  0  0  0  0  0  0  0  0  0  0  0
    2.5927   -0.6639    0.7155 H   0  0  0  0  0  0  0  0  0  0  0  0
    1.9692   -2.4368    1.7009 N   0  3  0  0  0  0  0  0  0  0  0  0
    1.3340   -2.4918    2.4976 H   0  0  0  0  0  0  0  0  0  0  0  0
    2.9153   -3.3220    1.5819 C   0  0  0  0  0  0  0  0  0  0  0  0
    3.7956   -3.3069    0.5242 N   0  0  0  0  0  0  0  0  0  0  0  0
    3.8042   -2.4850   -0.0757 H   0  0  0  0  0  0  0  0  0  0  0  0
    4.6458   -3.8632    0.5886 H   0  0  0  0  0  0  0  0  0  0  0  0
    3.0409   -4.3074    2.5318 N   0  0  0  0  0  0  0  0  0  0  0  0
    2.2922   -4.4285    3.2118 H   0  0  0  0  0  0  0  0  0  0  0  0
    3.6302   -5.1113    2.3235 H   0  0  0  0  0  0  0  0  0  0  0  0
   -1.0588    2.6468   -0.4992 C   0  0  0  0  0  0  0  0  0  0  0  0
   -1.9385    3.4925   -0.4113 O   0  0  0  0  0  0  0  0  0  0  0  0
   -0.2130    2.7091   -1.5966 N   0  0  0  0  0  0  0  0  0  0  0  0
    0.4634    1.9632   -1.7184 H   0  0  0  0  0  0  0  0  0  0  0  0
   -0.2936    3.7551   -2.6129 C   0  0  0  0  0  0  0  0  0  0  0  0
   -0.1564    4.7427   -2.1596 H   0  0  0  0  0  0  0  0  0  0  0  0
    0.4848    3.6126   -3.3690 H   0  0  0  0  0  0  0  0  0  0  0  0
   -1.2685    3.7318   -3.1119 H   0  0  0  0  0  0  0  0  0  0  0  0
  1  2  1  0  0  0  0
  2  3  1  0  0  0  0
  2  4  1  0  0  0  0
  2  5  1  0  0  0  0
  5  6  2  0  0  0  0
  5  7  1  0  0  0  0
  7  8  1  0  0  0  0
  7  9  1  0  0  0  0
  9 10  1  0  0  0  0
  9 11  1  0  0  0  0
  9 29  1  0  0  0  0
 11 12  1  0  0  0  0
 11 13  1  0  0  0  0
 11 14  1  0  0  0  0
 14 15  1  0  0  0  0
 14 16  1  0  0  0  0
 14 17  1  0  0  0  0
 17 18  1  0  0  0  0
 17 19  1  0  0  0  0
 17 20  1  0  0  0  0
 20 21  1  0  0  0  0
 20 22  2  0  0  0  0
 22 23  1  0  0  0  0
 22 26  1  0  0  0  0
 23 24  1  0  0  0  0
 23 25  1  0  0  0  0
 26 27  1  0  0  0  0
 26 28  1  0  0  0  0
 29 30  2  0  0  0  0
 29 31  1  0  0  0  0
 31 32  1  0  0  0  0
 31 33  1  0  0  0  0
 33 34  1  0  0  0  0
 33 35  1  0  0  0  0
 33 36  1  0  0  0  0
M  CHG  1  20   1
M  END
$$$$

  -OEChem-02172215453D

 36 35  0     1  0  0  0  0  0999 V2000
   -4.7980   -1.4570    0.9602 H   0  0  0  0  0  0  0  0  0  0  0  0
   -4.4634   -0.5235    0.4990 C   0  0  0  0  0  0  0  0  0  0  0  0
   -4.5391   -0.6215   -0.5867 H   0  0  0  0  0  0  0  0  0  0  0  0
   -5.1193    0.2854    0.8308 H   0  0  0  0  0  0  0  0  0  0  0  0
   -3.0296   -0.2248    0.8965 C   0  0  0  0  0  0  0  0  0  0  0  0
   -2.4887   -0.9460    1.7143 O   0  0  0  0  0  0  0  0  0  0  0  0
   -2.4471    0.9384    0.4323 N   0  0  0  0  0  0  0  0  0  0  0  0
   -3.0984    1.5458   -0.0657 H   0  0  0  0  0  0  0  0  0  0  0  0
   -1.0637    1.4683    0.4883 C   0  0  1  0  0  0  0  0  0  0  0  0
   -0.9173    1.9037    1.4828 H   0  0  0  0  0  0  0  0  0  0  0  0
    0.1710    0.5526    0.1958 C   0  0  0  0  0  0  0  0  0  0  0  0
    0.0268    0.0930   -0.7877 H   0  0  0  0  0  0  0  0  0  0  0  0
    1.0586    1.1931    0.1401 H   0  0  0  0  0  0  0  0  0  0  0  0
    0.4904   -0.5775    1.1837 C   0  0  0  0  0  0  0  0  0  0  0  0
   -0.3118   -1.3062    1.1993 H   0  0  0  0  0  0  0  0  0  0  0  0
    0.6185   -0.1667    2.1911 H   0  0  0  0  0  0  0  0  0  0  0  0
    1.7256   -1.3574    0.7420 C   0  0  0  0  0  0  0  0  0  0  0  0
    1.5560   -1.7727   -0.2576 H   0  0  0  0  0  0  0  0  0  0  0  0
    2.5873   -0.6822    0.7015 H   0  0  0  0  0  0  0  0  0  0  0  0
    1.9646   -2.4395    1.7146 N   0  3  0  0  0  0  0  0  0  0  0  0
    1.3360   -2.4797    2.5172 H   0  0  0  0  0  0  0  0  0  0  0  0
    2.9093   -3.3272    1.6034 C   0  0  0  0  0  0  0  0  0  0  0  0
    3.7846   -3.3262    0.5416 N   0  0  0  0  0  0  0  0  0  0  0  0
    3.7920   -2.5096   -0.0654 H   0  0  0  0  0  0  0  0  0  0  0  0
    4.6370   -3.8784    0.6126 H   0  0  0  0  0  0  0  0  0  0  0  0
    3.0384   -4.3012    2.5647 N   0  0  0  0  0  0  0  0  0  0  0  0
    2.2914   -4.4146    3.2478 H   0  0  0  0  0  0  0  0  0  0  0  0
    3.6271   -5.1076    2.3643 H   0  0  0  0  0  0  0  0  0  0  0  0
   -1.0278    2.6280   -0.5409 C   0  0  0  0  0  0  0  0  0  0  0  0
   -1.6895    3.6269   -0.3015 O   0  0  0  0  0  0  0  0  0  0  0  0
   -0.4146    2.5312   -1.7803 N   0  0  0  0  0  0  0  0  0  0  0  0
    0.0310    1.6520   -2.0204 H   0  0  0  0  0  0  0  0  0  0  0  0
   -0.4909    3.5796   -2.7942 C   0  0  0  0  0  0  0  0  0  0  0  0
   -0.1012    4.5243   -2.3996 H   0  0  0  0  0  0  0  0  0  0  0  0
    0.1013    3.3042   -3.6723 H   0  0  0  0  0  0  0  0  0  0  0  0
   -1.5283    3.7334   -3.1107 H   0  0  0  0  0  0  0  0  0  0  0  0
  1  2  1  0  0  0  0
  2  3  1  0  0  0  0
  2  4  1  0  0  0  0
  2  5  1  0  0  0  0
  5  6  2  0  0  0  0
  5  7  1  0  0  0  0
  7  8  1  0  0  0  0
  7  9  1  0  0  0  0
  9 10  1  0  0  0  0
  9 11  1  0  0  0  0
  9 29  1  0  0  0  0
 11 12  1  0  0  0  0
 11 13  1  0  0  0  0
 11 14  1  0  0  0  0
 14 15  1  0  0  0  0
 14 16  1  0  0  0  0
 14 17  1  0  0  0  0
 17 18  1  0  0  0  0
 17 19  1  0  0  0  0
 17 20  1  0  0  0  0
 20 21  1  0  0  0  0
 20 22  2  0  0  0  0
 22 23  1  0  0  0  0
 22 26  1  0  0  0  0
 23 24  1  0  0  0  0
 23 25  1  0  0  0  0
 26 27  1  0  0  0  0
 26 28  1  0  0  0  0
 29 30  2  0  0  0  0
 29 31  1  0  0  0  0
 31 32  1  0  0  0  0
 31 33  1  0  0  0  0
 33 34  1  0  0  0  0
 33 35  1  0  0  0  0
 33 36  1  0  0  0  0
M  CHG  1  20   1
M  END
$$$$

  -OEChem-02172215453D

 36 35  0     1  0  0  0  0  0999 V2000
   -4.8074   -1.4747    1.0540 H   0  0  0  0  0  0  0  0  0  0  0  0
   -4.4782   -0.5626    0.5480 C   0  0  0  0  0  0  0  0  0  0  0  0
   -4.5567   -0.7123   -0.5312 H   0  0  0  0  0  0  0  0  0  0  0  0
   -5.1365    0.2585    0.8437 H   0  0  0  0  0  0  0  0  0  0  0  0
   -3.0447   -0.2405    0.9264 C   0  0  0  0  0  0  0  0  0  0  0  0
   -2.4854   -0.9435    1.7474 O   0  0  0  0  0  0  0  0  0  0  0  0
   -2.4796    0.9223    0.4400 N   0  0  0  0  0  0  0  0  0  0  0  0
   -3.1395    1.5107   -0.0678 H   0  0  0  0  0  0  0  0  0  0  0  0
   -1.0978    1.4576    0.4874 C   0  0  1  0  0  0  0  0  0  0  0  0
   -0.9511    1.8991    1.4793 H   0  0  0  0  0  0  0  0  0  0  0  0
    0.1443    0.5540    0.1920 C   0  0  0  0  0  0  0  0  0  0  0  0
    0.0038    0.0904   -0.7897 H   0  0  0  0  0  0  0  0  0  0  0  0
    1.0235    1.2059    0.1292 H   0  0  0  0  0  0  0  0  0  0  0  0
    0.4813   -0.5721    1.1785 C   0  0  0  0  0  0  0  0  0  0  0  0
   -0.3125   -1.3107    1.1993 H   0  0  0  0  0  0  0  0  0  0  0  0
    0.6112   -0.1602    2.1853 H   0  0  0  0  0  0  0  0  0  0  0  0
    1.7235   -1.3350    0.7265 C   0  0  0  0  0  0  0  0  0  0  0  0
    1.5527   -1.7498   -0.2731 H   0  0  0  0  0  0  0  0  0  0  0  0
    2.5747   -0.6466    0.6818 H   0  0  0  0  0  0  0  0  0  0  0  0
    1.9863   -2.4168    1.6934 N   0  3  0  0  0  0  0  0  0  0  0  0
    1.3634   -2.4703    2.4998 H   0  0  0  0  0  0  0  0  0  0  0  0
    2.9429   -3.2902    1.5707 C   0  0  0  0  0  0  0  0  0  0  0  0
    3.8094   -3.2730    0.5016 N   0  0  0  0  0  0  0  0  0  0  0  0
    3.8035   -2.4518   -0.0993 H   0  0  0  0  0  0  0  0  0  0  0  0
    4.6696   -3.8139    0.5637 H   0  0  0  0  0  0  0  0  0  0  0  0
    3.0898   -4.2690    2.5243 N   0  0  0  0  0  0  0  0  0  0  0  0
    2.3484   -4.3954    3.2111 H   0  0  0  0  0  0  0  0  0  0  0  0
    3.6824   -5.0691    2.3111 H   0  0  0  0  0  0  0  0  0  0  0  0
   -1.0525    2.6036   -0.5527 C   0  0  0  0  0  0  0  0  0  0  0  0
   -1.4375    3.7120   -0.2156 O   0  0  0  0  0  0  0  0  0  0  0  0
   -0.7085    2.3960   -1.8789 N   0  0  0  0  0  0  0  0  0  0  0  0
   -0.5103    1.4443   -2.1708 H   0  0  0  0  0  0  0  0  0  0  0  0
   -0.7779    3.4424   -2.8951 C   0  0  0  0  0  0  0  0  0  0  0  0
   -0.1505    4.2948   -2.6128 H   0  0  0  0  0  0  0  0  0  0  0  0
   -0.4251    3.0614   -3.8585 H   0  0  0  0  0  0  0  0  0  0  0  0
   -1.8089    3.7916   -3.0171 H   0  0  0  0  0  0  0  0  0  0  0  0
  1  2  1  0  0  0  0
  2  3  1  0  0  0  0
  2  4  1  0  0  0  0
  2  5  1  0  0  0  0
  5  6  2  0  0  0  0
  5  7  1  0  0  0  0
  7  8  1  0  0  0  0
  7  9  1  0  0  0  0
  9 10  1  0  0  0  0
  9 11  1  0  0  0  0
  9 29  1  0  0  0  0
 11 12  1  0  0  0  0
 11 13  1  0  0  0  0
 11 14  1  0  0  0  0
 14 15  1  0  0  0  0
 14 16  1  0  0  0  0
 14 17  1  0  0  0  0
 17 18  1  0  0  0  0
 17 19  1  0  0  0  0
 17 20  1  0  0  0  0
 20 21  1  0  0  0  0
 20 22  2  0  0  0  0
 22 23  1  0  0  0  0
 22 26  1  0  0  0  0
 23 24  1  0  0  0  0
 23 25  1  0  0  0  0
 26 27  1  0  0  0  0
 26 28  1  0  0  0  0
 29 30  2  0  0  0  0
 29 31  1  0  0  0  0
 31 32  1  0  0  0  0
 31 33  1  0  0  0  0
 33 34  1  0  0  0  0
 33 35  1  0  0  0  0
 33 36  1  0  0  0  0
M  CHG  1  20   1
M  END
$$$$

  -OEChem-02172215453D

 36 35  0     1  0  0  0  0  0999 V2000
   -4.8102   -1.6241    0.8572 H   0  0  0  0  0  0  0  0  0  0  0  0
   -4.4890   -0.6992    0.3694 C   0  0  0  0  0  0  0  0  0  0  0  0
   -4.5043   -0.8494   -0.7127 H   0  0  0  0  0  0  0  0  0  0  0  0
   -5.1926    0.0953    0.6301 H   0  0  0  0  0  0  0  0  0  0  0  0
   -3.0906   -0.3247    0.8234 C   0  0  0  0  0  0  0  0  0  0  0  0
   -2.5484   -1.0081    1.6720 O   0  0  0  0  0  0  0  0  0  0  0  0
   -2.5437    0.8601    0.3690 N   0  0  0  0  0  0  0  0  0  0  0  0
   -3.1932    1.4207   -0.1804 H   0  0  0  0  0  0  0  0  0  0  0  0
   -1.1787    1.4297    0.4841 C   0  0  1  0  0  0  0  0  0  0  0  0
   -1.0839    1.8538    1.4901 H   0  0  0  0  0  0  0  0  0  0  0  0
    0.0963    0.5665    0.2163 C   0  0  0  0  0  0  0  0  0  0  0  0
    0.0093    0.1285   -0.7835 H   0  0  0  0  0  0  0  0  0  0  0  0
    0.9596    1.2423    0.2065 H   0  0  0  0  0  0  0  0  0  0  0  0
    0.4217   -0.5737    1.1890 C   0  0  0  0  0  0  0  0  0  0  0  0
    0.5020   -0.1824    2.2091 H   0  0  0  0  0  0  0  0  0  0  0  0
   -0.3549   -1.3304    1.1610 H   0  0  0  0  0  0  0  0  0  0  0  0
    1.6995   -1.2938    0.7693 C   0  0  0  0  0  0  0  0  0  0  0  0
    1.5783   -1.6885   -0.2455 H   0  0  0  0  0  0  0  0  0  0  0  0
    2.5343   -0.5841    0.7737 H   0  0  0  0  0  0  0  0  0  0  0  0
    1.9511   -2.3914    1.7209 N   0  3  0  0  0  0  0  0  0  0  0  0
    1.3016   -2.4764    2.5032 H   0  0  0  0  0  0  0  0  0  0  0  0
    2.9340   -3.2371    1.6158 C   0  0  0  0  0  0  0  0  0  0  0  0
    3.8399   -3.1715    0.5819 N   0  0  0  0  0  0  0  0  0  0  0  0
    3.8321   -2.3384   -0.0025 H   0  0  0  0  0  0  0  0  0  0  0  0
    4.7124   -3.6891    0.6655 H   0  0  0  0  0  0  0  0  0  0  0  0
    3.0754   -4.2293    2.5563 N   0  0  0  0  0  0  0  0  0  0  0  0
    2.3183   -4.3869    3.2192 H   0  0  0  0  0  0  0  0  0  0  0  0
    3.7058   -5.0038    2.3572 H   0  0  0  0  0  0  0  0  0  0  0  0
   -1.0946    2.5892   -0.5343 C   0  0  0  0  0  0  0  0  0  0  0  0
   -1.1650    3.7395   -0.1329 O   0  0  0  0  0  0  0  0  0  0  0  0
   -0.9751    2.3568   -1.8943 N   0  0  0  0  0  0  0  0  0  0  0  0
   -0.9912    1.3923   -2.2114 H   0  0  0  0  0  0  0  0  0  0  0  0
   -0.9469    3.4266   -2.8875 C   0  0  0  0  0  0  0  0  0  0  0  0
   -0.1214    4.1174   -2.6842 H   0  0  0  0  0  0  0  0  0  0  0  0
   -0.8084    3.0115   -3.8905 H   0  0  0  0  0  0  0  0  0  0  0  0
   -1.8863    3.9896   -2.8727 H   0  0  0  0  0  0  0  0  0  0  0  0
  1  2  1  0  0  0  0
  2  3  1  0  0  0  0
  2  4  1  0  0  0  0
  2  5  1  0  0  0  0
  5  6  2  0  0  0  0
  5  7  1  0  0  0  0
  7  8  1  0  0  0  0
  7  9  1  0  0  0  0
  9 10  1  0  0  0  0
  9 11  1  0  0  0  0
  9 29  1  0  0  0  0
 11 12  1  0  0  0  0
 11 13  1  0  0  0  0
 11 14  1  0  0  0  0
 14 15  1  0  0  0  0
 14 16  1  0  0  0  0
 14 17  1  0  0  0  0
 17 18  1  0  0  0  0
 17 19  1  0  0  0  0
 17 20  1  0  0  0  0
 20 21  1  0  0  0  0
 20 22  2  0  0  0  0
 22 23  1  0  0  0  0
 22 26  1  0  0  0  0
 23 24  1  0  0  0  0
 23 25  1  0  0  0  0
 26 27  1  0  0  0  0
 26 28  1  0  0  0  0
 29 30  2  0  0  0  0
 29 31  1  0  0  0  0
 31 32  1  0  0  0  0
 31 33  1  0  0  0  0
 33 34  1  0  0  0  0
 33 35  1  0  0  0  0
 33 36  1  0  0  0  0
M  CHG  1  20   1
M  END
$$$$

  -OEChem-02172215453D

 36 35  0     1  0  0  0  0  0999 V2000
   -4.8072   -1.5728    1.2955 H   0  0  0  0  0  0  0  0  0  0  0  0
   -4.5123   -0.6951    0.7130 C   0  0  0  0  0  0  0  0  0  0  0  0
   -4.5718   -0.9429   -0.3495 H   0  0  0  0  0  0  0  0  0  0  0  0
   -5.2098    0.1178    0.9303 H   0  0  0  0  0  0  0  0  0  0  0  0
   -3.0988   -0.2776    1.0730 C   0  0  0  0  0  0  0  0  0  0  0  0
   -2.5122   -0.8883    1.9471 O   0  0  0  0  0  0  0  0  0  0  0  0
   -2.5896    0.8825    0.5205 N   0  0  0  0  0  0  0  0  0  0  0  0
   -3.2783    1.4224    0.0004 H   0  0  0  0  0  0  0  0  0  0  0  0
   -1.2243    1.4683    0.5609 C   0  0  1  0  0  0  0  0  0  0  0  0
   -1.0786    1.9311    1.5432 H   0  0  0  0  0  0  0  0  0  0  0  0
    0.0220    0.5830    0.2344 C   0  0  0  0  0  0  0  0  0  0  0  0
   -0.1263    0.1480   -0.7602 H   0  0  0  0  0  0  0  0  0  0  0  0
    0.8964    1.2420    0.1738 H   0  0  0  0  0  0  0  0  0  0  0  0
    0.3953   -0.5529    1.1940 C   0  0  0  0  0  0  0  0  0  0  0  0
   -0.3881   -1.3041    1.2153 H   0  0  0  0  0  0  0  0  0  0  0  0
    0.5418   -0.1576    2.2052 H   0  0  0  0  0  0  0  0  0  0  0  0
    1.6392   -1.2796    0.6924 C   0  0  0  0  0  0  0  0  0  0  0  0
    1.4498   -1.6728   -0.3125 H   0  0  0  0  0  0  0  0  0  0  0  0
    2.4741   -0.5718    0.6405 H   0  0  0  0  0  0  0  0  0  0  0  0
    1.9548   -2.3776    1.6235 N   0  3  0  0  0  0  0  0  0  0  0  0
    1.3671   -2.4576    2.4534 H   0  0  0  0  0  0  0  0  0  0  0  0
    2.9276   -3.2229    1.4467 C   0  0  0  0  0  0  0  0  0  0  0  0
    3.7570   -3.1543    0.3506 N   0  0  0  0  0  0  0  0  0  0  0  0
    3.7026   -2.3218   -0.2325 H   0  0  0  0  0  0  0  0  0  0  0  0
    4.6363   -3.6667    0.3724 H   0  0  0  0  0  0  0  0  0  0  0  0
    3.1380   -4.2157    2.3734 N   0  0  0  0  0  0  0  0  0  0  0  0
    2.4280   -4.3776    3.0854 H   0  0  0  0  0  0  0  0  0  0  0  0
    3.7525   -4.9892    2.1268 H   0  0  0  0  0  0  0  0  0  0  0  0
   -1.1338    2.5691   -0.5223 C   0  0  0  0  0  0  0  0  0  0  0  0
   -0.3847    3.5192   -0.3524 O   0  0  0  0  0  0  0  0  0  0  0  0
   -1.8795    2.4946   -1.6879 N   0  0  0  0  0  0  0  0  0  0  0  0
   -2.3722    1.6265   -1.8732 H   0  0  0  0  0  0  0  0  0  0  0  0
   -1.7869    3.4883   -2.7533 C   0  0  0  0  0  0  0  0  0  0  0  0
   -0.7749    3.5108   -3.1717 H   0  0  0  0  0  0  0  0  0  0  0  0
   -2.4897    3.2499   -3.5575 H   0  0  0  0  0  0  0  0  0  0  0  0
   -2.0299    4.4854   -2.3700 H   0  0  0  0  0  0  0  0  0  0  0  0
  1  2  1  0  0  0  0
  2  3  1  0  0  0  0
  2  4  1  0  0  0  0
  2  5  1  0  0  0  0
  5  6  2  0  0  0  0
  5  7  1  0  0  0  0
  7  8  1  0  0  0  0
  7  9  1  0  0  0  0
  9 10  1  0  0  0  0
  9 11  1  0  0  0  0
  9 29  1  0  0  0  0
 11 12  1  0  0  0  0
 11 13  1  0  0  0  0
 11 14  1  0  0  0  0
 14 15  1  0  0  0  0
 14 16  1  0  0  0  0
 14 17  1  0  0  0  0
 17 18  1  0  0  0  0
 17 19  1  0  0  0  0
 17 20  1  0  0  0  0
 20 21  1  0  0  0  0
 20 22  2  0  0  0  0
 22 23  1  0  0  0  0
 22 26  1  0  0  0  0
 23 24  1  0  0  0  0
 23 25  1  0  0  0  0
 26 27  1  0  0  0  0
 26 28  1  0  0  0  0
 29 30  2  0  0  0  0
 29 31  1  0  0  0  0
 31 32  1  0  0  0  0
 31 33  1  0  0  0  0
 33 34  1  0  0  0  0
 33 35  1  0  0  0  0
 33 36  1  0  0  0  0
M  CHG  1  20   1
M  END
$$$$

  -OEChem-02172215453D

 36 35  0     1  0  0  0  0  0999 V2000
   -4.4949   -1.8067    1.0549 H   0  0  0  0  0  0  0  0  0  0  0  0
   -4.2025   -0.9513    0.4393 C   0  0  0  0  0  0  0  0  0  0  0  0
   -5.0445   -0.2567    0.3842 H   0  0  0  0  0  0  0  0  0  0  0  0
   -3.9654   -1.3062   -0.5665 H   0  0  0  0  0  0  0  0  0  0  0  0
   -2.9958   -0.2598    1.0448 C   0  0  0  0  0  0  0  0  0  0  0  0
   -2.5374   -0.6669    2.0987 O   0  0  0  0  0  0  0  0  0  0  0  0
   -2.5560    0.9311    0.5038 N   0  0  0  0  0  0  0  0  0  0  0  0
   -3.0835    1.1945   -0.3262 H   0  0  0  0  0  0  0  0  0  0  0  0
   -1.1977    1.5289    0.5683 C   0  0  1  0  0  0  0  0  0  0  0  0
   -1.0618    1.9805    1.5564 H   0  0  0  0  0  0  0  0  0  0  0  0
    0.0278    0.5960    0.2728 C   0  0  0  0  0  0  0  0  0  0  0  0
   -0.1139    0.1610   -0.7227 H   0  0  0  0  0  0  0  0  0  0  0  0
    0.9288    1.2185    0.2345 H   0  0  0  0  0  0  0  0  0  0  0  0
    0.3541   -0.5377    1.2526 C   0  0  0  0  0  0  0  0  0  0  0  0
    0.5072   -0.1333    2.2593 H   0  0  0  0  0  0  0  0  0  0  0  0
   -0.4542   -1.2641    1.2800 H   0  0  0  0  0  0  0  0  0  0  0  0
    1.5819   -1.3012    0.7654 C   0  0  0  0  0  0  0  0  0  0  0  0
    1.3868   -1.6966   -0.2376 H   0  0  0  0  0  0  0  0  0  0  0  0
    2.4344   -0.6151    0.7110 H   0  0  0  0  0  0  0  0  0  0  0  0
    1.8689   -2.4014    1.7029 N   0  3  0  0  0  0  0  0  0  0  0  0
    1.2801   -2.4624    2.5333 H   0  0  0  0  0  0  0  0  0  0  0  0
    2.8233   -3.2686    1.5305 C   0  0  0  0  0  0  0  0  0  0  0  0
    3.6554   -3.2212    0.4353 N   0  0  0  0  0  0  0  0  0  0  0  0
    3.6208   -2.3883   -0.1493 H   0  0  0  0  0  0  0  0  0  0  0  0
    4.5229   -3.7531    0.4589 H   0  0  0  0  0  0  0  0  0  0  0  0
    3.0094   -4.2640    2.4595 N   0  0  0  0  0  0  0  0  0  0  0  0
    2.2928   -4.4108    3.1681 H   0  0  0  0  0  0  0  0  0  0  0  0
    3.6075   -5.0511    2.2152 H   0  0  0  0  0  0  0  0  0  0  0  0
   -1.1534    2.6642   -0.5008 C   0  0  0  0  0  0  0  0  0  0  0  0
   -0.1404    2.9349   -1.1335 O   0  0  0  0  0  0  0  0  0  0  0  0
   -2.3163    3.3491   -0.8188 N   0  0  0  0  0  0  0  0  0  0  0  0
   -3.0880    3.2592   -0.1628 H   0  0  0  0  0  0  0  0  0  0  0  0
   -2.3498    4.4571   -1.7702 C   0  0  0  0  0  0  0  0  0  0  0  0
   -1.9907    4.1322   -2.7527 H   0  0  0  0  0  0  0  0  0  0  0  0
   -3.3729    4.8280   -1.8858 H   0  0  0  0  0  0  0  0  0  0  0  0
   -1.7195    5.2821   -1.4216 H   0  0  0  0  0  0  0  0  0  0  0  0
  1  2  1  0  0  0  0
  2  3  1  0  0  0  0
  2  4  1  0  0  0  0
  2  5  1  0  0  0  0
  5  6  2  0  0  0  0
  5  7  1  0  0  0  0
  7  8  1  0  0  0  0
  7  9  1  0  0  0  0
  9 10  1  0  0  0  0
  9 11  1  0  0  0  0
  9 29  1  0  0  0  0
 11 12  1  0  0  0  0
 11 13  1  0  0  0  0
 11 14  1  0  0  0  0
 14 15  1  0  0  0  0
 14 16  1  0  0  0  0
 14 17  1  0  0  0  0
 17 18  1  0  0  0  0
 17 19  1  0  0  0  0
 17 20  1  0  0  0  0
 20 21  1  0  0  0  0
 20 22  2  0  0  0  0
 22 23  1  0  0  0  0
 22 26  1  0  0  0  0
 23 24  1  0  0  0  0
 23 25  1  0  0  0  0
 26 27  1  0  0  0  0
 26 28  1  0  0  0  0
 29 30  2  0  0  0  0
 29 31  1  0  0  0  0
 31 32  1  0  0  0  0
 31 33  1  0  0  0  0
 33 34  1  0  0  0  0
 33 35  1  0  0  0  0
 33 36  1  0  0  0  0
M  CHG  1  20   1
M  END
$$$$

  -OEChem-02172215453D

 36 35  0     1  0  0  0  0  0999 V2000
   -4.4947   -1.6886    1.3161 H   0  0  0  0  0  0  0  0  0  0  0  0
   -4.2394   -0.8293    0.6893 C   0  0  0  0  0  0  0  0  0  0  0  0
   -5.0666   -0.1157    0.7206 H   0  0  0  0  0  0  0  0  0  0  0  0
   -4.1021   -1.1727   -0.3387 H   0  0  0  0  0  0  0  0  0  0  0  0
   -2.9675   -0.1740    1.1933 C   0  0  0  0  0  0  0  0  0  0  0  0
   -2.4543   -0.5762    2.2238 O   0  0  0  0  0  0  0  0  0  0  0  0
   -2.5216    0.9876    0.5963 N   0  0  0  0  0  0  0  0  0  0  0  0
   -3.1001    1.2684   -0.1936 H   0  0  0  0  0  0  0  0  0  0  0  0
   -1.1473    1.5468    0.5689 C   0  0  1  0  0  0  0  0  0  0  0  0
   -0.9444    2.0244    1.5329 H   0  0  0  0  0  0  0  0  0  0  0  0
    0.0390    0.5791    0.2352 C   0  0  0  0  0  0  0  0  0  0  0  0
   -0.1691    0.1148   -0.7353 H   0  0  0  0  0  0  0  0  0  0  0  0
    0.9457    1.1850    0.1229 H   0  0  0  0  0  0  0  0  0  0  0  0
    0.3935   -0.5342    1.2280 C   0  0  0  0  0  0  0  0  0  0  0  0
   -0.4283   -1.2402    1.3193 H   0  0  0  0  0  0  0  0  0  0  0  0
    0.6094   -0.1069    2.2129 H   0  0  0  0  0  0  0  0  0  0  0  0
    1.5760   -1.3382    0.6969 C   0  0  0  0  0  0  0  0  0  0  0  0
    1.3177   -1.7559   -0.2826 H   0  0  0  0  0  0  0  0  0  0  0  0
    2.4383   -0.6731    0.5765 H   0  0  0  0  0  0  0  0  0  0  0  0
    1.8917   -2.4191    1.6475 N   0  3  0  0  0  0  0  0  0  0  0  0
    1.3471   -2.4468    2.5094 H   0  0  0  0  0  0  0  0  0  0  0  0
    2.8173   -3.3110    1.4459 C   0  0  0  0  0  0  0  0  0  0  0  0
    3.5870   -3.3097    0.3050 N   0  0  0  0  0  0  0  0  0  0  0  0
    3.5313   -2.4950   -0.3032 H   0  0  0  0  0  0  0  0  0  0  0  0
    4.4448   -3.8575    0.2942 H   0  0  0  0  0  0  0  0  0  0  0  0
    3.0373   -4.2840    2.3912 N   0  0  0  0  0  0  0  0  0  0  0  0
    2.3605   -4.3951    3.1440 H   0  0  0  0  0  0  0  0  0  0  0  0
    3.6041   -5.0906    2.1360 H   0  0  0  0  0  0  0  0  0  0  0  0
   -1.1470    2.6455   -0.5347 C   0  0  0  0  0  0  0  0  0  0  0  0
   -0.2944    2.7104   -1.4117 O   0  0  0  0  0  0  0  0  0  0  0  0
   -2.2008    3.5428   -0.5831 N   0  0  0  0  0  0  0  0  0  0  0  0
   -2.8367    3.5505    0.2106 H   0  0  0  0  0  0  0  0  0  0  0  0
   -2.2808    4.6332   -1.5512 C   0  0  0  0  0  0  0  0  0  0  0  0
   -2.2759    4.2411   -2.5739 H   0  0  0  0  0  0  0  0  0  0  0  0
   -3.2043    5.2023   -1.4069 H   0  0  0  0  0  0  0  0  0  0  0  0
   -1.4318    5.3152   -1.4328 H   0  0  0  0  0  0  0  0  0  0  0  0
  1  2  1  0  0  0  0
  2  3  1  0  0  0  0
  2  4  1  0  0  0  0
  2  5  1  0  0  0  0
  5  6  2  0  0  0  0
  5  7  1  0  0  0  0
  7  8  1  0  0  0  0
  7  9  1  0  0  0  0
  9 10  1  0  0  0  0
  9 11  1  0  0  0  0
  9 29  1  0  0  0  0
 11 12  1  0  0  0  0
 11 13  1  0  0  0  0
 11 14  1  0  0  0  0
 14 15  1  0  0  0  0
 14 16  1  0  0  0  0
 14 17  1  0  0  0  0
 17 18  1  0  0  0  0
 17 19  1  0  0  0  0
 17 20  1  0  0  0  0
 20 21  1  0  0  0  0
 20 22  2  0  0  0  0
 22 23  1  0  0  0  0
 22 26  1  0  0  0  0
 23 24  1  0  0  0  0
 23 25  1  0  0  0  0
 26 27  1  0  0  0  0
 26 28  1  0  0  0  0
 29 30  2  0  0  0  0
 29 31  1  0  0  0  0
 31 32  1  0  0  0  0
 31 33  1  0  0  0  0
 33 34  1  0  0  0  0
 33 35  1  0  0  0  0
 33 36  1  0  0  0  0
M  CHG  1  20   1
M  END
$$$$

  -OEChem-02172215453D

 36 35  0     1  0  0  0  0  0999 V2000
   -4.4992   -1.7041    1.2733 H   0  0  0  0  0  0  0  0  0  0  0  0
   -4.2411   -0.8394    0.6553 C   0  0  0  0  0  0  0  0  0  0  0  0
   -5.0713   -0.1292    0.6833 H   0  0  0  0  0  0  0  0  0  0  0  0
   -4.0924   -1.1754   -0.3737 H   0  0  0  0  0  0  0  0  0  0  0  0
   -2.9768   -0.1828    1.1758 C   0  0  0  0  0  0  0  0  0  0  0  0
   -2.4691   -0.5944    2.2053 O   0  0  0  0  0  0  0  0  0  0  0  0
   -2.5273    0.9838    0.5916 N   0  0  0  0  0  0  0  0  0  0  0  0
   -3.1034    1.2775   -0.1958 H   0  0  0  0  0  0  0  0  0  0  0  0
   -1.1550    1.5441    0.5822 C   0  0  1  0  0  0  0  0  0  0  0  0
   -0.9611    2.0135    1.5521 H   0  0  0  0  0  0  0  0  0  0  0  0
    0.0387    0.5859    0.2533 C   0  0  0  0  0  0  0  0  0  0  0  0
   -0.1620    0.1199   -0.7181 H   0  0  0  0  0  0  0  0  0  0  0  0
    0.9390    1.2016    0.1431 H   0  0  0  0  0  0  0  0  0  0  0  0
    0.3884   -0.5329    1.2410 C   0  0  0  0  0  0  0  0  0  0  0  0
   -0.4308   -1.2435    1.3186 H   0  0  0  0  0  0  0  0  0  0  0  0
    0.5925   -0.1120    2.2313 H   0  0  0  0  0  0  0  0  0  0  0  0
    1.5803   -1.3263    0.7147 C   0  0  0  0  0  0  0  0  0  0  0  0
    1.3333   -1.7375   -0.2705 H   0  0  0  0  0  0  0  0  0  0  0  0
    2.4403   -0.6559    0.6076 H   0  0  0  0  0  0  0  0  0  0  0  0
    1.8931   -2.4137    1.6588 N   0  3  0  0  0  0  0  0  0  0  0  0
    1.3387   -2.4542    2.5140 H   0  0  0  0  0  0  0  0  0  0  0  0
    2.8255   -3.2983    1.4574 C   0  0  0  0  0  0  0  0  0  0  0  0
    3.6048   -3.2812    0.3229 N   0  0  0  0  0  0  0  0  0  0  0  0
    3.5468   -2.4623   -0.2796 H   0  0  0  0  0  0  0  0  0  0  0  0
    4.4656   -3.8241    0.3123 H   0  0  0  0  0  0  0  0  0  0  0  0
    3.0426   -4.2794    2.3952 N   0  0  0  0  0  0  0  0  0  0  0  0
    2.3613   -4.4004    3.1424 H   0  0  0  0  0  0  0  0  0  0  0  0
    3.6148   -5.0810    2.1364 H   0  0  0  0  0  0  0  0  0  0  0  0
   -1.1485    2.6478   -0.5123 C   0  0  0  0  0  0  0  0  0  0  0  0
   -0.4684    2.5729   -1.5285 O   0  0  0  0  0  0  0  0  0  0  0  0
   -2.0159    3.7175   -0.3799 N   0  0  0  0  0  0  0  0  0  0  0  0
   -2.5478    3.7850    0.4844 H   0  0  0  0  0  0  0  0  0  0  0  0
   -2.0959    4.8140   -1.3405 C   0  0  0  0  0  0  0  0  0  0  0  0
   -2.3802    4.4391   -2.3294 H   0  0  0  0  0  0  0  0  0  0  0  0
   -2.8456    5.5448   -1.0210 H   0  0  0  0  0  0  0  0  0  0  0  0
   -1.1301    5.3241   -1.4224 H   0  0  0  0  0  0  0  0  0  0  0  0
  1  2  1  0  0  0  0
  2  3  1  0  0  0  0
  2  4  1  0  0  0  0
  2  5  1  0  0  0  0
  5  6  2  0  0  0  0
  5  7  1  0  0  0  0
  7  8  1  0  0  0  0
  7  9  1  0  0  0  0
  9 10  1  0  0  0  0
  9 11  1  0  0  0  0
  9 29  1  0  0  0  0
 11 12  1  0  0  0  0
 11 13  1  0  0  0  0
 11 14  1  0  0  0  0
 14 15  1  0  0  0  0
 14 16  1  0  0  0  0
 14 17  1  0  0  0  0
 17 18  1  0  0  0  0
 17 19  1  0  0  0  0
 17 20  1  0  0  0  0
 20 21  1  0  0  0  0
 20 22  2  0  0  0  0
 22 23  1  0  0  0  0
 22 26  1  0  0  0  0
 23 24  1  0  0  0  0
 23 25  1  0  0  0  0
 26 27  1  0  0  0  0
 26 28  1  0  0  0  0
 29 30  2  0  0  0  0
 29 31  1  0  0  0  0
 31 32  1  0  0  0  0
 31 33  1  0  0  0  0
 33 34  1  0  0  0  0
 33 35  1  0  0  0  0
 33 36  1  0  0  0  0
M  CHG  1  20   1
M  END
$$$$

  -OEChem-02172215453D

 36 35  0     1  0  0  0  0  0999 V2000
   -4.4969   -1.7215    1.2101 H   0  0  0  0  0  0  0  0  0  0  0  0
   -4.2222   -0.8576    0.5983 C   0  0  0  0  0  0  0  0  0  0  0  0
   -4.0514   -1.1928   -0.4276 H   0  0  0  0  0  0  0  0  0  0  0  0
   -5.0503   -0.1446    0.6080 H   0  0  0  0  0  0  0  0  0  0  0  0
   -2.9681   -0.2050    1.1473 C   0  0  0  0  0  0  0  0  0  0  0  0
   -2.4685   -0.6332    2.1746 O   0  0  0  0  0  0  0  0  0  0  0  0
   -2.5200    0.9750    0.5907 N   0  0  0  0  0  0  0  0  0  0  0  0
   -3.0857    1.2766   -0.2013 H   0  0  0  0  0  0  0  0  0  0  0  0
   -1.1541    1.5469    0.6111 C   0  0  1  0  0  0  0  0  0  0  0  0
   -0.9750    1.9958    1.5933 H   0  0  0  0  0  0  0  0  0  0  0  0
    0.0540    0.6111    0.2706 C   0  0  0  0  0  0  0  0  0  0  0  0
   -0.1333    0.1593   -0.7102 H   0  0  0  0  0  0  0  0  0  0  0  0
    0.9467    1.2403    0.1757 H   0  0  0  0  0  0  0  0  0  0  0  0
    0.3991   -0.5275    1.2375 C   0  0  0  0  0  0  0  0  0  0  0  0
   -0.4172   -1.2442    1.2852 H   0  0  0  0  0  0  0  0  0  0  0  0
    0.5835   -0.1266    2.2401 H   0  0  0  0  0  0  0  0  0  0  0  0
    1.6048   -1.3054    0.7190 C   0  0  0  0  0  0  0  0  0  0  0  0
    1.3794   -1.7000   -0.2781 H   0  0  0  0  0  0  0  0  0  0  0  0
    2.4644   -0.6309    0.6412 H   0  0  0  0  0  0  0  0  0  0  0  0
    1.8999   -2.4073    1.6525 N   0  3  0  0  0  0  0  0  0  0  0  0
    1.3250   -2.4633    2.4932 H   0  0  0  0  0  0  0  0  0  0  0  0
    2.8377   -3.2883    1.4606 C   0  0  0  0  0  0  0  0  0  0  0  0
    3.6447   -3.2569    0.3461 N   0  0  0  0  0  0  0  0  0  0  0  0
    3.6024   -2.4308   -0.2474 H   0  0  0  0  0  0  0  0  0  0  0  0
    4.5051   -3.8008    0.3499 H   0  0  0  0  0  0  0  0  0  0  0  0
    3.0277   -4.2861    2.3863 N   0  0  0  0  0  0  0  0  0  0  0  0
    2.3197   -4.4231    3.1055 H   0  0  0  0  0  0  0  0  0  0  0  0
    3.5996   -5.0866    2.1236 H   0  0  0  0  0  0  0  0  0  0  0  0
   -1.1437    2.6673   -0.4621 C   0  0  0  0  0  0  0  0  0  0  0  0
   -0.6903    2.4915   -1.5862 O   0  0  0  0  0  0  0  0  0  0  0  0
   -1.7761    3.8652   -0.1831 N   0  0  0  0  0  0  0  0  0  0  0  0
   -2.1953    3.9745    0.7372 H   0  0  0  0  0  0  0  0  0  0  0  0
   -1.9004    4.9558   -1.1458 C   0  0  0  0  0  0  0  0  0  0  0  0
   -2.4690    4.6307   -2.0235 H   0  0  0  0  0  0  0  0  0  0  0  0
   -2.4217    5.8044   -0.6922 H   0  0  0  0  0  0  0  0  0  0  0  0
   -0.9117    5.2947   -1.4731 H   0  0  0  0  0  0  0  0  0  0  0  0
  1  2  1  0  0  0  0
  2  3  1  0  0  0  0
  2  4  1  0  0  0  0
  2  5  1  0  0  0  0
  5  6  2  0  0  0  0
  5  7  1  0  0  0  0
  7  8  1  0  0  0  0
  7  9  1  0  0  0  0
  9 10  1  0  0  0  0
  9 11  1  0  0  0  0
  9 29  1  0  0  0  0
 11 12  1  0  0  0  0
 11 13  1  0  0  0  0
 11 14  1  0  0  0  0
 14 15  1  0  0  0  0
 14 16  1  0  0  0  0
 14 17  1  0  0  0  0
 17 18  1  0  0  0  0
 17 19  1  0  0  0  0
 17 20  1  0  0  0  0
 20 21  1  0  0  0  0
 20 22  2  0  0  0  0
 22 23  1  0  0  0  0
 22 26  1  0  0  0  0
 23 24  1  0  0  0  0
 23 25  1  0  0  0  0
 26 27  1  0  0  0  0
 26 28  1  0  0  0  0
 29 30  2  0  0  0  0
 29 31  1  0  0  0  0
 31 32  1  0  0  0  0
 31 33  1  0  0  0  0
 33 34  1  0  0  0  0
 33 35  1  0  0  0  0
 33 36  1  0  0  0  0
M  CHG  1  20   1
M  END
$$$$

  -OEChem-02172215453D

 36 35  0     1  0  0  0  0  0999 V2000
   -4.5073   -1.7051    1.1811 H   0  0  0  0  0  0  0  0  0  0  0  0
   -4.2389   -0.8258    0.5887 C   0  0  0  0  0  0  0  0  0  0  0  0
   -5.0692   -0.1159    0.6198 H   0  0  0  0  0  0  0  0  0  0  0  0
   -4.0732   -1.1357   -0.4458 H   0  0  0  0  0  0  0  0  0  0  0  0
   -2.9835   -0.1817    1.1454 C   0  0  0  0  0  0  0  0  0  0  0  0
   -2.4916   -0.6137    2.1751 O   0  0  0  0  0  0  0  0  0  0  0  0
   -2.5196    0.9910    0.5866 N   0  0  0  0  0  0  0  0  0  0  0  0
   -3.0663    1.2881   -0.2208 H   0  0  0  0  0  0  0  0  0  0  0  0
   -1.1511    1.5523    0.6243 C   0  0  1  0  0  0  0  0  0  0  0  0
   -0.9814    1.9986    1.6089 H   0  0  0  0  0  0  0  0  0  0  0  0
    0.0555    0.6142    0.2917 C   0  0  0  0  0  0  0  0  0  0  0  0
   -0.1223    0.1670   -0.6928 H   0  0  0  0  0  0  0  0  0  0  0  0
    0.9511    1.2406    0.2082 H   0  0  0  0  0  0  0  0  0  0  0  0
    0.3838   -0.5312    1.2568 C   0  0  0  0  0  0  0  0  0  0  0  0
   -0.4376   -1.2433    1.2918 H   0  0  0  0  0  0  0  0  0  0  0  0
    0.5597   -0.1379    2.2640 H   0  0  0  0  0  0  0  0  0  0  0  0
    1.5914   -1.3099    0.7451 C   0  0  0  0  0  0  0  0  0  0  0  0
    1.3729   -1.6970   -0.2568 H   0  0  0  0  0  0  0  0  0  0  0  0
    2.4533   -0.6369    0.6805 H   0  0  0  0  0  0  0  0  0  0  0  0
    1.8777   -2.4202    1.6707 N   0  3  0  0  0  0  0  0  0  0  0  0
    1.2989   -2.4819    2.5083 H   0  0  0  0  0  0  0  0  0  0  0  0
    2.8163   -3.2994    1.4751 C   0  0  0  0  0  0  0  0  0  0  0  0
    3.6291   -3.2557    0.3654 N   0  0  0  0  0  0  0  0  0  0  0  0
    3.5822   -2.4291   -0.2271 H   0  0  0  0  0  0  0  0  0  0  0  0
    4.4907   -3.7974    0.3680 H   0  0  0  0  0  0  0  0  0  0  0  0
    3.0069   -4.3032    2.3939 N   0  0  0  0  0  0  0  0  0  0  0  0
    2.3004   -4.4454    3.1134 H   0  0  0  0  0  0  0  0  0  0  0  0
    3.5824   -5.1000    2.1278 H   0  0  0  0  0  0  0  0  0  0  0  0
   -1.1082    2.6639   -0.4538 C   0  0  0  0  0  0  0  0  0  0  0  0
   -0.9145    2.3963   -1.6331 O   0  0  0  0  0  0  0  0  0  0  0  0
   -1.4416    3.9613   -0.1104 N   0  0  0  0  0  0  0  0  0  0  0  0
   -1.6913    4.1453    0.8579 H   0  0  0  0  0  0  0  0  0  0  0  0
   -1.5414    5.0492   -1.0787 C   0  0  0  0  0  0  0  0  0  0  0  0
   -2.3351    4.8454   -1.8053 H   0  0  0  0  0  0  0  0  0  0  0  0
   -1.7719    5.9906   -0.5699 H   0  0  0  0  0  0  0  0  0  0  0  0
   -0.5957    5.1729   -1.6174 H   0  0  0  0  0  0  0  0  0  0  0  0
  1  2  1  0  0  0  0
  2  3  1  0  0  0  0
  2  4  1  0  0  0  0
  2  5  1  0  0  0  0
  5  6  2  0  0  0  0
  5  7  1  0  0  0  0
  7  8  1  0  0  0  0
  7  9  1  0  0  0  0
  9 10  1  0  0  0  0
  9 11  1  0  0  0  0
  9 29  1  0  0  0  0
 11 12  1  0  0  0  0
 11 13  1  0  0  0  0
 11 14  1  0  0  0  0
 14 15  1  0  0  0  0
 14 16  1  0  0  0  0
 14 17  1  0  0  0  0
 17 18  1  0  0  0  0
 17 19  1  0  0  0  0
 17 20  1  0  0  0  0
 20 21  1  0  0  0  0
 20 22  2  0  0  0  0
 22 23  1  0  0  0  0
 22 26  1  0  0  0  0
 23 24  1  0  0  0  0
 23 25  1  0  0  0  0
 26 27  1  0  0  0  0
 26 28  1  0  0  0  0
 29 30  2  0  0  0  0
 29 31  1  0  0  0  0
 31 32  1  0  0  0  0
 31 33  1  0  0  0  0
 33 34  1  0  0  0  0
 33 35  1  0  0  0  0
 33 36  1  0  0  0  0
M  CHG  1  20   1
M  END
$$$$

  -OEChem-02172215453D

 36 35  0     1  0  0  0  0  0999 V2000
   -4.4463   -1.7617    1.1038 H   0  0  0  0  0  0  0  0  0  0  0  0
   -4.2177   -0.8376    0.5655 C   0  0  0  0  0  0  0  0  0  0  0  0
   -4.0710   -1.0727   -0.4914 H   0  0  0  0  0  0  0  0  0  0  0  0
   -5.0651   -0.1547    0.6645 H   0  0  0  0  0  0  0  0  0  0  0  0
   -2.9670   -0.1951    1.1341 C   0  0  0  0  0  0  0  0  0  0  0  0
   -2.4768   -0.6370    2.1609 O   0  0  0  0  0  0  0  0  0  0  0  0
   -2.5051    0.9846    0.5891 N   0  0  0  0  0  0  0  0  0  0  0  0
   -3.0375    1.2819   -0.2286 H   0  0  0  0  0  0  0  0  0  0  0  0
   -1.1439    1.5582    0.6525 C   0  0  1  0  0  0  0  0  0  0  0  0
   -0.9877    1.9927    1.6450 H   0  0  0  0  0  0  0  0  0  0  0  0
    0.0721    0.6410    0.3023 C   0  0  0  0  0  0  0  0  0  0  0  0
   -0.0929    0.2200   -0.6961 H   0  0  0  0  0  0  0  0  0  0  0  0
    0.9636    1.2759    0.2442 H   0  0  0  0  0  0  0  0  0  0  0  0
    0.3955   -0.5259    1.2428 C   0  0  0  0  0  0  0  0  0  0  0  0
   -0.4249   -1.2405    1.2496 H   0  0  0  0  0  0  0  0  0  0  0  0
    0.5551   -0.1547    2.2609 H   0  0  0  0  0  0  0  0  0  0  0  0
    1.6124   -1.2937    0.7348 C   0  0  0  0  0  0  0  0  0  0  0  0
    1.4123   -1.6619   -0.2778 H   0  0  0  0  0  0  0  0  0  0  0  0
    2.4759   -0.6205    0.6988 H   0  0  0  0  0  0  0  0  0  0  0  0
    1.8781   -2.4201    1.6479 N   0  3  0  0  0  0  0  0  0  0  0  0
    1.2775   -2.4957    2.4691 H   0  0  0  0  0  0  0  0  0  0  0  0
    2.8169   -3.3014    1.4611 C   0  0  0  0  0  0  0  0  0  0  0  0
    3.6552   -3.2484    0.3709 N   0  0  0  0  0  0  0  0  0  0  0  0
    3.6367   -2.4083   -0.2038 H   0  0  0  0  0  0  0  0  0  0  0  0
    4.5062   -3.8069    0.3789 H   0  0  0  0  0  0  0  0  0  0  0  0
    2.9760   -4.3212    2.3686 N   0  0  0  0  0  0  0  0  0  0  0  0
    2.2509   -4.4684    3.0685 H   0  0  0  0  0  0  0  0  0  0  0  0
    3.5542   -5.1174    2.1072 H   0  0  0  0  0  0  0  0  0  0  0  0
   -1.0985    2.6730   -0.4191 C   0  0  0  0  0  0  0  0  0  0  0  0
   -1.1639    2.3873   -1.6085 O   0  0  0  0  0  0  0  0  0  0  0  0
   -1.1426    4.0030   -0.0429 N   0  0  0  0  0  0  0  0  0  0  0  0
   -1.2192    4.2116    0.9492 H   0  0  0  0  0  0  0  0  0  0  0  0
   -1.2559    5.1013   -0.9985 C   0  0  0  0  0  0  0  0  0  0  0  0
   -2.2060    5.0423   -1.5402 H   0  0  0  0  0  0  0  0  0  0  0  0
   -1.2130    6.0639   -0.4791 H   0  0  0  0  0  0  0  0  0  0  0  0
   -0.4360    5.0663   -1.7238 H   0  0  0  0  0  0  0  0  0  0  0  0
  1  2  1  0  0  0  0
  2  3  1  0  0  0  0
  2  4  1  0  0  0  0
  2  5  1  0  0  0  0
  5  6  2  0  0  0  0
  5  7  1  0  0  0  0
  7  8  1  0  0  0  0
  7  9  1  0  0  0  0
  9 10  1  0  0  0  0
  9 11  1  0  0  0  0
  9 29  1  0  0  0  0
 11 12  1  0  0  0  0
 11 13  1  0  0  0  0
 11 14  1  0  0  0  0
 14 15  1  0  0  0  0
 14 16  1  0  0  0  0
 14 17  1  0  0  0  0
 17 18  1  0  0  0  0
 17 19  1  0  0  0  0
 17 20  1  0  0  0  0
 20 21  1  0  0  0  0
 20 22  2  0  0  0  0
 22 23  1  0  0  0  0
 22 26  1  0  0  0  0
 23 24  1  0  0  0  0
 23 25  1  0  0  0  0
 26 27  1  0  0  0  0
 26 28  1  0  0  0  0
 29 30  2  0  0  0  0
 29 31  1  0  0  0  0
 31 32  1  0  0  0  0
 31 33  1  0  0  0  0
 33 34  1  0  0  0  0
 33 35  1  0  0  0  0
 33 36  1  0  0  0  0
M  CHG  1  20   1
M  END
$$$$

  -OEChem-02172215453D

 36 35  0     1  0  0  0  0  0999 V2000
   -4.5153   -1.6751    1.1967 H   0  0  0  0  0  0  0  0  0  0  0  0
   -4.2290   -0.8085    0.5942 C   0  0  0  0  0  0  0  0  0  0  0  0
   -5.0502   -0.0873    0.6055 H   0  0  0  0  0  0  0  0  0  0  0  0
   -4.0554   -1.1351   -0.4340 H   0  0  0  0  0  0  0  0  0  0  0  0
   -2.9722   -0.1708    1.1554 C   0  0  0  0  0  0  0  0  0  0  0  0
   -2.4776   -0.6117    2.1808 O   0  0  0  0  0  0  0  0  0  0  0  0
   -2.4995    0.9973    0.5956 N   0  0  0  0  0  0  0  0  0  0  0  0
   -3.0262    1.2919   -0.2277 H   0  0  0  0  0  0  0  0  0  0  0  0
   -1.1367    1.5661    0.6567 C   0  0  1  0  0  0  0  0  0  0  0  0
   -0.9806    2.0084    1.6455 H   0  0  0  0  0  0  0  0  0  0  0  0
    0.0732    0.6456    0.3040 C   0  0  0  0  0  0  0  0  0  0  0  0
   -0.0955    0.2297   -0.6961 H   0  0  0  0  0  0  0  0  0  0  0  0
    0.9687    1.2752    0.2479 H   0  0  0  0  0  0  0  0  0  0  0  0
    0.3907   -0.5219    1.2453 C   0  0  0  0  0  0  0  0  0  0  0  0
   -0.4346   -1.2310    1.2528 H   0  0  0  0  0  0  0  0  0  0  0  0
    0.5525   -0.1513    2.2632 H   0  0  0  0  0  0  0  0  0  0  0  0
    1.6030   -1.2964    0.7373 C   0  0  0  0  0  0  0  0  0  0  0  0
    1.3997   -1.6644   -0.2746 H   0  0  0  0  0  0  0  0  0  0  0  0
    2.4699   -0.6275    0.6996 H   0  0  0  0  0  0  0  0  0  0  0  0
    1.8638   -2.4233    1.6510 N   0  3  0  0  0  0  0  0  0  0  0  0
    1.2650   -2.4948    2.4738 H   0  0  0  0  0  0  0  0  0  0  0  0
    2.7981   -3.3091    1.4638 C   0  0  0  0  0  0  0  0  0  0  0  0
    3.6353   -3.2608    0.3725 N   0  0  0  0  0  0  0  0  0  0  0  0
    3.6142   -2.4251   -0.2084 H   0  0  0  0  0  0  0  0  0  0  0  0
    4.4871   -3.8181    0.3832 H   0  0  0  0  0  0  0  0  0  0  0  0
    2.9564   -4.3270    2.3735 N   0  0  0  0  0  0  0  0  0  0  0  0
    2.2350   -4.4676    3.0785 H   0  0  0  0  0  0  0  0  0  0  0  0
    3.5287   -5.1273    2.1112 H   0  0  0  0  0  0  0  0  0  0  0  0
   -1.0767    2.6636   -0.4303 C   0  0  0  0  0  0  0  0  0  0  0  0
   -1.3755    2.3890   -1.5864 O   0  0  0  0  0  0  0  0  0  0  0  0
   -0.8049    3.9768   -0.0927 N   0  0  0  0  0  0  0  0  0  0  0  0
   -0.6794    4.1975    0.8916 H   0  0  0  0  0  0  0  0  0  0  0  0
   -0.8750    5.0762   -1.0507 C   0  0  0  0  0  0  0  0  0  0  0  0
   -1.8980    5.1966   -1.4228 H   0  0  0  0  0  0  0  0  0  0  0  0
   -0.5670    6.0133   -0.5765 H   0  0  0  0  0  0  0  0  0  0  0  0
   -0.2119    4.8882   -1.9018 H   0  0  0  0  0  0  0  0  0  0  0  0
  1  2  1  0  0  0  0
  2  3  1  0  0  0  0
  2  4  1  0  0  0  0
  2  5  1  0  0  0  0
  5  6  2  0  0  0  0
  5  7  1  0  0  0  0
  7  8  1  0  0  0  0
  7  9  1  0  0  0  0
  9 10  1  0  0  0  0
  9 11  1  0  0  0  0
  9 29  1  0  0  0  0
 11 12  1  0  0  0  0
 11 13  1  0  0  0  0
 11 14  1  0  0  0  0
 14 15  1  0  0  0  0
 14 16  1  0  0  0  0
 14 17  1  0  0  0  0
 17 18  1  0  0  0  0
 17 19  1  0  0  0  0
 17 20  1  0  0  0  0
 20 21  1  0  0  0  0
 20 22  2  0  0  0  0
 22 23  1  0  0  0  0
 22 26  1  0  0  0  0
 23 24  1  0  0  0  0
 23 25  1  0  0  0  0
 26 27  1  0  0  0  0
 26 28  1  0  0  0  0
 29 30  2  0  0  0  0
 29 31  1  0  0  0  0
 31 32  1  0  0  0  0
 31 33  1  0  0  0  0
 33 34  1  0  0  0  0
 33 35  1  0  0  0  0
 33 36  1  0  0  0  0
M  CHG  1  20   1
M  END
$$$$

  -OEChem-02172215453D

 36 35  0     1  0  0  0  0  0999 V2000
   -4.4960   -1.7285    1.1436 H   0  0  0  0  0  0  0  0  0  0  0  0
   -4.2294   -0.8398    0.5651 C   0  0  0  0  0  0  0  0  0  0  0  0
   -4.0705   -1.1310   -0.4759 H   0  0  0  0  0  0  0  0  0  0  0  0
   -5.0575   -0.1283    0.6138 H   0  0  0  0  0  0  0  0  0  0  0  0
   -2.9706   -0.2063    1.1253 C   0  0  0  0  0  0  0  0  0  0  0  0
   -2.4740   -0.6546    2.1467 O   0  0  0  0  0  0  0  0  0  0  0  0
   -2.5011    0.9653    0.5708 N   0  0  0  0  0  0  0  0  0  0  0  0
   -3.0360    1.2793   -0.2420 H   0  0  0  0  0  0  0  0  0  0  0  0
   -1.1522    1.5660    0.6447 C   0  0  1  0  0  0  0  0  0  0  0  0
   -1.0129    2.0133    1.6337 H   0  0  0  0  0  0  0  0  0  0  0  0
    0.0696    0.6616    0.2902 C   0  0  0  0  0  0  0  0  0  0  0  0
   -0.0944    0.2525   -0.7137 H   0  0  0  0  0  0  0  0  0  0  0  0
    0.9618    1.2960    0.2411 H   0  0  0  0  0  0  0  0  0  0  0  0
    0.3945   -0.5071    1.2279 C   0  0  0  0  0  0  0  0  0  0  0  0
   -0.4224   -1.2255    1.2253 H   0  0  0  0  0  0  0  0  0  0  0  0
    0.5428   -0.1394    2.2492 H   0  0  0  0  0  0  0  0  0  0  0  0
    1.6165   -1.2727    0.7301 C   0  0  0  0  0  0  0  0  0  0  0  0
    1.4242   -1.6430   -0.2833 H   0  0  0  0  0  0  0  0  0  0  0  0
    2.4797   -0.5991    0.6998 H   0  0  0  0  0  0  0  0  0  0  0  0
    1.8721   -2.3970    1.6488 N   0  3  0  0  0  0  0  0  0  0  0  0
    1.2616   -2.4707    2.4629 H   0  0  0  0  0  0  0  0  0  0  0  0
    2.8119   -3.2799    1.4759 C   0  0  0  0  0  0  0  0  0  0  0  0
    3.6628   -3.2314    0.3954 N   0  0  0  0  0  0  0  0  0  0  0  0
    3.6490   -2.3946   -0.1839 H   0  0  0  0  0  0  0  0  0  0  0  0
    4.5178   -3.7832    0.4217 H   0  0  0  0  0  0  0  0  0  0  0  0
    2.9616   -4.2962    2.3890 N   0  0  0  0  0  0  0  0  0  0  0  0
    2.2274   -4.4432    3.0795 H   0  0  0  0  0  0  0  0  0  0  0  0
    3.5448   -5.0923    2.1374 H   0  0  0  0  0  0  0  0  0  0  0  0
   -1.0875    2.6627   -0.4462 C   0  0  0  0  0  0  0  0  0  0  0  0
   -1.7478    2.5421   -1.4724 O   0  0  0  0  0  0  0  0  0  0  0  0
   -0.2892    3.7805   -0.2796 N   0  0  0  0  0  0  0  0  0  0  0  0
    0.1661    3.9066    0.6200 H   0  0  0  0  0  0  0  0  0  0  0  0
   -0.2564    4.8815   -1.2376 C   0  0  0  0  0  0  0  0  0  0  0  0
   -1.2406    5.3568   -1.3093 H   0  0  0  0  0  0  0  0  0  0  0  0
    0.4703    5.6374   -0.9238 H   0  0  0  0  0  0  0  0  0  0  0  0
    0.0315    4.5197   -2.2307 H   0  0  0  0  0  0  0  0  0  0  0  0
  1  2  1  0  0  0  0
  2  3  1  0  0  0  0
  2  4  1  0  0  0  0
  2  5  1  0  0  0  0
  5  6  2  0  0  0  0
  5  7  1  0  0  0  0
  7  8  1  0  0  0  0
  7  9  1  0  0  0  0
  9 10  1  0  0  0  0
  9 11  1  0  0  0  0
  9 29  1  0  0  0  0
 11 12  1  0  0  0  0
 11 13  1  0  0  0  0
 11 14  1  0  0  0  0
 14 15  1  0  0  0  0
 14 16  1  0  0  0  0
 14 17  1  0  0  0  0
 17 18  1  0  0  0  0
 17 19  1  0  0  0  0
 17 20  1  0  0  0  0
 20 21  1  0  0  0  0
 20 22  2  0  0  0  0
 22 23  1  0  0  0  0
 22 26  1  0  0  0  0
 23 24  1  0  0  0  0
 23 25  1  0  0  0  0
 26 27  1  0  0  0  0
 26 28  1  0  0  0  0
 29 30  2  0  0  0  0
 29 31  1  0  0  0  0
 31 32  1  0  0  0  0
 31 33  1  0  0  0  0
 33 34  1  0  0  0  0
 33 35  1  0  0  0  0
 33 36  1  0  0  0  0
M  CHG  1  20   1
M  END
$$$$
