default_name
  -OEChem-02102213163D

 24 23  0     1  0  0  0  0  0999 V2000
   -2.8347   -3.7166    0.8034 H   0  0  0  0  0  0  0  0  0  0  0  0
   -2.7728   -2.7096    0.3954 C   0  0  0  0  0  0  0  0  0  0  0  0
   -3.4267   -2.0426    0.9524 H   0  0  0  0  0  0  0  0  0  0  0  0
   -3.0538   -2.7186   -0.6556 H   0  0  0  0  0  0  0  0  0  0  0  0
   -1.3498   -2.2206    0.5184 C   0  0  0  0  0  0  0  0  0  0  0  0
   -0.4997   -2.9426    1.0194 O   0  0  0  0  0  0  0  0  0  0  0  0
   -1.1198   -0.9926    0.0674 N   0  0  0  0  0  0  0  0  0  0  0  0
   -1.8978   -0.4486   -0.2716 H   0  0  0  0  0  0  0  0  0  0  0  0
    0.1693   -0.2866    0.0854 C   0  0  1  0  0  0  0  0  0  0  0  0
    0.9043   -0.8713   -0.4705 H   0  0  0  0  0  0  0  0  0  0  0  0
    0.0106    1.0816   -0.6124 C   0  0  0  0  0  0  0  0  0  0  0  0
   -0.3142    0.9147   -1.6409 H   0  0  0  0  0  0  0  0  0  0  0  0
   -0.7729    1.6474   -0.1035 H   0  0  0  0  0  0  0  0  0  0  0  0
    1.2942    1.9250   -0.6616 C   0  0  0  0  0  0  0  0  0  0  0  0
    1.2506    3.0507   -1.2117 O   0  5  0  0  0  0  0  0  0  0  0  0
    2.3228    1.4225   -0.1601 O   0  0  0  0  0  0  0  0  0  0  0  0
    0.6664   -0.1450    1.5428 C   0  0  0  0  0  0  0  0  0  0  0  0
    1.8485   -0.3724    1.8265 O   0  0  0  0  0  0  0  0  0  0  0  0
   -0.2161    0.2434    2.4686 N   0  0  0  0  0  0  0  0  0  0  0  0
   -1.1850    0.3219    2.1537 H   0  0  0  0  0  0  0  0  0  0  0  0
    0.0735    0.4128    3.8885 C   0  0  0  0  0  0  0  0  0  0  0  0
    1.0159    0.9483    4.0105 H   0  0  0  0  0  0  0  0  0  0  0  0
   -0.7315    0.9748    4.3613 H   0  0  0  0  0  0  0  0  0  0  0  0
    0.1564   -0.5677    4.3577 H   0  0  0  0  0  0  0  0  0  0  0  0
  5  6  2  0  0  0  0
  5  7  1  0  0  0  0
  2  3  1  0  0  0  0
  2  4  1  0  0  0  0
  2  5  1  0  0  0  0
  1  2  1  0  0  0  0
 17 18  2  0  0  0  0
 17 19  1  0  0  0  0
 14 15  1  0  0  0  0
 14 16  2  0  0  0  0
 11 12  1  0  0  0  0
 11 13  1  0  0  0  0
 11 14  1  0  0  0  0
  9 10  1  0  0  0  0
  9 11  1  0  0  0  0
  9 17  1  0  0  0  0
  7  8  1  0  0  0  0
  7  9  1  0  0  0  0
 21 22  1  0  0  0  0
 21 23  1  0  0  0  0
 21 24  1  0  0  0  0
 19 20  1  0  0  0  0
 19 21  1  0  0  0  0
M  CHG  1  15  -1
M  END
$$$$
default_name
  -OEChem-02102213163D

 24 23  0     1  0  0  0  0  0999 V2000
   -2.8347   -3.7166    0.8034 H   0  0  0  0  0  0  0  0  0  0  0  0
   -2.7728   -2.7096    0.3954 C   0  0  0  0  0  0  0  0  0  0  0  0
   -3.4267   -2.0426    0.9524 H   0  0  0  0  0  0  0  0  0  0  0  0
   -3.0538   -2.7186   -0.6556 H   0  0  0  0  0  0  0  0  0  0  0  0
   -1.3498   -2.2206    0.5184 C   0  0  0  0  0  0  0  0  0  0  0  0
   -0.4997   -2.9426    1.0194 O   0  0  0  0  0  0  0  0  0  0  0  0
   -1.1198   -0.9926    0.0674 N   0  0  0  0  0  0  0  0  0  0  0  0
   -1.8978   -0.4486   -0.2716 H   0  0  0  0  0  0  0  0  0  0  0  0
    0.1693   -0.2866    0.0854 C   0  0  1  0  0  0  0  0  0  0  0  0
    0.9043   -0.8713   -0.4705 H   0  0  0  0  0  0  0  0  0  0  0  0
    0.0106    1.0816   -0.6124 C   0  0  0  0  0  0  0  0  0  0  0  0
   -0.3142    0.9147   -1.6409 H   0  0  0  0  0  0  0  0  0  0  0  0
   -0.7729    1.6474   -0.1035 H   0  0  0  0  0  0  0  0  0  0  0  0
    1.2942    1.9250   -0.6616 C   0  0  0  0  0  0  0  0  0  0  0  0
    1.2004    3.1429   -0.9441 O   0  5  0  0  0  0  0  0  0  0  0  0
    2.3710    1.3333   -0.4325 O   0  0  0  0  0  0  0  0  0  0  0  0
    0.6664   -0.1450    1.5428 C   0  0  0  0  0  0  0  0  0  0  0  0
    1.8485   -0.3724    1.8265 O   0  0  0  0  0  0  0  0  0  0  0  0
   -0.2161    0.2434    2.4686 N   0  0  0  0  0  0  0  0  0  0  0  0
   -1.1850    0.3219    2.1537 H   0  0  0  0  0  0  0  0  0  0  0  0
    0.0735    0.4128    3.8885 C   0  0  0  0  0  0  0  0  0  0  0  0
    1.0159    0.9483    4.0105 H   0  0  0  0  0  0  0  0  0  0  0  0
   -0.7315    0.9748    4.3613 H   0  0  0  0  0  0  0  0  0  0  0  0
    0.1564   -0.5677    4.3577 H   0  0  0  0  0  0  0  0  0  0  0  0
  5  6  2  0  0  0  0
  5  7  1  0  0  0  0
  2  3  1  0  0  0  0
  2  4  1  0  0  0  0
  2  5  1  0  0  0  0
  1  2  1  0  0  0  0
 17 18  2  0  0  0  0
 17 19  1  0  0  0  0
 14 15  1  0  0  0  0
 14 16  2  0  0  0  0
 11 12  1  0  0  0  0
 11 13  1  0  0  0  0
 11 14  1  0  0  0  0
  9 10  1  0  0  0  0
  9 11  1  0  0  0  0
  9 17  1  0  0  0  0
  7  8  1  0  0  0  0
  7  9  1  0  0  0  0
 21 22  1  0  0  0  0
 21 23  1  0  0  0  0
 21 24  1  0  0  0  0
 19 20  1  0  0  0  0
 19 21  1  0  0  0  0
M  CHG  1  15  -1
M  END
$$$$
default_name
  -OEChem-02102213163D

 24 23  0     1  0  0  0  0  0999 V2000
   -2.8347   -3.7166    0.8034 H   0  0  0  0  0  0  0  0  0  0  0  0
   -2.7728   -2.7096    0.3954 C   0  0  0  0  0  0  0  0  0  0  0  0
   -3.4267   -2.0426    0.9524 H   0  0  0  0  0  0  0  0  0  0  0  0
   -3.0538   -2.7186   -0.6556 H   0  0  0  0  0  0  0  0  0  0  0  0
   -1.3498   -2.2206    0.5184 C   0  0  0  0  0  0  0  0  0  0  0  0
   -0.4997   -2.9426    1.0194 O   0  0  0  0  0  0  0  0  0  0  0  0
   -1.1198   -0.9926    0.0674 N   0  0  0  0  0  0  0  0  0  0  0  0
   -1.8978   -0.4486   -0.2716 H   0  0  0  0  0  0  0  0  0  0  0  0
    0.1693   -0.2866    0.0854 C   0  0  1  0  0  0  0  0  0  0  0  0
    0.9043   -0.8713   -0.4705 H   0  0  0  0  0  0  0  0  0  0  0  0
    0.0106    1.0816   -0.6124 C   0  0  0  0  0  0  0  0  0  0  0  0
   -0.3142    0.9147   -1.6409 H   0  0  0  0  0  0  0  0  0  0  0  0
   -0.7729    1.6474   -0.1035 H   0  0  0  0  0  0  0  0  0  0  0  0
    1.2942    1.9250   -0.6616 C   0  0  0  0  0  0  0  0  0  0  0  0
    1.1906    3.1744   -0.6585 O   0  5  0  0  0  0  0  0  0  0  0  0
    2.3781    1.3056   -0.7219 O   0  0  0  0  0  0  0  0  0  0  0  0
    0.6664   -0.1450    1.5428 C   0  0  0  0  0  0  0  0  0  0  0  0
    1.8485   -0.3724    1.8265 O   0  0  0  0  0  0  0  0  0  0  0  0
   -0.2161    0.2434    2.4686 N   0  0  0  0  0  0  0  0  0  0  0  0
   -1.1850    0.3219    2.1537 H   0  0  0  0  0  0  0  0  0  0  0  0
    0.0735    0.4128    3.8885 C   0  0  0  0  0  0  0  0  0  0  0  0
    1.0159    0.9483    4.0105 H   0  0  0  0  0  0  0  0  0  0  0  0
   -0.7315    0.9748    4.3613 H   0  0  0  0  0  0  0  0  0  0  0  0
    0.1564   -0.5677    4.3577 H   0  0  0  0  0  0  0  0  0  0  0  0
  5  6  2  0  0  0  0
  5  7  1  0  0  0  0
  2  3  1  0  0  0  0
  2  4  1  0  0  0  0
  2  5  1  0  0  0  0
  1  2  1  0  0  0  0
 17 18  2  0  0  0  0
 17 19  1  0  0  0  0
 14 15  1  0  0  0  0
 14 16  2  0  0  0  0
 11 12  1  0  0  0  0
 11 13  1  0  0  0  0
 11 14  1  0  0  0  0
  9 10  1  0  0  0  0
  9 11  1  0  0  0  0
  9 17  1  0  0  0  0
  7  8  1  0  0  0  0
  7  9  1  0  0  0  0
 21 22  1  0  0  0  0
 21 23  1  0  0  0  0
 21 24  1  0  0  0  0
 19 20  1  0  0  0  0
 19 21  1  0  0  0  0
M  CHG  1  15  -1
M  END
$$$$
default_name
  -OEChem-02102213163D

 24 23  0     1  0  0  0  0  0999 V2000
   -2.8347   -3.7166    0.8034 H   0  0  0  0  0  0  0  0  0  0  0  0
   -2.7728   -2.7096    0.3954 C   0  0  0  0  0  0  0  0  0  0  0  0
   -3.4267   -2.0426    0.9524 H   0  0  0  0  0  0  0  0  0  0  0  0
   -3.0538   -2.7186   -0.6556 H   0  0  0  0  0  0  0  0  0  0  0  0
   -1.3498   -2.2206    0.5184 C   0  0  0  0  0  0  0  0  0  0  0  0
   -0.4997   -2.9426    1.0194 O   0  0  0  0  0  0  0  0  0  0  0  0
   -1.1198   -0.9926    0.0674 N   0  0  0  0  0  0  0  0  0  0  0  0
   -1.8978   -0.4486   -0.2716 H   0  0  0  0  0  0  0  0  0  0  0  0
    0.1693   -0.2866    0.0854 C   0  0  1  0  0  0  0  0  0  0  0  0
    0.9043   -0.8713   -0.4705 H   0  0  0  0  0  0  0  0  0  0  0  0
    0.0106    1.0816   -0.6124 C   0  0  0  0  0  0  0  0  0  0  0  0
   -0.3142    0.9147   -1.6409 H   0  0  0  0  0  0  0  0  0  0  0  0
   -0.7729    1.6474   -0.1035 H   0  0  0  0  0  0  0  0  0  0  0  0
    1.2942    1.9250   -0.6616 C   0  0  0  0  0  0  0  0  0  0  0  0
    1.2219    3.1432   -0.3744 O   0  5  0  0  0  0  0  0  0  0  0  0
    2.3436    1.3414   -1.0083 O   0  0  0  0  0  0  0  0  0  0  0  0
    0.6664   -0.1450    1.5428 C   0  0  0  0  0  0  0  0  0  0  0  0
    1.8485   -0.3724    1.8265 O   0  0  0  0  0  0  0  0  0  0  0  0
   -0.2161    0.2434    2.4686 N   0  0  0  0  0  0  0  0  0  0  0  0
   -1.1850    0.3219    2.1537 H   0  0  0  0  0  0  0  0  0  0  0  0
    0.0735    0.4128    3.8885 C   0  0  0  0  0  0  0  0  0  0  0  0
    1.0159    0.9483    4.0105 H   0  0  0  0  0  0  0  0  0  0  0  0
   -0.7315    0.9748    4.3613 H   0  0  0  0  0  0  0  0  0  0  0  0
    0.1564   -0.5677    4.3577 H   0  0  0  0  0  0  0  0  0  0  0  0
  5  6  2  0  0  0  0
  5  7  1  0  0  0  0
  2  3  1  0  0  0  0
  2  4  1  0  0  0  0
  2  5  1  0  0  0  0
  1  2  1  0  0  0  0
 17 18  2  0  0  0  0
 17 19  1  0  0  0  0
 14 15  1  0  0  0  0
 14 16  2  0  0  0  0
 11 12  1  0  0  0  0
 11 13  1  0  0  0  0
 11 14  1  0  0  0  0
  9 10  1  0  0  0  0
  9 11  1  0  0  0  0
  9 17  1  0  0  0  0
  7  8  1  0  0  0  0
  7  9  1  0  0  0  0
 21 22  1  0  0  0  0
 21 23  1  0  0  0  0
 21 24  1  0  0  0  0
 19 20  1  0  0  0  0
 19 21  1  0  0  0  0
M  CHG  1  15  -1
M  END
$$$$
default_name
  -OEChem-02102213163D

 24 23  0     1  0  0  0  0  0999 V2000
   -2.8347   -3.7166    0.8034 H   0  0  0  0  0  0  0  0  0  0  0  0
   -2.7728   -2.7096    0.3954 C   0  0  0  0  0  0  0  0  0  0  0  0
   -3.4267   -2.0426    0.9524 H   0  0  0  0  0  0  0  0  0  0  0  0
   -3.0538   -2.7186   -0.6556 H   0  0  0  0  0  0  0  0  0  0  0  0
   -1.3498   -2.2206    0.5184 C   0  0  0  0  0  0  0  0  0  0  0  0
   -0.4997   -2.9426    1.0194 O   0  0  0  0  0  0  0  0  0  0  0  0
   -1.1198   -0.9926    0.0674 N   0  0  0  0  0  0  0  0  0  0  0  0
   -1.8978   -0.4486   -0.2716 H   0  0  0  0  0  0  0  0  0  0  0  0
    0.1693   -0.2866    0.0854 C   0  0  1  0  0  0  0  0  0  0  0  0
    0.9043   -0.8713   -0.4705 H   0  0  0  0  0  0  0  0  0  0  0  0
    0.0106    1.0816   -0.6124 C   0  0  0  0  0  0  0  0  0  0  0  0
   -0.3142    0.9147   -1.6409 H   0  0  0  0  0  0  0  0  0  0  0  0
   -0.7729    1.6474   -0.1035 H   0  0  0  0  0  0  0  0  0  0  0  0
    1.2942    1.9250   -0.6616 C   0  0  0  0  0  0  0  0  0  0  0  0
    1.2923    3.0514   -0.1112 O   0  5  0  0  0  0  0  0  0  0  0  0
    2.2699    1.4381   -1.2724 O   0  0  0  0  0  0  0  0  0  0  0  0
    0.6664   -0.1450    1.5428 C   0  0  0  0  0  0  0  0  0  0  0  0
    1.8485   -0.3724    1.8265 O   0  0  0  0  0  0  0  0  0  0  0  0
   -0.2161    0.2434    2.4686 N   0  0  0  0  0  0  0  0  0  0  0  0
   -1.1850    0.3219    2.1537 H   0  0  0  0  0  0  0  0  0  0  0  0
    0.0735    0.4128    3.8885 C   0  0  0  0  0  0  0  0  0  0  0  0
    1.0159    0.9483    4.0105 H   0  0  0  0  0  0  0  0  0  0  0  0
   -0.7315    0.9748    4.3613 H   0  0  0  0  0  0  0  0  0  0  0  0
    0.1564   -0.5677    4.3577 H   0  0  0  0  0  0  0  0  0  0  0  0
  5  6  2  0  0  0  0
  5  7  1  0  0  0  0
  2  3  1  0  0  0  0
  2  4  1  0  0  0  0
  2  5  1  0  0  0  0
  1  2  1  0  0  0  0
 17 18  2  0  0  0  0
 17 19  1  0  0  0  0
 14 15  1  0  0  0  0
 14 16  2  0  0  0  0
 11 12  1  0  0  0  0
 11 13  1  0  0  0  0
 11 14  1  0  0  0  0
  9 10  1  0  0  0  0
  9 11  1  0  0  0  0
  9 17  1  0  0  0  0
  7  8  1  0  0  0  0
  7  9  1  0  0  0  0
 21 22  1  0  0  0  0
 21 23  1  0  0  0  0
 21 24  1  0  0  0  0
 19 20  1  0  0  0  0
 19 21  1  0  0  0  0
M  CHG  1  15  -1
M  END
$$$$
default_name
  -OEChem-02102213163D

 24 23  0     1  0  0  0  0  0999 V2000
   -2.8347   -3.7166    0.8034 H   0  0  0  0  0  0  0  0  0  0  0  0
   -2.7728   -2.7096    0.3954 C   0  0  0  0  0  0  0  0  0  0  0  0
   -3.4267   -2.0426    0.9524 H   0  0  0  0  0  0  0  0  0  0  0  0
   -3.0538   -2.7186   -0.6556 H   0  0  0  0  0  0  0  0  0  0  0  0
   -1.3498   -2.2206    0.5184 C   0  0  0  0  0  0  0  0  0  0  0  0
   -0.4997   -2.9426    1.0194 O   0  0  0  0  0  0  0  0  0  0  0  0
   -1.1198   -0.9926    0.0674 N   0  0  0  0  0  0  0  0  0  0  0  0
   -1.8978   -0.4486   -0.2716 H   0  0  0  0  0  0  0  0  0  0  0  0
    0.1693   -0.2866    0.0854 C   0  0  1  0  0  0  0  0  0  0  0  0
    0.9043   -0.8713   -0.4705 H   0  0  0  0  0  0  0  0  0  0  0  0
    0.0106    1.0816   -0.6124 C   0  0  0  0  0  0  0  0  0  0  0  0
   -0.3142    0.9147   -1.6409 H   0  0  0  0  0  0  0  0  0  0  0  0
   -0.7729    1.6474   -0.1035 H   0  0  0  0  0  0  0  0  0  0  0  0
    1.2942    1.9250   -0.6616 C   0  0  0  0  0  0  0  0  0  0  0  0
    1.3970    2.9053    0.1132 O   0  5  0  0  0  0  0  0  0  0  0  0
    2.1620    1.5893   -1.4961 O   0  0  0  0  0  0  0  0  0  0  0  0
    0.6664   -0.1450    1.5428 C   0  0  0  0  0  0  0  0  0  0  0  0
    1.8485   -0.3724    1.8265 O   0  0  0  0  0  0  0  0  0  0  0  0
   -0.2161    0.2434    2.4686 N   0  0  0  0  0  0  0  0  0  0  0  0
   -1.1850    0.3219    2.1537 H   0  0  0  0  0  0  0  0  0  0  0  0
    0.0735    0.4128    3.8885 C   0  0  0  0  0  0  0  0  0  0  0  0
    1.0159    0.9483    4.0105 H   0  0  0  0  0  0  0  0  0  0  0  0
   -0.7315    0.9748    4.3613 H   0  0  0  0  0  0  0  0  0  0  0  0
    0.1564   -0.5677    4.3577 H   0  0  0  0  0  0  0  0  0  0  0  0
  5  6  2  0  0  0  0
  5  7  1  0  0  0  0
  2  3  1  0  0  0  0
  2  4  1  0  0  0  0
  2  5  1  0  0  0  0
  1  2  1  0  0  0  0
 17 18  2  0  0  0  0
 17 19  1  0  0  0  0
 14 15  1  0  0  0  0
 14 16  2  0  0  0  0
 11 12  1  0  0  0  0
 11 13  1  0  0  0  0
 11 14  1  0  0  0  0
  9 10  1  0  0  0  0
  9 11  1  0  0  0  0
  9 17  1  0  0  0  0
  7  8  1  0  0  0  0
  7  9  1  0  0  0  0
 21 22  1  0  0  0  0
 21 23  1  0  0  0  0
 21 24  1  0  0  0  0
 19 20  1  0  0  0  0
 19 21  1  0  0  0  0
M  CHG  1  15  -1
M  END
$$$$
default_name
  -OEChem-02102213163D

 24 23  0     1  0  0  0  0  0999 V2000
   -2.8347   -3.7166    0.8034 H   0  0  0  0  0  0  0  0  0  0  0  0
   -2.7728   -2.7096    0.3954 C   0  0  0  0  0  0  0  0  0  0  0  0
   -3.4267   -2.0426    0.9524 H   0  0  0  0  0  0  0  0  0  0  0  0
   -3.0538   -2.7186   -0.6556 H   0  0  0  0  0  0  0  0  0  0  0  0
   -1.3498   -2.2206    0.5184 C   0  0  0  0  0  0  0  0  0  0  0  0
   -0.4997   -2.9426    1.0194 O   0  0  0  0  0  0  0  0  0  0  0  0
   -1.1198   -0.9926    0.0674 N   0  0  0  0  0  0  0  0  0  0  0  0
   -1.8978   -0.4486   -0.2716 H   0  0  0  0  0  0  0  0  0  0  0  0
    0.1693   -0.2866    0.0854 C   0  0  1  0  0  0  0  0  0  0  0  0
    0.9043   -0.8713   -0.4705 H   0  0  0  0  0  0  0  0  0  0  0  0
    0.0106    1.0816   -0.6124 C   0  0  0  0  0  0  0  0  0  0  0  0
   -0.3142    0.9147   -1.6409 H   0  0  0  0  0  0  0  0  0  0  0  0
   -0.7729    1.6474   -0.1035 H   0  0  0  0  0  0  0  0  0  0  0  0
    1.2942    1.9250   -0.6616 C   0  0  0  0  0  0  0  0  0  0  0  0
    1.5287    2.7147    0.2834 O   0  5  0  0  0  0  0  0  0  0  0  0
    2.0272    1.7846   -1.6641 O   0  0  0  0  0  0  0  0  0  0  0  0
    0.6664   -0.1450    1.5428 C   0  0  0  0  0  0  0  0  0  0  0  0
    1.8485   -0.3724    1.8265 O   0  0  0  0  0  0  0  0  0  0  0  0
   -0.2161    0.2434    2.4686 N   0  0  0  0  0  0  0  0  0  0  0  0
   -1.1850    0.3219    2.1537 H   0  0  0  0  0  0  0  0  0  0  0  0
    0.0735    0.4128    3.8885 C   0  0  0  0  0  0  0  0  0  0  0  0
    1.0159    0.9483    4.0105 H   0  0  0  0  0  0  0  0  0  0  0  0
   -0.7315    0.9748    4.3613 H   0  0  0  0  0  0  0  0  0  0  0  0
    0.1564   -0.5677    4.3577 H   0  0  0  0  0  0  0  0  0  0  0  0
  5  6  2  0  0  0  0
  5  7  1  0  0  0  0
  2  3  1  0  0  0  0
  2  4  1  0  0  0  0
  2  5  1  0  0  0  0
  1  2  1  0  0  0  0
 17 18  2  0  0  0  0
 17 19  1  0  0  0  0
 14 15  1  0  0  0  0
 14 16  2  0  0  0  0
 11 12  1  0  0  0  0
 11 13  1  0  0  0  0
 11 14  1  0  0  0  0
  9 10  1  0  0  0  0
  9 11  1  0  0  0  0
  9 17  1  0  0  0  0
  7  8  1  0  0  0  0
  7  9  1  0  0  0  0
 21 22  1  0  0  0  0
 21 23  1  0  0  0  0
 21 24  1  0  0  0  0
 19 20  1  0  0  0  0
 19 21  1  0  0  0  0
M  CHG  1  15  -1
M  END
$$$$
default_name
  -OEChem-02102213163D

 24 23  0     1  0  0  0  0  0999 V2000
   -2.8347   -3.7166    0.8034 H   0  0  0  0  0  0  0  0  0  0  0  0
   -2.7728   -2.7096    0.3954 C   0  0  0  0  0  0  0  0  0  0  0  0
   -3.4267   -2.0426    0.9524 H   0  0  0  0  0  0  0  0  0  0  0  0
   -3.0538   -2.7186   -0.6556 H   0  0  0  0  0  0  0  0  0  0  0  0
   -1.3498   -2.2206    0.5184 C   0  0  0  0  0  0  0  0  0  0  0  0
   -0.4997   -2.9426    1.0194 O   0  0  0  0  0  0  0  0  0  0  0  0
   -1.1198   -0.9926    0.0674 N   0  0  0  0  0  0  0  0  0  0  0  0
   -1.8978   -0.4486   -0.2716 H   0  0  0  0  0  0  0  0  0  0  0  0
    0.1693   -0.2866    0.0854 C   0  0  1  0  0  0  0  0  0  0  0  0
    0.9043   -0.8713   -0.4705 H   0  0  0  0  0  0  0  0  0  0  0  0
    0.0106    1.0816   -0.6124 C   0  0  0  0  0  0  0  0  0  0  0  0
   -0.3142    0.9147   -1.6409 H   0  0  0  0  0  0  0  0  0  0  0  0
   -0.7729    1.6474   -0.1035 H   0  0  0  0  0  0  0  0  0  0  0  0
    1.2942    1.9250   -0.6616 C   0  0  0  0  0  0  0  0  0  0  0  0
    1.6785    2.4928    0.3880 O   0  5  0  0  0  0  0  0  0  0  0  0
    1.8748    2.0106   -1.7651 O   0  0  0  0  0  0  0  0  0  0  0  0
    0.6664   -0.1450    1.5428 C   0  0  0  0  0  0  0  0  0  0  0  0
    1.8485   -0.3724    1.8265 O   0  0  0  0  0  0  0  0  0  0  0  0
   -0.2161    0.2434    2.4686 N   0  0  0  0  0  0  0  0  0  0  0  0
   -1.1850    0.3219    2.1537 H   0  0  0  0  0  0  0  0  0  0  0  0
    0.0735    0.4128    3.8885 C   0  0  0  0  0  0  0  0  0  0  0  0
    1.0159    0.9483    4.0105 H   0  0  0  0  0  0  0  0  0  0  0  0
   -0.7315    0.9748    4.3613 H   0  0  0  0  0  0  0  0  0  0  0  0
    0.1564   -0.5677    4.3577 H   0  0  0  0  0  0  0  0  0  0  0  0
  5  6  2  0  0  0  0
  5  7  1  0  0  0  0
  2  3  1  0  0  0  0
  2  4  1  0  0  0  0
  2  5  1  0  0  0  0
  1  2  1  0  0  0  0
 17 18  2  0  0  0  0
 17 19  1  0  0  0  0
 14 15  1  0  0  0  0
 14 16  2  0  0  0  0
 11 12  1  0  0  0  0
 11 13  1  0  0  0  0
 11 14  1  0  0  0  0
  9 10  1  0  0  0  0
  9 11  1  0  0  0  0
  9 17  1  0  0  0  0
  7  8  1  0  0  0  0
  7  9  1  0  0  0  0
 21 22  1  0  0  0  0
 21 23  1  0  0  0  0
 21 24  1  0  0  0  0
 19 20  1  0  0  0  0
 19 21  1  0  0  0  0
M  CHG  1  15  -1
M  END
$$$$
default_name
  -OEChem-02102213163D

 24 23  0     1  0  0  0  0  0999 V2000
   -2.8347   -3.7166    0.8034 H   0  0  0  0  0  0  0  0  0  0  0  0
   -2.7728   -2.7096    0.3954 C   0  0  0  0  0  0  0  0  0  0  0  0
   -3.4267   -2.0426    0.9524 H   0  0  0  0  0  0  0  0  0  0  0  0
   -3.0538   -2.7186   -0.6556 H   0  0  0  0  0  0  0  0  0  0  0  0
   -1.3498   -2.2206    0.5184 C   0  0  0  0  0  0  0  0  0  0  0  0
   -0.4997   -2.9426    1.0194 O   0  0  0  0  0  0  0  0  0  0  0  0
   -1.1198   -0.9926    0.0674 N   0  0  0  0  0  0  0  0  0  0  0  0
   -1.8978   -0.4486   -0.2716 H   0  0  0  0  0  0  0  0  0  0  0  0
    0.1693   -0.2866    0.0854 C   0  0  1  0  0  0  0  0  0  0  0  0
    0.9043   -0.8713   -0.4705 H   0  0  0  0  0  0  0  0  0  0  0  0
    0.0106    1.0816   -0.6124 C   0  0  0  0  0  0  0  0  0  0  0  0
   -0.3142    0.9147   -1.6409 H   0  0  0  0  0  0  0  0  0  0  0  0
   -0.7729    1.6474   -0.1035 H   0  0  0  0  0  0  0  0  0  0  0  0
    1.2942    1.9250   -0.6616 C   0  0  0  0  0  0  0  0  0  0  0  0
    1.8363    2.2546    0.4197 O   0  5  0  0  0  0  0  0  0  0  0  0
    1.7152    2.2521   -1.7921 O   0  0  0  0  0  0  0  0  0  0  0  0
    0.6664   -0.1450    1.5428 C   0  0  0  0  0  0  0  0  0  0  0  0
    1.8485   -0.3724    1.8265 O   0  0  0  0  0  0  0  0  0  0  0  0
   -0.2161    0.2434    2.4686 N   0  0  0  0  0  0  0  0  0  0  0  0
   -1.1850    0.3219    2.1537 H   0  0  0  0  0  0  0  0  0  0  0  0
    0.0735    0.4128    3.8885 C   0  0  0  0  0  0  0  0  0  0  0  0
    1.0159    0.9483    4.0105 H   0  0  0  0  0  0  0  0  0  0  0  0
   -0.7315    0.9748    4.3613 H   0  0  0  0  0  0  0  0  0  0  0  0
    0.1564   -0.5677    4.3577 H   0  0  0  0  0  0  0  0  0  0  0  0
  5  6  2  0  0  0  0
  5  7  1  0  0  0  0
  2  3  1  0  0  0  0
  2  4  1  0  0  0  0
  2  5  1  0  0  0  0
  1  2  1  0  0  0  0
 17 18  2  0  0  0  0
 17 19  1  0  0  0  0
 14 15  1  0  0  0  0
 14 16  2  0  0  0  0
 11 12  1  0  0  0  0
 11 13  1  0  0  0  0
 11 14  1  0  0  0  0
  9 10  1  0  0  0  0
  9 11  1  0  0  0  0
  9 17  1  0  0  0  0
  7  8  1  0  0  0  0
  7  9  1  0  0  0  0
 21 22  1  0  0  0  0
 21 23  1  0  0  0  0
 21 24  1  0  0  0  0
 19 20  1  0  0  0  0
 19 21  1  0  0  0  0
M  CHG  1  15  -1
M  END
$$$$
default_name
  -OEChem-02102213163D

 24 23  0     1  0  0  0  0  0999 V2000
   -2.8347   -3.7166    0.8034 H   0  0  0  0  0  0  0  0  0  0  0  0
   -2.7728   -2.7096    0.3954 C   0  0  0  0  0  0  0  0  0  0  0  0
   -3.4267   -2.0426    0.9524 H   0  0  0  0  0  0  0  0  0  0  0  0
   -3.0538   -2.7186   -0.6556 H   0  0  0  0  0  0  0  0  0  0  0  0
   -1.3498   -2.2206    0.5184 C   0  0  0  0  0  0  0  0  0  0  0  0
   -0.4997   -2.9426    1.0194 O   0  0  0  0  0  0  0  0  0  0  0  0
   -1.1198   -0.9926    0.0674 N   0  0  0  0  0  0  0  0  0  0  0  0
   -1.8978   -0.4486   -0.2716 H   0  0  0  0  0  0  0  0  0  0  0  0
    0.1693   -0.2866    0.0854 C   0  0  1  0  0  0  0  0  0  0  0  0
    0.9043   -0.8713   -0.4705 H   0  0  0  0  0  0  0  0  0  0  0  0
    0.0106    1.0816   -0.6124 C   0  0  0  0  0  0  0  0  0  0  0  0
   -0.3142    0.9147   -1.6409 H   0  0  0  0  0  0  0  0  0  0  0  0
   -0.7729    1.6474   -0.1035 H   0  0  0  0  0  0  0  0  0  0  0  0
    1.2942    1.9250   -0.6616 C   0  0  0  0  0  0  0  0  0  0  0  0
    1.9912    2.0163    0.3764 O   0  5  0  0  0  0  0  0  0  0  0  0
    1.5591    2.4925   -1.7433 O   0  0  0  0  0  0  0  0  0  0  0  0
    0.6664   -0.1450    1.5428 C   0  0  0  0  0  0  0  0  0  0  0  0
    1.8485   -0.3724    1.8265 O   0  0  0  0  0  0  0  0  0  0  0  0
   -0.2161    0.2434    2.4686 N   0  0  0  0  0  0  0  0  0  0  0  0
   -1.1850    0.3219    2.1537 H   0  0  0  0  0  0  0  0  0  0  0  0
    0.0735    0.4128    3.8885 C   0  0  0  0  0  0  0  0  0  0  0  0
    1.0159    0.9483    4.0105 H   0  0  0  0  0  0  0  0  0  0  0  0
   -0.7315    0.9748    4.3613 H   0  0  0  0  0  0  0  0  0  0  0  0
    0.1564   -0.5677    4.3577 H   0  0  0  0  0  0  0  0  0  0  0  0
  5  6  2  0  0  0  0
  5  7  1  0  0  0  0
  2  3  1  0  0  0  0
  2  4  1  0  0  0  0
  2  5  1  0  0  0  0
  1  2  1  0  0  0  0
 17 18  2  0  0  0  0
 17 19  1  0  0  0  0
 14 15  1  0  0  0  0
 14 16  2  0  0  0  0
 11 12  1  0  0  0  0
 11 13  1  0  0  0  0
 11 14  1  0  0  0  0
  9 10  1  0  0  0  0
  9 11  1  0  0  0  0
  9 17  1  0  0  0  0
  7  8  1  0  0  0  0
  7  9  1  0  0  0  0
 21 22  1  0  0  0  0
 21 23  1  0  0  0  0
 21 24  1  0  0  0  0
 19 20  1  0  0  0  0
 19 21  1  0  0  0  0
M  CHG  1  15  -1
M  END
$$$$
default_name
  -OEChem-02102213163D

 24 23  0     1  0  0  0  0  0999 V2000
   -2.8347   -3.7166    0.8034 H   0  0  0  0  0  0  0  0  0  0  0  0
   -2.7728   -2.7096    0.3954 C   0  0  0  0  0  0  0  0  0  0  0  0
   -3.4267   -2.0426    0.9524 H   0  0  0  0  0  0  0  0  0  0  0  0
   -3.0538   -2.7186   -0.6556 H   0  0  0  0  0  0  0  0  0  0  0  0
   -1.3498   -2.2206    0.5184 C   0  0  0  0  0  0  0  0  0  0  0  0
   -0.4997   -2.9426    1.0194 O   0  0  0  0  0  0  0  0  0  0  0  0
   -1.1198   -0.9926    0.0674 N   0  0  0  0  0  0  0  0  0  0  0  0
   -1.8978   -0.4486   -0.2716 H   0  0  0  0  0  0  0  0  0  0  0  0
    0.1693   -0.2866    0.0854 C   0  0  1  0  0  0  0  0  0  0  0  0
    0.9043   -0.8713   -0.4705 H   0  0  0  0  0  0  0  0  0  0  0  0
    0.0106    1.0816   -0.6124 C   0  0  0  0  0  0  0  0  0  0  0  0
   -0.3142    0.9147   -1.6409 H   0  0  0  0  0  0  0  0  0  0  0  0
   -0.7729    1.6474   -0.1035 H   0  0  0  0  0  0  0  0  0  0  0  0
    1.2942    1.9250   -0.6616 C   0  0  0  0  0  0  0  0  0  0  0  0
    2.1327    1.7942    0.2611 O   0  5  0  0  0  0  0  0  0  0  0  0
    1.4172    2.7154   -1.6220 O   0  0  0  0  0  0  0  0  0  0  0  0
    0.6664   -0.1450    1.5428 C   0  0  0  0  0  0  0  0  0  0  0  0
    1.8485   -0.3724    1.8265 O   0  0  0  0  0  0  0  0  0  0  0  0
   -0.2161    0.2434    2.4686 N   0  0  0  0  0  0  0  0  0  0  0  0
   -1.1850    0.3219    2.1537 H   0  0  0  0  0  0  0  0  0  0  0  0
    0.0735    0.4128    3.8885 C   0  0  0  0  0  0  0  0  0  0  0  0
    1.0159    0.9483    4.0105 H   0  0  0  0  0  0  0  0  0  0  0  0
   -0.7315    0.9748    4.3613 H   0  0  0  0  0  0  0  0  0  0  0  0
    0.1564   -0.5677    4.3577 H   0  0  0  0  0  0  0  0  0  0  0  0
  5  6  2  0  0  0  0
  5  7  1  0  0  0  0
  2  3  1  0  0  0  0
  2  4  1  0  0  0  0
  2  5  1  0  0  0  0
  1  2  1  0  0  0  0
 17 18  2  0  0  0  0
 17 19  1  0  0  0  0
 14 15  1  0  0  0  0
 14 16  2  0  0  0  0
 11 12  1  0  0  0  0
 11 13  1  0  0  0  0
 11 14  1  0  0  0  0
  9 10  1  0  0  0  0
  9 11  1  0  0  0  0
  9 17  1  0  0  0  0
  7  8  1  0  0  0  0
  7  9  1  0  0  0  0
 21 22  1  0  0  0  0
 21 23  1  0  0  0  0
 21 24  1  0  0  0  0
 19 20  1  0  0  0  0
 19 21  1  0  0  0  0
M  CHG  1  15  -1
M  END
$$$$
default_name
  -OEChem-02102213163D

 24 23  0     1  0  0  0  0  0999 V2000
   -2.8347   -3.7166    0.8034 H   0  0  0  0  0  0  0  0  0  0  0  0
   -2.7728   -2.7096    0.3954 C   0  0  0  0  0  0  0  0  0  0  0  0
   -3.4267   -2.0426    0.9524 H   0  0  0  0  0  0  0  0  0  0  0  0
   -3.0538   -2.7186   -0.6556 H   0  0  0  0  0  0  0  0  0  0  0  0
   -1.3498   -2.2206    0.5184 C   0  0  0  0  0  0  0  0  0  0  0  0
   -0.4997   -2.9426    1.0194 O   0  0  0  0  0  0  0  0  0  0  0  0
   -1.1198   -0.9926    0.0674 N   0  0  0  0  0  0  0  0  0  0  0  0
   -1.8978   -0.4486   -0.2716 H   0  0  0  0  0  0  0  0  0  0  0  0
    0.1693   -0.2866    0.0854 C   0  0  1  0  0  0  0  0  0  0  0  0
    0.9043   -0.8713   -0.4705 H   0  0  0  0  0  0  0  0  0  0  0  0
    0.0106    1.0816   -0.6124 C   0  0  0  0  0  0  0  0  0  0  0  0
   -0.3142    0.9147   -1.6409 H   0  0  0  0  0  0  0  0  0  0  0  0
   -0.7729    1.6474   -0.1035 H   0  0  0  0  0  0  0  0  0  0  0  0
    1.2942    1.9250   -0.6616 C   0  0  0  0  0  0  0  0  0  0  0  0
    2.2512    1.6034    0.0816 O   0  5  0  0  0  0  0  0  0  0  0  0
    1.2993    2.9057   -1.4365 O   0  0  0  0  0  0  0  0  0  0  0  0
    0.6664   -0.1450    1.5428 C   0  0  0  0  0  0  0  0  0  0  0  0
    1.8485   -0.3724    1.8265 O   0  0  0  0  0  0  0  0  0  0  0  0
   -0.2161    0.2434    2.4686 N   0  0  0  0  0  0  0  0  0  0  0  0
   -1.1850    0.3219    2.1537 H   0  0  0  0  0  0  0  0  0  0  0  0
    0.0735    0.4128    3.8885 C   0  0  0  0  0  0  0  0  0  0  0  0
    1.0159    0.9483    4.0105 H   0  0  0  0  0  0  0  0  0  0  0  0
   -0.7315    0.9748    4.3613 H   0  0  0  0  0  0  0  0  0  0  0  0
    0.1564   -0.5677    4.3577 H   0  0  0  0  0  0  0  0  0  0  0  0
  5  6  2  0  0  0  0
  5  7  1  0  0  0  0
  2  3  1  0  0  0  0
  2  4  1  0  0  0  0
  2  5  1  0  0  0  0
  1  2  1  0  0  0  0
 17 18  2  0  0  0  0
 17 19  1  0  0  0  0
 14 15  1  0  0  0  0
 14 16  2  0  0  0  0
 11 12  1  0  0  0  0
 11 13  1  0  0  0  0
 11 14  1  0  0  0  0
  9 10  1  0  0  0  0
  9 11  1  0  0  0  0
  9 17  1  0  0  0  0
  7  8  1  0  0  0  0
  7  9  1  0  0  0  0
 21 22  1  0  0  0  0
 21 23  1  0  0  0  0
 21 24  1  0  0  0  0
 19 20  1  0  0  0  0
 19 21  1  0  0  0  0
M  CHG  1  15  -1
M  END
$$$$
default_name
  -OEChem-02102213163D

 24 23  0     1  0  0  0  0  0999 V2000
   -2.8347   -3.7166    0.8034 H   0  0  0  0  0  0  0  0  0  0  0  0
   -2.7728   -2.7096    0.3954 C   0  0  0  0  0  0  0  0  0  0  0  0
   -3.4267   -2.0426    0.9524 H   0  0  0  0  0  0  0  0  0  0  0  0
   -3.0538   -2.7186   -0.6556 H   0  0  0  0  0  0  0  0  0  0  0  0
   -1.3498   -2.2206    0.5184 C   0  0  0  0  0  0  0  0  0  0  0  0
   -0.4997   -2.9426    1.0194 O   0  0  0  0  0  0  0  0  0  0  0  0
   -1.1198   -0.9926    0.0674 N   0  0  0  0  0  0  0  0  0  0  0  0
   -1.8978   -0.4486   -0.2716 H   0  0  0  0  0  0  0  0  0  0  0  0
    0.1693   -0.2866    0.0854 C   0  0  1  0  0  0  0  0  0  0  0  0
    0.9043   -0.8713   -0.4705 H   0  0  0  0  0  0  0  0  0  0  0  0
    0.0106    1.0816   -0.6124 C   0  0  0  0  0  0  0  0  0  0  0  0
   -0.3142    0.9147   -1.6409 H   0  0  0  0  0  0  0  0  0  0  0  0
   -0.7729    1.6474   -0.1035 H   0  0  0  0  0  0  0  0  0  0  0  0
    1.2942    1.9250   -0.6616 C   0  0  0  0  0  0  0  0  0  0  0  0
    2.3385    1.4570   -0.1498 O   0  5  0  0  0  0  0  0  0  0  0  0
    1.2133    3.0504   -1.1994 O   0  0  0  0  0  0  0  0  0  0  0  0
    0.6664   -0.1450    1.5428 C   0  0  0  0  0  0  0  0  0  0  0  0
    1.8485   -0.3724    1.8265 O   0  0  0  0  0  0  0  0  0  0  0  0
   -0.2161    0.2434    2.4686 N   0  0  0  0  0  0  0  0  0  0  0  0
   -1.1850    0.3219    2.1537 H   0  0  0  0  0  0  0  0  0  0  0  0
    0.0735    0.4128    3.8885 C   0  0  0  0  0  0  0  0  0  0  0  0
    1.0159    0.9483    4.0105 H   0  0  0  0  0  0  0  0  0  0  0  0
   -0.7315    0.9748    4.3613 H   0  0  0  0  0  0  0  0  0  0  0  0
    0.1564   -0.5677    4.3577 H   0  0  0  0  0  0  0  0  0  0  0  0
  5  6  2  0  0  0  0
  5  7  1  0  0  0  0
  2  3  1  0  0  0  0
  2  4  1  0  0  0  0
  2  5  1  0  0  0  0
  1  2  1  0  0  0  0
 17 18  2  0  0  0  0
 17 19  1  0  0  0  0
 14 15  1  0  0  0  0
 14 16  2  0  0  0  0
 11 12  1  0  0  0  0
 11 13  1  0  0  0  0
 11 14  1  0  0  0  0
  9 10  1  0  0  0  0
  9 11  1  0  0  0  0
  9 17  1  0  0  0  0
  7  8  1  0  0  0  0
  7  9  1  0  0  0  0
 21 22  1  0  0  0  0
 21 23  1  0  0  0  0
 21 24  1  0  0  0  0
 19 20  1  0  0  0  0
 19 21  1  0  0  0  0
M  CHG  1  15  -1
M  END
$$$$
default_name
  -OEChem-02102213163D

 24 23  0     1  0  0  0  0  0999 V2000
   -2.8347   -3.7166    0.8034 H   0  0  0  0  0  0  0  0  0  0  0  0
   -2.7728   -2.7096    0.3954 C   0  0  0  0  0  0  0  0  0  0  0  0
   -3.4267   -2.0426    0.9524 H   0  0  0  0  0  0  0  0  0  0  0  0
   -3.0538   -2.7186   -0.6556 H   0  0  0  0  0  0  0  0  0  0  0  0
   -1.3498   -2.2206    0.5184 C   0  0  0  0  0  0  0  0  0  0  0  0
   -0.4997   -2.9426    1.0194 O   0  0  0  0  0  0  0  0  0  0  0  0
   -1.1198   -0.9926    0.0674 N   0  0  0  0  0  0  0  0  0  0  0  0
   -1.8978   -0.4486   -0.2716 H   0  0  0  0  0  0  0  0  0  0  0  0
    0.1693   -0.2866    0.0854 C   0  0  1  0  0  0  0  0  0  0  0  0
    0.9043   -0.8713   -0.4705 H   0  0  0  0  0  0  0  0  0  0  0  0
    0.0106    1.0816   -0.6124 C   0  0  0  0  0  0  0  0  0  0  0  0
   -0.3142    0.9147   -1.6409 H   0  0  0  0  0  0  0  0  0  0  0  0
   -0.7729    1.6474   -0.1035 H   0  0  0  0  0  0  0  0  0  0  0  0
    1.2942    1.9250   -0.6616 C   0  0  0  0  0  0  0  0  0  0  0  0
    2.3888    1.3648   -0.4175 O   0  5  0  0  0  0  0  0  0  0  0  0
    1.1652    3.1396   -0.9269 O   0  0  0  0  0  0  0  0  0  0  0  0
    0.6664   -0.1450    1.5428 C   0  0  0  0  0  0  0  0  0  0  0  0
    1.8485   -0.3724    1.8265 O   0  0  0  0  0  0  0  0  0  0  0  0
   -0.2161    0.2434    2.4686 N   0  0  0  0  0  0  0  0  0  0  0  0
   -1.1850    0.3219    2.1537 H   0  0  0  0  0  0  0  0  0  0  0  0
    0.0735    0.4128    3.8885 C   0  0  0  0  0  0  0  0  0  0  0  0
    1.0159    0.9483    4.0105 H   0  0  0  0  0  0  0  0  0  0  0  0
   -0.7315    0.9748    4.3613 H   0  0  0  0  0  0  0  0  0  0  0  0
    0.1564   -0.5677    4.3577 H   0  0  0  0  0  0  0  0  0  0  0  0
  5  6  2  0  0  0  0
  5  7  1  0  0  0  0
  2  3  1  0  0  0  0
  2  4  1  0  0  0  0
  2  5  1  0  0  0  0
  1  2  1  0  0  0  0
 17 18  2  0  0  0  0
 17 19  1  0  0  0  0
 14 15  1  0  0  0  0
 14 16  2  0  0  0  0
 11 12  1  0  0  0  0
 11 13  1  0  0  0  0
 11 14  1  0  0  0  0
  9 10  1  0  0  0  0
  9 11  1  0  0  0  0
  9 17  1  0  0  0  0
  7  8  1  0  0  0  0
  7  9  1  0  0  0  0
 21 22  1  0  0  0  0
 21 23  1  0  0  0  0
 21 24  1  0  0  0  0
 19 20  1  0  0  0  0
 19 21  1  0  0  0  0
M  CHG  1  15  -1
M  END
$$$$
default_name
  -OEChem-02102213163D

 24 23  0     1  0  0  0  0  0999 V2000
   -2.8347   -3.7166    0.8034 H   0  0  0  0  0  0  0  0  0  0  0  0
   -2.7728   -2.7096    0.3954 C   0  0  0  0  0  0  0  0  0  0  0  0
   -3.4267   -2.0426    0.9524 H   0  0  0  0  0  0  0  0  0  0  0  0
   -3.0538   -2.7186   -0.6556 H   0  0  0  0  0  0  0  0  0  0  0  0
   -1.3498   -2.2206    0.5184 C   0  0  0  0  0  0  0  0  0  0  0  0
   -0.4997   -2.9426    1.0194 O   0  0  0  0  0  0  0  0  0  0  0  0
   -1.1198   -0.9926    0.0674 N   0  0  0  0  0  0  0  0  0  0  0  0
   -1.8978   -0.4486   -0.2716 H   0  0  0  0  0  0  0  0  0  0  0  0
    0.1693   -0.2866    0.0854 C   0  0  1  0  0  0  0  0  0  0  0  0
    0.9043   -0.8713   -0.4705 H   0  0  0  0  0  0  0  0  0  0  0  0
    0.0106    1.0816   -0.6124 C   0  0  0  0  0  0  0  0  0  0  0  0
   -0.3142    0.9147   -1.6409 H   0  0  0  0  0  0  0  0  0  0  0  0
   -0.7729    1.6474   -0.1035 H   0  0  0  0  0  0  0  0  0  0  0  0
    1.2942    1.9250   -0.6616 C   0  0  0  0  0  0  0  0  0  0  0  0
    2.3986    1.3333   -0.7030 O   0  5  0  0  0  0  0  0  0  0  0  0
    1.1581    3.1672   -0.6376 O   0  0  0  0  0  0  0  0  0  0  0  0
    0.6664   -0.1450    1.5428 C   0  0  0  0  0  0  0  0  0  0  0  0
    1.8485   -0.3724    1.8265 O   0  0  0  0  0  0  0  0  0  0  0  0
   -0.2161    0.2434    2.4686 N   0  0  0  0  0  0  0  0  0  0  0  0
   -1.1850    0.3219    2.1537 H   0  0  0  0  0  0  0  0  0  0  0  0
    0.0735    0.4128    3.8885 C   0  0  0  0  0  0  0  0  0  0  0  0
    1.0159    0.9483    4.0105 H   0  0  0  0  0  0  0  0  0  0  0  0
   -0.7315    0.9748    4.3613 H   0  0  0  0  0  0  0  0  0  0  0  0
    0.1564   -0.5677    4.3577 H   0  0  0  0  0  0  0  0  0  0  0  0
  5  6  2  0  0  0  0
  5  7  1  0  0  0  0
  2  3  1  0  0  0  0
  2  4  1  0  0  0  0
  2  5  1  0  0  0  0
  1  2  1  0  0  0  0
 17 18  2  0  0  0  0
 17 19  1  0  0  0  0
 14 15  1  0  0  0  0
 14 16  2  0  0  0  0
 11 12  1  0  0  0  0
 11 13  1  0  0  0  0
 11 14  1  0  0  0  0
  9 10  1  0  0  0  0
  9 11  1  0  0  0  0
  9 17  1  0  0  0  0
  7  8  1  0  0  0  0
  7  9  1  0  0  0  0
 21 22  1  0  0  0  0
 21 23  1  0  0  0  0
 21 24  1  0  0  0  0
 19 20  1  0  0  0  0
 19 21  1  0  0  0  0
M  CHG  1  15  -1
M  END
$$$$
default_name
  -OEChem-02102213163D

 24 23  0     1  0  0  0  0  0999 V2000
   -2.8347   -3.7166    0.8034 H   0  0  0  0  0  0  0  0  0  0  0  0
   -2.7728   -2.7096    0.3954 C   0  0  0  0  0  0  0  0  0  0  0  0
   -3.4267   -2.0426    0.9524 H   0  0  0  0  0  0  0  0  0  0  0  0
   -3.0538   -2.7186   -0.6556 H   0  0  0  0  0  0  0  0  0  0  0  0
   -1.3498   -2.2206    0.5184 C   0  0  0  0  0  0  0  0  0  0  0  0
   -0.4997   -2.9426    1.0194 O   0  0  0  0  0  0  0  0  0  0  0  0
   -1.1198   -0.9926    0.0674 N   0  0  0  0  0  0  0  0  0  0  0  0
   -1.8978   -0.4486   -0.2716 H   0  0  0  0  0  0  0  0  0  0  0  0
    0.1693   -0.2866    0.0854 C   0  0  1  0  0  0  0  0  0  0  0  0
    0.9043   -0.8713   -0.4705 H   0  0  0  0  0  0  0  0  0  0  0  0
    0.0106    1.0816   -0.6124 C   0  0  0  0  0  0  0  0  0  0  0  0
   -0.3142    0.9147   -1.6409 H   0  0  0  0  0  0  0  0  0  0  0  0
   -0.7729    1.6474   -0.1035 H   0  0  0  0  0  0  0  0  0  0  0  0
    1.2942    1.9250   -0.6616 C   0  0  0  0  0  0  0  0  0  0  0  0
    2.3672    1.3645   -0.9871 O   0  5  0  0  0  0  0  0  0  0  0  0
    1.1925    3.1315   -0.3512 O   0  0  0  0  0  0  0  0  0  0  0  0
    0.6664   -0.1450    1.5428 C   0  0  0  0  0  0  0  0  0  0  0  0
    1.8485   -0.3724    1.8265 O   0  0  0  0  0  0  0  0  0  0  0  0
   -0.2161    0.2434    2.4686 N   0  0  0  0  0  0  0  0  0  0  0  0
   -1.1850    0.3219    2.1537 H   0  0  0  0  0  0  0  0  0  0  0  0
    0.0735    0.4128    3.8885 C   0  0  0  0  0  0  0  0  0  0  0  0
    1.0159    0.9483    4.0105 H   0  0  0  0  0  0  0  0  0  0  0  0
   -0.7315    0.9748    4.3613 H   0  0  0  0  0  0  0  0  0  0  0  0
    0.1564   -0.5677    4.3577 H   0  0  0  0  0  0  0  0  0  0  0  0
  5  6  2  0  0  0  0
  5  7  1  0  0  0  0
  2  3  1  0  0  0  0
  2  4  1  0  0  0  0
  2  5  1  0  0  0  0
  1  2  1  0  0  0  0
 17 18  2  0  0  0  0
 17 19  1  0  0  0  0
 14 15  1  0  0  0  0
 14 16  2  0  0  0  0
 11 12  1  0  0  0  0
 11 13  1  0  0  0  0
 11 14  1  0  0  0  0
  9 10  1  0  0  0  0
  9 11  1  0  0  0  0
  9 17  1  0  0  0  0
  7  8  1  0  0  0  0
  7  9  1  0  0  0  0
 21 22  1  0  0  0  0
 21 23  1  0  0  0  0
 21 24  1  0  0  0  0
 19 20  1  0  0  0  0
 19 21  1  0  0  0  0
M  CHG  1  15  -1
M  END
$$$$
default_name
  -OEChem-02102213163D

 24 23  0     1  0  0  0  0  0999 V2000
   -2.8347   -3.7166    0.8034 H   0  0  0  0  0  0  0  0  0  0  0  0
   -2.7728   -2.7096    0.3954 C   0  0  0  0  0  0  0  0  0  0  0  0
   -3.4267   -2.0426    0.9524 H   0  0  0  0  0  0  0  0  0  0  0  0
   -3.0538   -2.7186   -0.6556 H   0  0  0  0  0  0  0  0  0  0  0  0
   -1.3498   -2.2206    0.5184 C   0  0  0  0  0  0  0  0  0  0  0  0
   -0.4997   -2.9426    1.0194 O   0  0  0  0  0  0  0  0  0  0  0  0
   -1.1198   -0.9926    0.0674 N   0  0  0  0  0  0  0  0  0  0  0  0
   -1.8978   -0.4486   -0.2716 H   0  0  0  0  0  0  0  0  0  0  0  0
    0.1693   -0.2866    0.0854 C   0  0  1  0  0  0  0  0  0  0  0  0
    0.9043   -0.8713   -0.4705 H   0  0  0  0  0  0  0  0  0  0  0  0
    0.0106    1.0816   -0.6124 C   0  0  0  0  0  0  0  0  0  0  0  0
   -0.3142    0.9147   -1.6409 H   0  0  0  0  0  0  0  0  0  0  0  0
   -0.7729    1.6474   -0.1035 H   0  0  0  0  0  0  0  0  0  0  0  0
    1.2942    1.9250   -0.6616 C   0  0  0  0  0  0  0  0  0  0  0  0
    2.2968    1.4563   -1.2503 O   0  5  0  0  0  0  0  0  0  0  0  0
    1.2662    3.0347   -0.0871 O   0  0  0  0  0  0  0  0  0  0  0  0
    0.6664   -0.1450    1.5428 C   0  0  0  0  0  0  0  0  0  0  0  0
    1.8485   -0.3724    1.8265 O   0  0  0  0  0  0  0  0  0  0  0  0
   -0.2161    0.2434    2.4686 N   0  0  0  0  0  0  0  0  0  0  0  0
   -1.1850    0.3219    2.1537 H   0  0  0  0  0  0  0  0  0  0  0  0
    0.0735    0.4128    3.8885 C   0  0  0  0  0  0  0  0  0  0  0  0
    1.0159    0.9483    4.0105 H   0  0  0  0  0  0  0  0  0  0  0  0
   -0.7315    0.9748    4.3613 H   0  0  0  0  0  0  0  0  0  0  0  0
    0.1564   -0.5677    4.3577 H   0  0  0  0  0  0  0  0  0  0  0  0
  5  6  2  0  0  0  0
  5  7  1  0  0  0  0
  2  3  1  0  0  0  0
  2  4  1  0  0  0  0
  2  5  1  0  0  0  0
  1  2  1  0  0  0  0
 17 18  2  0  0  0  0
 17 19  1  0  0  0  0
 14 15  1  0  0  0  0
 14 16  2  0  0  0  0
 11 12  1  0  0  0  0
 11 13  1  0  0  0  0
 11 14  1  0  0  0  0
  9 10  1  0  0  0  0
  9 11  1  0  0  0  0
  9 17  1  0  0  0  0
  7  8  1  0  0  0  0
  7  9  1  0  0  0  0
 21 22  1  0  0  0  0
 21 23  1  0  0  0  0
 21 24  1  0  0  0  0
 19 20  1  0  0  0  0
 19 21  1  0  0  0  0
M  CHG  1  15  -1
M  END
$$$$
default_name
  -OEChem-02102213163D

 24 23  0     1  0  0  0  0  0999 V2000
   -2.8347   -3.7166    0.8034 H   0  0  0  0  0  0  0  0  0  0  0  0
   -2.7728   -2.7096    0.3954 C   0  0  0  0  0  0  0  0  0  0  0  0
   -3.4267   -2.0426    0.9524 H   0  0  0  0  0  0  0  0  0  0  0  0
   -3.0538   -2.7186   -0.6556 H   0  0  0  0  0  0  0  0  0  0  0  0
   -1.3498   -2.2206    0.5184 C   0  0  0  0  0  0  0  0  0  0  0  0
   -0.4997   -2.9426    1.0194 O   0  0  0  0  0  0  0  0  0  0  0  0
   -1.1198   -0.9926    0.0674 N   0  0  0  0  0  0  0  0  0  0  0  0
   -1.8978   -0.4486   -0.2716 H   0  0  0  0  0  0  0  0  0  0  0  0
    0.1693   -0.2866    0.0854 C   0  0  1  0  0  0  0  0  0  0  0  0
    0.9043   -0.8713   -0.4705 H   0  0  0  0  0  0  0  0  0  0  0  0
    0.0106    1.0816   -0.6124 C   0  0  0  0  0  0  0  0  0  0  0  0
   -0.3142    0.9147   -1.6409 H   0  0  0  0  0  0  0  0  0  0  0  0
   -0.7729    1.6474   -0.1035 H   0  0  0  0  0  0  0  0  0  0  0  0
    1.2942    1.9250   -0.6616 C   0  0  0  0  0  0  0  0  0  0  0  0
    2.1922    1.6024   -1.4747 O   0  5  0  0  0  0  0  0  0  0  0  0
    1.3741    2.8835    0.1366 O   0  0  0  0  0  0  0  0  0  0  0  0
    0.6664   -0.1450    1.5428 C   0  0  0  0  0  0  0  0  0  0  0  0
    1.8485   -0.3724    1.8265 O   0  0  0  0  0  0  0  0  0  0  0  0
   -0.2161    0.2434    2.4686 N   0  0  0  0  0  0  0  0  0  0  0  0
   -1.1850    0.3219    2.1537 H   0  0  0  0  0  0  0  0  0  0  0  0
    0.0735    0.4128    3.8885 C   0  0  0  0  0  0  0  0  0  0  0  0
    1.0159    0.9483    4.0105 H   0  0  0  0  0  0  0  0  0  0  0  0
   -0.7315    0.9748    4.3613 H   0  0  0  0  0  0  0  0  0  0  0  0
    0.1564   -0.5677    4.3577 H   0  0  0  0  0  0  0  0  0  0  0  0
  5  6  2  0  0  0  0
  5  7  1  0  0  0  0
  2  3  1  0  0  0  0
  2  4  1  0  0  0  0
  2  5  1  0  0  0  0
  1  2  1  0  0  0  0
 17 18  2  0  0  0  0
 17 19  1  0  0  0  0
 14 15  1  0  0  0  0
 14 16  2  0  0  0  0
 11 12  1  0  0  0  0
 11 13  1  0  0  0  0
 11 14  1  0  0  0  0
  9 10  1  0  0  0  0
  9 11  1  0  0  0  0
  9 17  1  0  0  0  0
  7  8  1  0  0  0  0
  7  9  1  0  0  0  0
 21 22  1  0  0  0  0
 21 23  1  0  0  0  0
 21 24  1  0  0  0  0
 19 20  1  0  0  0  0
 19 21  1  0  0  0  0
M  CHG  1  15  -1
M  END
$$$$
default_name
  -OEChem-02102213163D

 24 23  0     1  0  0  0  0  0999 V2000
   -2.8347   -3.7166    0.8034 H   0  0  0  0  0  0  0  0  0  0  0  0
   -2.7728   -2.7096    0.3954 C   0  0  0  0  0  0  0  0  0  0  0  0
   -3.4267   -2.0426    0.9524 H   0  0  0  0  0  0  0  0  0  0  0  0
   -3.0538   -2.7186   -0.6556 H   0  0  0  0  0  0  0  0  0  0  0  0
   -1.3498   -2.2206    0.5184 C   0  0  0  0  0  0  0  0  0  0  0  0
   -0.4997   -2.9426    1.0194 O   0  0  0  0  0  0  0  0  0  0  0  0
   -1.1198   -0.9926    0.0674 N   0  0  0  0  0  0  0  0  0  0  0  0
   -1.8978   -0.4486   -0.2716 H   0  0  0  0  0  0  0  0  0  0  0  0
    0.1693   -0.2866    0.0854 C   0  0  1  0  0  0  0  0  0  0  0  0
    0.9043   -0.8713   -0.4705 H   0  0  0  0  0  0  0  0  0  0  0  0
    0.0106    1.0816   -0.6124 C   0  0  0  0  0  0  0  0  0  0  0  0
   -0.3142    0.9147   -1.6409 H   0  0  0  0  0  0  0  0  0  0  0  0
   -0.7729    1.6474   -0.1035 H   0  0  0  0  0  0  0  0  0  0  0  0
    1.2942    1.9250   -0.6616 C   0  0  0  0  0  0  0  0  0  0  0  0
    2.0605    1.7929   -1.6449 O   0  5  0  0  0  0  0  0  0  0  0  0
    1.5089    2.6883    0.3046 O   0  0  0  0  0  0  0  0  0  0  0  0
    0.6664   -0.1450    1.5428 C   0  0  0  0  0  0  0  0  0  0  0  0
    1.8485   -0.3724    1.8265 O   0  0  0  0  0  0  0  0  0  0  0  0
   -0.2161    0.2434    2.4686 N   0  0  0  0  0  0  0  0  0  0  0  0
   -1.1850    0.3219    2.1537 H   0  0  0  0  0  0  0  0  0  0  0  0
    0.0735    0.4128    3.8885 C   0  0  0  0  0  0  0  0  0  0  0  0
    1.0159    0.9483    4.0105 H   0  0  0  0  0  0  0  0  0  0  0  0
   -0.7315    0.9748    4.3613 H   0  0  0  0  0  0  0  0  0  0  0  0
    0.1564   -0.5677    4.3577 H   0  0  0  0  0  0  0  0  0  0  0  0
  5  6  2  0  0  0  0
  5  7  1  0  0  0  0
  2  3  1  0  0  0  0
  2  4  1  0  0  0  0
  2  5  1  0  0  0  0
  1  2  1  0  0  0  0
 17 18  2  0  0  0  0
 17 19  1  0  0  0  0
 14 15  1  0  0  0  0
 14 16  2  0  0  0  0
 11 12  1  0  0  0  0
 11 13  1  0  0  0  0
 11 14  1  0  0  0  0
  9 10  1  0  0  0  0
  9 11  1  0  0  0  0
  9 17  1  0  0  0  0
  7  8  1  0  0  0  0
  7  9  1  0  0  0  0
 21 22  1  0  0  0  0
 21 23  1  0  0  0  0
 21 24  1  0  0  0  0
 19 20  1  0  0  0  0
 19 21  1  0  0  0  0
M  CHG  1  15  -1
M  END
$$$$
default_name
  -OEChem-02102213163D

 24 23  0     1  0  0  0  0  0999 V2000
   -2.8347   -3.7166    0.8034 H   0  0  0  0  0  0  0  0  0  0  0  0
   -2.7728   -2.7096    0.3954 C   0  0  0  0  0  0  0  0  0  0  0  0
   -3.4267   -2.0426    0.9524 H   0  0  0  0  0  0  0  0  0  0  0  0
   -3.0538   -2.7186   -0.6556 H   0  0  0  0  0  0  0  0  0  0  0  0
   -1.3498   -2.2206    0.5184 C   0  0  0  0  0  0  0  0  0  0  0  0
   -0.4997   -2.9426    1.0194 O   0  0  0  0  0  0  0  0  0  0  0  0
   -1.1198   -0.9926    0.0674 N   0  0  0  0  0  0  0  0  0  0  0  0
   -1.8978   -0.4486   -0.2716 H   0  0  0  0  0  0  0  0  0  0  0  0
    0.1693   -0.2866    0.0854 C   0  0  1  0  0  0  0  0  0  0  0  0
    0.9043   -0.8713   -0.4705 H   0  0  0  0  0  0  0  0  0  0  0  0
    0.0106    1.0816   -0.6124 C   0  0  0  0  0  0  0  0  0  0  0  0
   -0.3142    0.9147   -1.6409 H   0  0  0  0  0  0  0  0  0  0  0  0
   -0.7729    1.6474   -0.1035 H   0  0  0  0  0  0  0  0  0  0  0  0
    1.2942    1.9250   -0.6616 C   0  0  0  0  0  0  0  0  0  0  0  0
    1.9106    2.0149   -1.7495 O   0  5  0  0  0  0  0  0  0  0  0  0
    1.6613    2.4622    0.4056 O   0  0  0  0  0  0  0  0  0  0  0  0
    0.6664   -0.1450    1.5428 C   0  0  0  0  0  0  0  0  0  0  0  0
    1.8485   -0.3724    1.8265 O   0  0  0  0  0  0  0  0  0  0  0  0
   -0.2161    0.2434    2.4686 N   0  0  0  0  0  0  0  0  0  0  0  0
   -1.1850    0.3219    2.1537 H   0  0  0  0  0  0  0  0  0  0  0  0
    0.0735    0.4128    3.8885 C   0  0  0  0  0  0  0  0  0  0  0  0
    1.0159    0.9483    4.0105 H   0  0  0  0  0  0  0  0  0  0  0  0
   -0.7315    0.9748    4.3613 H   0  0  0  0  0  0  0  0  0  0  0  0
    0.1564   -0.5677    4.3577 H   0  0  0  0  0  0  0  0  0  0  0  0
  5  6  2  0  0  0  0
  5  7  1  0  0  0  0
  2  3  1  0  0  0  0
  2  4  1  0  0  0  0
  2  5  1  0  0  0  0
  1  2  1  0  0  0  0
 17 18  2  0  0  0  0
 17 19  1  0  0  0  0
 14 15  1  0  0  0  0
 14 16  2  0  0  0  0
 11 12  1  0  0  0  0
 11 13  1  0  0  0  0
 11 14  1  0  0  0  0
  9 10  1  0  0  0  0
  9 11  1  0  0  0  0
  9 17  1  0  0  0  0
  7  8  1  0  0  0  0
  7  9  1  0  0  0  0
 21 22  1  0  0  0  0
 21 23  1  0  0  0  0
 21 24  1  0  0  0  0
 19 20  1  0  0  0  0
 19 21  1  0  0  0  0
M  CHG  1  15  -1
M  END
$$$$
default_name
  -OEChem-02102213163D

 24 23  0     1  0  0  0  0  0999 V2000
   -2.8347   -3.7166    0.8034 H   0  0  0  0  0  0  0  0  0  0  0  0
   -2.7728   -2.7096    0.3954 C   0  0  0  0  0  0  0  0  0  0  0  0
   -3.4267   -2.0426    0.9524 H   0  0  0  0  0  0  0  0  0  0  0  0
   -3.0538   -2.7186   -0.6556 H   0  0  0  0  0  0  0  0  0  0  0  0
   -1.3498   -2.2206    0.5184 C   0  0  0  0  0  0  0  0  0  0  0  0
   -0.4997   -2.9426    1.0194 O   0  0  0  0  0  0  0  0  0  0  0  0
   -1.1198   -0.9926    0.0674 N   0  0  0  0  0  0  0  0  0  0  0  0
   -1.8978   -0.4486   -0.2716 H   0  0  0  0  0  0  0  0  0  0  0  0
    0.1693   -0.2866    0.0854 C   0  0  1  0  0  0  0  0  0  0  0  0
    0.9043   -0.8713   -0.4705 H   0  0  0  0  0  0  0  0  0  0  0  0
    0.0106    1.0816   -0.6124 C   0  0  0  0  0  0  0  0  0  0  0  0
   -0.3142    0.9147   -1.6409 H   0  0  0  0  0  0  0  0  0  0  0  0
   -0.7729    1.6474   -0.1035 H   0  0  0  0  0  0  0  0  0  0  0  0
    1.2942    1.9250   -0.6616 C   0  0  0  0  0  0  0  0  0  0  0  0
    1.7529    2.2531   -1.7812 O   0  5  0  0  0  0  0  0  0  0  0  0
    1.8210    2.2207    0.4326 O   0  0  0  0  0  0  0  0  0  0  0  0
    0.6664   -0.1450    1.5428 C   0  0  0  0  0  0  0  0  0  0  0  0
    1.8485   -0.3724    1.8265 O   0  0  0  0  0  0  0  0  0  0  0  0
   -0.2161    0.2434    2.4686 N   0  0  0  0  0  0  0  0  0  0  0  0
   -1.1850    0.3219    2.1537 H   0  0  0  0  0  0  0  0  0  0  0  0
    0.0735    0.4128    3.8885 C   0  0  0  0  0  0  0  0  0  0  0  0
    1.0159    0.9483    4.0105 H   0  0  0  0  0  0  0  0  0  0  0  0
   -0.7315    0.9748    4.3613 H   0  0  0  0  0  0  0  0  0  0  0  0
    0.1564   -0.5677    4.3577 H   0  0  0  0  0  0  0  0  0  0  0  0
  5  6  2  0  0  0  0
  5  7  1  0  0  0  0
  2  3  1  0  0  0  0
  2  4  1  0  0  0  0
  2  5  1  0  0  0  0
  1  2  1  0  0  0  0
 17 18  2  0  0  0  0
 17 19  1  0  0  0  0
 14 15  1  0  0  0  0
 14 16  2  0  0  0  0
 11 12  1  0  0  0  0
 11 13  1  0  0  0  0
 11 14  1  0  0  0  0
  9 10  1  0  0  0  0
  9 11  1  0  0  0  0
  9 17  1  0  0  0  0
  7  8  1  0  0  0  0
  7  9  1  0  0  0  0
 21 22  1  0  0  0  0
 21 23  1  0  0  0  0
 21 24  1  0  0  0  0
 19 20  1  0  0  0  0
 19 21  1  0  0  0  0
M  CHG  1  15  -1
M  END
$$$$
default_name
  -OEChem-02102213163D

 24 23  0     1  0  0  0  0  0999 V2000
   -2.8347   -3.7166    0.8034 H   0  0  0  0  0  0  0  0  0  0  0  0
   -2.7728   -2.7096    0.3954 C   0  0  0  0  0  0  0  0  0  0  0  0
   -3.4267   -2.0426    0.9524 H   0  0  0  0  0  0  0  0  0  0  0  0
   -3.0538   -2.7186   -0.6556 H   0  0  0  0  0  0  0  0  0  0  0  0
   -1.3498   -2.2206    0.5184 C   0  0  0  0  0  0  0  0  0  0  0  0
   -0.4997   -2.9426    1.0194 O   0  0  0  0  0  0  0  0  0  0  0  0
   -1.1198   -0.9926    0.0674 N   0  0  0  0  0  0  0  0  0  0  0  0
   -1.8978   -0.4486   -0.2716 H   0  0  0  0  0  0  0  0  0  0  0  0
    0.1693   -0.2866    0.0854 C   0  0  1  0  0  0  0  0  0  0  0  0
    0.9043   -0.8713   -0.4705 H   0  0  0  0  0  0  0  0  0  0  0  0
    0.0106    1.0816   -0.6124 C   0  0  0  0  0  0  0  0  0  0  0  0
   -0.3142    0.9147   -1.6409 H   0  0  0  0  0  0  0  0  0  0  0  0
   -0.7729    1.6474   -0.1035 H   0  0  0  0  0  0  0  0  0  0  0  0
    1.2942    1.9250   -0.6616 C   0  0  0  0  0  0  0  0  0  0  0  0
    1.5980    2.4914   -1.7380 O   0  5  0  0  0  0  0  0  0  0  0  0
    1.9770    1.9804    0.3838 O   0  0  0  0  0  0  0  0  0  0  0  0
    0.6664   -0.1450    1.5428 C   0  0  0  0  0  0  0  0  0  0  0  0
    1.8485   -0.3724    1.8265 O   0  0  0  0  0  0  0  0  0  0  0  0
   -0.2161    0.2434    2.4686 N   0  0  0  0  0  0  0  0  0  0  0  0
   -1.1850    0.3219    2.1537 H   0  0  0  0  0  0  0  0  0  0  0  0
    0.0735    0.4128    3.8885 C   0  0  0  0  0  0  0  0  0  0  0  0
    1.0159    0.9483    4.0105 H   0  0  0  0  0  0  0  0  0  0  0  0
   -0.7315    0.9748    4.3613 H   0  0  0  0  0  0  0  0  0  0  0  0
    0.1564   -0.5677    4.3577 H   0  0  0  0  0  0  0  0  0  0  0  0
  5  6  2  0  0  0  0
  5  7  1  0  0  0  0
  2  3  1  0  0  0  0
  2  4  1  0  0  0  0
  2  5  1  0  0  0  0
  1  2  1  0  0  0  0
 17 18  2  0  0  0  0
 17 19  1  0  0  0  0
 14 15  1  0  0  0  0
 14 16  2  0  0  0  0
 11 12  1  0  0  0  0
 11 13  1  0  0  0  0
 11 14  1  0  0  0  0
  9 10  1  0  0  0  0
  9 11  1  0  0  0  0
  9 17  1  0  0  0  0
  7  8  1  0  0  0  0
  7  9  1  0  0  0  0
 21 22  1  0  0  0  0
 21 23  1  0  0  0  0
 21 24  1  0  0  0  0
 19 20  1  0  0  0  0
 19 21  1  0  0  0  0
M  CHG  1  15  -1
M  END
$$$$
default_name
  -OEChem-02102213163D

 24 23  0     1  0  0  0  0  0999 V2000
   -2.8347   -3.7166    0.8034 H   0  0  0  0  0  0  0  0  0  0  0  0
   -2.7728   -2.7096    0.3954 C   0  0  0  0  0  0  0  0  0  0  0  0
   -3.4267   -2.0426    0.9524 H   0  0  0  0  0  0  0  0  0  0  0  0
   -3.0538   -2.7186   -0.6556 H   0  0  0  0  0  0  0  0  0  0  0  0
   -1.3498   -2.2206    0.5184 C   0  0  0  0  0  0  0  0  0  0  0  0
   -0.4997   -2.9426    1.0194 O   0  0  0  0  0  0  0  0  0  0  0  0
   -1.1198   -0.9926    0.0674 N   0  0  0  0  0  0  0  0  0  0  0  0
   -1.8978   -0.4486   -0.2716 H   0  0  0  0  0  0  0  0  0  0  0  0
    0.1693   -0.2866    0.0854 C   0  0  1  0  0  0  0  0  0  0  0  0
    0.9043   -0.8713   -0.4705 H   0  0  0  0  0  0  0  0  0  0  0  0
    0.0106    1.0816   -0.6124 C   0  0  0  0  0  0  0  0  0  0  0  0
   -0.3142    0.9147   -1.6409 H   0  0  0  0  0  0  0  0  0  0  0  0
   -0.7729    1.6474   -0.1035 H   0  0  0  0  0  0  0  0  0  0  0  0
    1.2942    1.9250   -0.6616 C   0  0  0  0  0  0  0  0  0  0  0  0
    1.4565    2.7135   -1.6226 O   0  5  0  0  0  0  0  0  0  0  0  0
    2.1189    1.7574    0.2625 O   0  0  0  0  0  0  0  0  0  0  0  0
    0.6664   -0.1450    1.5428 C   0  0  0  0  0  0  0  0  0  0  0  0
    1.8485   -0.3724    1.8265 O   0  0  0  0  0  0  0  0  0  0  0  0
   -0.2161    0.2434    2.4686 N   0  0  0  0  0  0  0  0  0  0  0  0
   -1.1850    0.3219    2.1537 H   0  0  0  0  0  0  0  0  0  0  0  0
    0.0735    0.4128    3.8885 C   0  0  0  0  0  0  0  0  0  0  0  0
    1.0159    0.9483    4.0105 H   0  0  0  0  0  0  0  0  0  0  0  0
   -0.7315    0.9748    4.3613 H   0  0  0  0  0  0  0  0  0  0  0  0
    0.1564   -0.5677    4.3577 H   0  0  0  0  0  0  0  0  0  0  0  0
  5  6  2  0  0  0  0
  5  7  1  0  0  0  0
  2  3  1  0  0  0  0
  2  4  1  0  0  0  0
  2  5  1  0  0  0  0
  1  2  1  0  0  0  0
 17 18  2  0  0  0  0
 17 19  1  0  0  0  0
 14 15  1  0  0  0  0
 14 16  2  0  0  0  0
 11 12  1  0  0  0  0
 11 13  1  0  0  0  0
 11 14  1  0  0  0  0
  9 10  1  0  0  0  0
  9 11  1  0  0  0  0
  9 17  1  0  0  0  0
  7  8  1  0  0  0  0
  7  9  1  0  0  0  0
 21 22  1  0  0  0  0
 21 23  1  0  0  0  0
 21 24  1  0  0  0  0
 19 20  1  0  0  0  0
 19 21  1  0  0  0  0
M  CHG  1  15  -1
M  END
$$$$
default_name
  -OEChem-02102213163D

 24 23  0     1  0  0  0  0  0999 V2000
   -2.8347   -3.7166    0.8034 H   0  0  0  0  0  0  0  0  0  0  0  0
   -2.7728   -2.7096    0.3954 C   0  0  0  0  0  0  0  0  0  0  0  0
   -3.4267   -2.0426    0.9524 H   0  0  0  0  0  0  0  0  0  0  0  0
   -3.0538   -2.7186   -0.6556 H   0  0  0  0  0  0  0  0  0  0  0  0
   -1.3498   -2.2206    0.5184 C   0  0  0  0  0  0  0  0  0  0  0  0
   -0.4997   -2.9426    1.0194 O   0  0  0  0  0  0  0  0  0  0  0  0
   -1.1198   -0.9926    0.0674 N   0  0  0  0  0  0  0  0  0  0  0  0
   -1.8978   -0.4486   -0.2716 H   0  0  0  0  0  0  0  0  0  0  0  0
    0.1693   -0.2866    0.0854 C   0  0  1  0  0  0  0  0  0  0  0  0
    0.9043   -0.8713   -0.4705 H   0  0  0  0  0  0  0  0  0  0  0  0
    0.0106    1.0816   -0.6124 C   0  0  0  0  0  0  0  0  0  0  0  0
   -0.3142    0.9147   -1.6409 H   0  0  0  0  0  0  0  0  0  0  0  0
   -0.7729    1.6474   -0.1035 H   0  0  0  0  0  0  0  0  0  0  0  0
    1.2942    1.9250   -0.6616 C   0  0  0  0  0  0  0  0  0  0  0  0
    1.3380    2.9043   -1.4431 O   0  5  0  0  0  0  0  0  0  0  0  0
    2.2368    1.5671    0.0770 O   0  0  0  0  0  0  0  0  0  0  0  0
    0.6664   -0.1450    1.5428 C   0  0  0  0  0  0  0  0  0  0  0  0
    1.8485   -0.3724    1.8265 O   0  0  0  0  0  0  0  0  0  0  0  0
   -0.2161    0.2434    2.4686 N   0  0  0  0  0  0  0  0  0  0  0  0
   -1.1850    0.3219    2.1537 H   0  0  0  0  0  0  0  0  0  0  0  0
    0.0735    0.4128    3.8885 C   0  0  0  0  0  0  0  0  0  0  0  0
    1.0159    0.9483    4.0105 H   0  0  0  0  0  0  0  0  0  0  0  0
   -0.7315    0.9748    4.3613 H   0  0  0  0  0  0  0  0  0  0  0  0
    0.1564   -0.5677    4.3577 H   0  0  0  0  0  0  0  0  0  0  0  0
  5  6  2  0  0  0  0
  5  7  1  0  0  0  0
  2  3  1  0  0  0  0
  2  4  1  0  0  0  0
  2  5  1  0  0  0  0
  1  2  1  0  0  0  0
 17 18  2  0  0  0  0
 17 19  1  0  0  0  0
 14 15  1  0  0  0  0
 14 16  2  0  0  0  0
 11 12  1  0  0  0  0
 11 13  1  0  0  0  0
 11 14  1  0  0  0  0
  9 10  1  0  0  0  0
  9 11  1  0  0  0  0
  9 17  1  0  0  0  0
  7  8  1  0  0  0  0
  7  9  1  0  0  0  0
 21 22  1  0  0  0  0
 21 23  1  0  0  0  0
 21 24  1  0  0  0  0
 19 20  1  0  0  0  0
 19 21  1  0  0  0  0
M  CHG  1  15  -1
M  END
$$$$
default_name
  -OEChem-02102213163D

 24 23  0     1  0  0  0  0  0999 V2000
   -2.8347   -3.7166    0.8034 H   0  0  0  0  0  0  0  0  0  0  0  0
   -2.7728   -2.7096    0.3954 C   0  0  0  0  0  0  0  0  0  0  0  0
   -3.4267   -2.0426    0.9524 H   0  0  0  0  0  0  0  0  0  0  0  0
   -3.0538   -2.7186   -0.6556 H   0  0  0  0  0  0  0  0  0  0  0  0
   -1.3498   -2.2206    0.5184 C   0  0  0  0  0  0  0  0  0  0  0  0
   -0.4997   -2.9426    1.0194 O   0  0  0  0  0  0  0  0  0  0  0  0
   -1.1198   -0.9926    0.0674 N   0  0  0  0  0  0  0  0  0  0  0  0
   -1.8978   -0.4486   -0.2716 H   0  0  0  0  0  0  0  0  0  0  0  0
    0.1693   -0.2866    0.0854 C   0  0  1  0  0  0  0  0  0  0  0  0
    0.9043   -0.8713   -0.4705 H   0  0  0  0  0  0  0  0  0  0  0  0
    0.0106    1.0816   -0.6124 C   0  0  0  0  0  0  0  0  0  0  0  0
   -0.5598    0.9416   -1.5323 H   0  0  0  0  0  0  0  0  0  0  0  0
   -0.5645    1.7440    0.0383 H   0  0  0  0  0  0  0  0  0  0  0  0
    1.3356    1.7641   -0.9866 C   0  0  0  0  0  0  0  0  0  0  0  0
    1.2947    2.8796   -1.5571 O   0  5  0  0  0  0  0  0  0  0  0  0
    2.3881    1.1482   -0.7127 O   0  0  0  0  0  0  0  0  0  0  0  0
    0.6664   -0.1450    1.5428 C   0  0  0  0  0  0  0  0  0  0  0  0
    1.8485   -0.3724    1.8265 O   0  0  0  0  0  0  0  0  0  0  0  0
   -0.2161    0.2434    2.4686 N   0  0  0  0  0  0  0  0  0  0  0  0
   -1.1850    0.3219    2.1537 H   0  0  0  0  0  0  0  0  0  0  0  0
    0.0735    0.4128    3.8885 C   0  0  0  0  0  0  0  0  0  0  0  0
    1.0159    0.9483    4.0105 H   0  0  0  0  0  0  0  0  0  0  0  0
   -0.7315    0.9748    4.3613 H   0  0  0  0  0  0  0  0  0  0  0  0
    0.1564   -0.5677    4.3577 H   0  0  0  0  0  0  0  0  0  0  0  0
  5  6  2  0  0  0  0
  5  7  1  0  0  0  0
  2  3  1  0  0  0  0
  2  4  1  0  0  0  0
  2  5  1  0  0  0  0
  1  2  1  0  0  0  0
 17 18  2  0  0  0  0
 17 19  1  0  0  0  0
 14 15  1  0  0  0  0
 14 16  2  0  0  0  0
 11 12  1  0  0  0  0
 11 13  1  0  0  0  0
 11 14  1  0  0  0  0
  9 10  1  0  0  0  0
  9 11  1  0  0  0  0
  9 17  1  0  0  0  0
  7  8  1  0  0  0  0
  7  9  1  0  0  0  0
 21 22  1  0  0  0  0
 21 23  1  0  0  0  0
 21 24  1  0  0  0  0
 19 20  1  0  0  0  0
 19 21  1  0  0  0  0
M  CHG  1  15  -1
M  END
$$$$
default_name
  -OEChem-02102213163D

 24 23  0     1  0  0  0  0  0999 V2000
   -2.8347   -3.7166    0.8034 H   0  0  0  0  0  0  0  0  0  0  0  0
   -2.7728   -2.7096    0.3954 C   0  0  0  0  0  0  0  0  0  0  0  0
   -3.4267   -2.0426    0.9524 H   0  0  0  0  0  0  0  0  0  0  0  0
   -3.0538   -2.7186   -0.6556 H   0  0  0  0  0  0  0  0  0  0  0  0
   -1.3498   -2.2206    0.5184 C   0  0  0  0  0  0  0  0  0  0  0  0
   -0.4997   -2.9426    1.0194 O   0  0  0  0  0  0  0  0  0  0  0  0
   -1.1198   -0.9926    0.0674 N   0  0  0  0  0  0  0  0  0  0  0  0
   -1.8978   -0.4486   -0.2716 H   0  0  0  0  0  0  0  0  0  0  0  0
    0.1693   -0.2866    0.0854 C   0  0  1  0  0  0  0  0  0  0  0  0
    0.9043   -0.8713   -0.4705 H   0  0  0  0  0  0  0  0  0  0  0  0
    0.0106    1.0816   -0.6124 C   0  0  0  0  0  0  0  0  0  0  0  0
   -0.5598    0.9416   -1.5323 H   0  0  0  0  0  0  0  0  0  0  0  0
   -0.5645    1.7440    0.0383 H   0  0  0  0  0  0  0  0  0  0  0  0
    1.3356    1.7641   -0.9866 C   0  0  0  0  0  0  0  0  0  0  0  0
    1.3184    2.9806   -1.2890 O   0  5  0  0  0  0  0  0  0  0  0  0
    2.3616    1.0503   -0.9852 O   0  0  0  0  0  0  0  0  0  0  0  0
    0.6664   -0.1450    1.5428 C   0  0  0  0  0  0  0  0  0  0  0  0
    1.8485   -0.3724    1.8265 O   0  0  0  0  0  0  0  0  0  0  0  0
   -0.2161    0.2434    2.4686 N   0  0  0  0  0  0  0  0  0  0  0  0
   -1.1850    0.3219    2.1537 H   0  0  0  0  0  0  0  0  0  0  0  0
    0.0735    0.4128    3.8885 C   0  0  0  0  0  0  0  0  0  0  0  0
    1.0159    0.9483    4.0105 H   0  0  0  0  0  0  0  0  0  0  0  0
   -0.7315    0.9748    4.3613 H   0  0  0  0  0  0  0  0  0  0  0  0
    0.1564   -0.5677    4.3577 H   0  0  0  0  0  0  0  0  0  0  0  0
  5  6  2  0  0  0  0
  5  7  1  0  0  0  0
  2  3  1  0  0  0  0
  2  4  1  0  0  0  0
  2  5  1  0  0  0  0
  1  2  1  0  0  0  0
 17 18  2  0  0  0  0
 17 19  1  0  0  0  0
 14 15  1  0  0  0  0
 14 16  2  0  0  0  0
 11 12  1  0  0  0  0
 11 13  1  0  0  0  0
 11 14  1  0  0  0  0
  9 10  1  0  0  0  0
  9 11  1  0  0  0  0
  9 17  1  0  0  0  0
  7  8  1  0  0  0  0
  7  9  1  0  0  0  0
 21 22  1  0  0  0  0
 21 23  1  0  0  0  0
 21 24  1  0  0  0  0
 19 20  1  0  0  0  0
 19 21  1  0  0  0  0
M  CHG  1  15  -1
M  END
$$$$
default_name
  -OEChem-02102213163D

 24 23  0     1  0  0  0  0  0999 V2000
   -2.8347   -3.7166    0.8034 H   0  0  0  0  0  0  0  0  0  0  0  0
   -2.7728   -2.7096    0.3954 C   0  0  0  0  0  0  0  0  0  0  0  0
   -3.4267   -2.0426    0.9524 H   0  0  0  0  0  0  0  0  0  0  0  0
   -3.0538   -2.7186   -0.6556 H   0  0  0  0  0  0  0  0  0  0  0  0
   -1.3498   -2.2206    0.5184 C   0  0  0  0  0  0  0  0  0  0  0  0
   -0.4997   -2.9426    1.0194 O   0  0  0  0  0  0  0  0  0  0  0  0
   -1.1198   -0.9926    0.0674 N   0  0  0  0  0  0  0  0  0  0  0  0
   -1.8978   -0.4486   -0.2716 H   0  0  0  0  0  0  0  0  0  0  0  0
    0.1693   -0.2866    0.0854 C   0  0  1  0  0  0  0  0  0  0  0  0
    0.9043   -0.8713   -0.4705 H   0  0  0  0  0  0  0  0  0  0  0  0
    0.0106    1.0816   -0.6124 C   0  0  0  0  0  0  0  0  0  0  0  0
   -0.5598    0.9416   -1.5323 H   0  0  0  0  0  0  0  0  0  0  0  0
   -0.5645    1.7440    0.0383 H   0  0  0  0  0  0  0  0  0  0  0  0
    1.3356    1.7641   -0.9866 C   0  0  0  0  0  0  0  0  0  0  0  0
    1.3784    3.0168   -1.0102 O   0  5  0  0  0  0  0  0  0  0  0  0
    2.2985    1.0183   -1.2671 O   0  0  0  0  0  0  0  0  0  0  0  0
    0.6664   -0.1450    1.5428 C   0  0  0  0  0  0  0  0  0  0  0  0
    1.8485   -0.3724    1.8265 O   0  0  0  0  0  0  0  0  0  0  0  0
   -0.2161    0.2434    2.4686 N   0  0  0  0  0  0  0  0  0  0  0  0
   -1.1850    0.3219    2.1537 H   0  0  0  0  0  0  0  0  0  0  0  0
    0.0735    0.4128    3.8885 C   0  0  0  0  0  0  0  0  0  0  0  0
    1.0159    0.9483    4.0105 H   0  0  0  0  0  0  0  0  0  0  0  0
   -0.7315    0.9748    4.3613 H   0  0  0  0  0  0  0  0  0  0  0  0
    0.1564   -0.5677    4.3577 H   0  0  0  0  0  0  0  0  0  0  0  0
  5  6  2  0  0  0  0
  5  7  1  0  0  0  0
  2  3  1  0  0  0  0
  2  4  1  0  0  0  0
  2  5  1  0  0  0  0
  1  2  1  0  0  0  0
 17 18  2  0  0  0  0
 17 19  1  0  0  0  0
 14 15  1  0  0  0  0
 14 16  2  0  0  0  0
 11 12  1  0  0  0  0
 11 13  1  0  0  0  0
 11 14  1  0  0  0  0
  9 10  1  0  0  0  0
  9 11  1  0  0  0  0
  9 17  1  0  0  0  0
  7  8  1  0  0  0  0
  7  9  1  0  0  0  0
 21 22  1  0  0  0  0
 21 23  1  0  0  0  0
 21 24  1  0  0  0  0
 19 20  1  0  0  0  0
 19 21  1  0  0  0  0
M  CHG  1  15  -1
M  END
$$$$
default_name
  -OEChem-02102213163D

 24 23  0     1  0  0  0  0  0999 V2000
   -2.8347   -3.7166    0.8034 H   0  0  0  0  0  0  0  0  0  0  0  0
   -2.7728   -2.7096    0.3954 C   0  0  0  0  0  0  0  0  0  0  0  0
   -3.4267   -2.0426    0.9524 H   0  0  0  0  0  0  0  0  0  0  0  0
   -3.0538   -2.7186   -0.6556 H   0  0  0  0  0  0  0  0  0  0  0  0
   -1.3498   -2.2206    0.5184 C   0  0  0  0  0  0  0  0  0  0  0  0
   -0.4997   -2.9426    1.0194 O   0  0  0  0  0  0  0  0  0  0  0  0
   -1.1198   -0.9926    0.0674 N   0  0  0  0  0  0  0  0  0  0  0  0
   -1.8978   -0.4486   -0.2716 H   0  0  0  0  0  0  0  0  0  0  0  0
    0.1693   -0.2866    0.0854 C   0  0  1  0  0  0  0  0  0  0  0  0
    0.9043   -0.8713   -0.4705 H   0  0  0  0  0  0  0  0  0  0  0  0
    0.0106    1.0816   -0.6124 C   0  0  0  0  0  0  0  0  0  0  0  0
   -0.5598    0.9416   -1.5323 H   0  0  0  0  0  0  0  0  0  0  0  0
   -0.5645    1.7440    0.0383 H   0  0  0  0  0  0  0  0  0  0  0  0
    1.3356    1.7641   -0.9866 C   0  0  0  0  0  0  0  0  0  0  0  0
    1.4708    2.9858   -0.7397 O   0  5  0  0  0  0  0  0  0  0  0  0
    2.2031    1.0542   -1.5394 O   0  0  0  0  0  0  0  0  0  0  0  0
    0.6664   -0.1450    1.5428 C   0  0  0  0  0  0  0  0  0  0  0  0
    1.8485   -0.3724    1.8265 O   0  0  0  0  0  0  0  0  0  0  0  0
   -0.2161    0.2434    2.4686 N   0  0  0  0  0  0  0  0  0  0  0  0
   -1.1850    0.3219    2.1537 H   0  0  0  0  0  0  0  0  0  0  0  0
    0.0735    0.4128    3.8885 C   0  0  0  0  0  0  0  0  0  0  0  0
    1.0159    0.9483    4.0105 H   0  0  0  0  0  0  0  0  0  0  0  0
   -0.7315    0.9748    4.3613 H   0  0  0  0  0  0  0  0  0  0  0  0
    0.1564   -0.5677    4.3577 H   0  0  0  0  0  0  0  0  0  0  0  0
  5  6  2  0  0  0  0
  5  7  1  0  0  0  0
  2  3  1  0  0  0  0
  2  4  1  0  0  0  0
  2  5  1  0  0  0  0
  1  2  1  0  0  0  0
 17 18  2  0  0  0  0
 17 19  1  0  0  0  0
 14 15  1  0  0  0  0
 14 16  2  0  0  0  0
 11 12  1  0  0  0  0
 11 13  1  0  0  0  0
 11 14  1  0  0  0  0
  9 10  1  0  0  0  0
  9 11  1  0  0  0  0
  9 17  1  0  0  0  0
  7  8  1  0  0  0  0
  7  9  1  0  0  0  0
 21 22  1  0  0  0  0
 21 23  1  0  0  0  0
 21 24  1  0  0  0  0
 19 20  1  0  0  0  0
 19 21  1  0  0  0  0
M  CHG  1  15  -1
M  END
$$$$
default_name
  -OEChem-02102213163D

 24 23  0     1  0  0  0  0  0999 V2000
   -2.8347   -3.7166    0.8034 H   0  0  0  0  0  0  0  0  0  0  0  0
   -2.7728   -2.7096    0.3954 C   0  0  0  0  0  0  0  0  0  0  0  0
   -3.4267   -2.0426    0.9524 H   0  0  0  0  0  0  0  0  0  0  0  0
   -3.0538   -2.7186   -0.6556 H   0  0  0  0  0  0  0  0  0  0  0  0
   -1.3498   -2.2206    0.5184 C   0  0  0  0  0  0  0  0  0  0  0  0
   -0.4997   -2.9426    1.0194 O   0  0  0  0  0  0  0  0  0  0  0  0
   -1.1198   -0.9926    0.0674 N   0  0  0  0  0  0  0  0  0  0  0  0
   -1.8978   -0.4486   -0.2716 H   0  0  0  0  0  0  0  0  0  0  0  0
    0.1693   -0.2866    0.0854 C   0  0  1  0  0  0  0  0  0  0  0  0
    0.9043   -0.8713   -0.4705 H   0  0  0  0  0  0  0  0  0  0  0  0
    0.0106    1.0816   -0.6124 C   0  0  0  0  0  0  0  0  0  0  0  0
   -0.5598    0.9416   -1.5323 H   0  0  0  0  0  0  0  0  0  0  0  0
   -0.5645    1.7440    0.0383 H   0  0  0  0  0  0  0  0  0  0  0  0
    1.3356    1.7641   -0.9866 C   0  0  0  0  0  0  0  0  0  0  0  0
    1.5891    2.8896   -0.4960 O   0  5  0  0  0  0  0  0  0  0  0  0
    2.0819    1.1557   -1.7834 O   0  0  0  0  0  0  0  0  0  0  0  0
    0.6664   -0.1450    1.5428 C   0  0  0  0  0  0  0  0  0  0  0  0
    1.8485   -0.3724    1.8265 O   0  0  0  0  0  0  0  0  0  0  0  0
   -0.2161    0.2434    2.4686 N   0  0  0  0  0  0  0  0  0  0  0  0
   -1.1850    0.3219    2.1537 H   0  0  0  0  0  0  0  0  0  0  0  0
    0.0735    0.4128    3.8885 C   0  0  0  0  0  0  0  0  0  0  0  0
    1.0159    0.9483    4.0105 H   0  0  0  0  0  0  0  0  0  0  0  0
   -0.7315    0.9748    4.3613 H   0  0  0  0  0  0  0  0  0  0  0  0
    0.1564   -0.5677    4.3577 H   0  0  0  0  0  0  0  0  0  0  0  0
  5  6  2  0  0  0  0
  5  7  1  0  0  0  0
  2  3  1  0  0  0  0
  2  4  1  0  0  0  0
  2  5  1  0  0  0  0
  1  2  1  0  0  0  0
 17 18  2  0  0  0  0
 17 19  1  0  0  0  0
 14 15  1  0  0  0  0
 14 16  2  0  0  0  0
 11 12  1  0  0  0  0
 11 13  1  0  0  0  0
 11 14  1  0  0  0  0
  9 10  1  0  0  0  0
  9 11  1  0  0  0  0
  9 17  1  0  0  0  0
  7  8  1  0  0  0  0
  7  9  1  0  0  0  0
 21 22  1  0  0  0  0
 21 23  1  0  0  0  0
 21 24  1  0  0  0  0
 19 20  1  0  0  0  0
 19 21  1  0  0  0  0
M  CHG  1  15  -1
M  END
$$$$
default_name
  -OEChem-02102213163D

 24 23  0     1  0  0  0  0  0999 V2000
   -2.8347   -3.7166    0.8034 H   0  0  0  0  0  0  0  0  0  0  0  0
   -2.7728   -2.7096    0.3954 C   0  0  0  0  0  0  0  0  0  0  0  0
   -3.4267   -2.0426    0.9524 H   0  0  0  0  0  0  0  0  0  0  0  0
   -3.0538   -2.7186   -0.6556 H   0  0  0  0  0  0  0  0  0  0  0  0
   -1.3498   -2.2206    0.5184 C   0  0  0  0  0  0  0  0  0  0  0  0
   -0.4997   -2.9426    1.0194 O   0  0  0  0  0  0  0  0  0  0  0  0
   -1.1198   -0.9926    0.0674 N   0  0  0  0  0  0  0  0  0  0  0  0
   -1.8978   -0.4486   -0.2716 H   0  0  0  0  0  0  0  0  0  0  0  0
    0.1693   -0.2866    0.0854 C   0  0  1  0  0  0  0  0  0  0  0  0
    0.9043   -0.8713   -0.4705 H   0  0  0  0  0  0  0  0  0  0  0  0
    0.0106    1.0816   -0.6124 C   0  0  0  0  0  0  0  0  0  0  0  0
   -0.5598    0.9416   -1.5323 H   0  0  0  0  0  0  0  0  0  0  0  0
   -0.5645    1.7440    0.0383 H   0  0  0  0  0  0  0  0  0  0  0  0
    1.3356    1.7641   -0.9866 C   0  0  0  0  0  0  0  0  0  0  0  0
    1.7254    2.7349   -0.2957 O   0  5  0  0  0  0  0  0  0  0  0  0
    1.9432    1.3158   -1.9825 O   0  0  0  0  0  0  0  0  0  0  0  0
    0.6664   -0.1450    1.5428 C   0  0  0  0  0  0  0  0  0  0  0  0
    1.8485   -0.3724    1.8265 O   0  0  0  0  0  0  0  0  0  0  0  0
   -0.2161    0.2434    2.4686 N   0  0  0  0  0  0  0  0  0  0  0  0
   -1.1850    0.3219    2.1537 H   0  0  0  0  0  0  0  0  0  0  0  0
    0.0735    0.4128    3.8885 C   0  0  0  0  0  0  0  0  0  0  0  0
    1.0159    0.9483    4.0105 H   0  0  0  0  0  0  0  0  0  0  0  0
   -0.7315    0.9748    4.3613 H   0  0  0  0  0  0  0  0  0  0  0  0
    0.1564   -0.5677    4.3577 H   0  0  0  0  0  0  0  0  0  0  0  0
  5  6  2  0  0  0  0
  5  7  1  0  0  0  0
  2  3  1  0  0  0  0
  2  4  1  0  0  0  0
  2  5  1  0  0  0  0
  1  2  1  0  0  0  0
 17 18  2  0  0  0  0
 17 19  1  0  0  0  0
 14 15  1  0  0  0  0
 14 16  2  0  0  0  0
 11 12  1  0  0  0  0
 11 13  1  0  0  0  0
 11 14  1  0  0  0  0
  9 10  1  0  0  0  0
  9 11  1  0  0  0  0
  9 17  1  0  0  0  0
  7  8  1  0  0  0  0
  7  9  1  0  0  0  0
 21 22  1  0  0  0  0
 21 23  1  0  0  0  0
 21 24  1  0  0  0  0
 19 20  1  0  0  0  0
 19 21  1  0  0  0  0
M  CHG  1  15  -1
M  END
$$$$
default_name
  -OEChem-02102213163D

 24 23  0     1  0  0  0  0  0999 V2000
   -2.8347   -3.7166    0.8034 H   0  0  0  0  0  0  0  0  0  0  0  0
   -2.7728   -2.7096    0.3954 C   0  0  0  0  0  0  0  0  0  0  0  0
   -3.4267   -2.0426    0.9524 H   0  0  0  0  0  0  0  0  0  0  0  0
   -3.0538   -2.7186   -0.6556 H   0  0  0  0  0  0  0  0  0  0  0  0
   -1.3498   -2.2206    0.5184 C   0  0  0  0  0  0  0  0  0  0  0  0
   -0.4997   -2.9426    1.0194 O   0  0  0  0  0  0  0  0  0  0  0  0
   -1.1198   -0.9926    0.0674 N   0  0  0  0  0  0  0  0  0  0  0  0
   -1.8978   -0.4486   -0.2716 H   0  0  0  0  0  0  0  0  0  0  0  0
    0.1693   -0.2866    0.0854 C   0  0  1  0  0  0  0  0  0  0  0  0
    0.9043   -0.8713   -0.4705 H   0  0  0  0  0  0  0  0  0  0  0  0
    0.0106    1.0816   -0.6124 C   0  0  0  0  0  0  0  0  0  0  0  0
   -0.5598    0.9416   -1.5323 H   0  0  0  0  0  0  0  0  0  0  0  0
   -0.5645    1.7440    0.0383 H   0  0  0  0  0  0  0  0  0  0  0  0
    1.3356    1.7641   -0.9866 C   0  0  0  0  0  0  0  0  0  0  0  0
    1.8703    2.5321   -0.1524 O   0  5  0  0  0  0  0  0  0  0  0  0
    1.7964    1.5237   -2.1232 O   0  0  0  0  0  0  0  0  0  0  0  0
    0.6664   -0.1450    1.5428 C   0  0  0  0  0  0  0  0  0  0  0  0
    1.8485   -0.3724    1.8265 O   0  0  0  0  0  0  0  0  0  0  0  0
   -0.2161    0.2434    2.4686 N   0  0  0  0  0  0  0  0  0  0  0  0
   -1.1850    0.3219    2.1537 H   0  0  0  0  0  0  0  0  0  0  0  0
    0.0735    0.4128    3.8885 C   0  0  0  0  0  0  0  0  0  0  0  0
    1.0159    0.9483    4.0105 H   0  0  0  0  0  0  0  0  0  0  0  0
   -0.7315    0.9748    4.3613 H   0  0  0  0  0  0  0  0  0  0  0  0
    0.1564   -0.5677    4.3577 H   0  0  0  0  0  0  0  0  0  0  0  0
  5  6  2  0  0  0  0
  5  7  1  0  0  0  0
  2  3  1  0  0  0  0
  2  4  1  0  0  0  0
  2  5  1  0  0  0  0
  1  2  1  0  0  0  0
 17 18  2  0  0  0  0
 17 19  1  0  0  0  0
 14 15  1  0  0  0  0
 14 16  2  0  0  0  0
 11 12  1  0  0  0  0
 11 13  1  0  0  0  0
 11 14  1  0  0  0  0
  9 10  1  0  0  0  0
  9 11  1  0  0  0  0
  9 17  1  0  0  0  0
  7  8  1  0  0  0  0
  7  9  1  0  0  0  0
 21 22  1  0  0  0  0
 21 23  1  0  0  0  0
 21 24  1  0  0  0  0
 19 20  1  0  0  0  0
 19 21  1  0  0  0  0
M  CHG  1  15  -1
M  END
$$$$
default_name
  -OEChem-02102213163D

 24 23  0     1  0  0  0  0  0999 V2000
   -2.8347   -3.7166    0.8034 H   0  0  0  0  0  0  0  0  0  0  0  0
   -2.7728   -2.7096    0.3954 C   0  0  0  0  0  0  0  0  0  0  0  0
   -3.4267   -2.0426    0.9524 H   0  0  0  0  0  0  0  0  0  0  0  0
   -3.0538   -2.7186   -0.6556 H   0  0  0  0  0  0  0  0  0  0  0  0
   -1.3498   -2.2206    0.5184 C   0  0  0  0  0  0  0  0  0  0  0  0
   -0.4997   -2.9426    1.0194 O   0  0  0  0  0  0  0  0  0  0  0  0
   -1.1198   -0.9926    0.0674 N   0  0  0  0  0  0  0  0  0  0  0  0
   -1.8978   -0.4486   -0.2716 H   0  0  0  0  0  0  0  0  0  0  0  0
    0.1693   -0.2866    0.0854 C   0  0  1  0  0  0  0  0  0  0  0  0
    0.9043   -0.8713   -0.4705 H   0  0  0  0  0  0  0  0  0  0  0  0
    0.0106    1.0816   -0.6124 C   0  0  0  0  0  0  0  0  0  0  0  0
   -0.5598    0.9416   -1.5323 H   0  0  0  0  0  0  0  0  0  0  0  0
   -0.5645    1.7440    0.0383 H   0  0  0  0  0  0  0  0  0  0  0  0
    1.3356    1.7641   -0.9866 C   0  0  0  0  0  0  0  0  0  0  0  0
    2.0140    2.2951   -0.0758 O   0  5  0  0  0  0  0  0  0  0  0  0
    1.6516    1.7651   -2.1958 O   0  0  0  0  0  0  0  0  0  0  0  0
    0.6664   -0.1450    1.5428 C   0  0  0  0  0  0  0  0  0  0  0  0
    1.8485   -0.3724    1.8265 O   0  0  0  0  0  0  0  0  0  0  0  0
   -0.2161    0.2434    2.4686 N   0  0  0  0  0  0  0  0  0  0  0  0
   -1.1850    0.3219    2.1537 H   0  0  0  0  0  0  0  0  0  0  0  0
    0.0735    0.4128    3.8885 C   0  0  0  0  0  0  0  0  0  0  0  0
    1.0159    0.9483    4.0105 H   0  0  0  0  0  0  0  0  0  0  0  0
   -0.7315    0.9748    4.3613 H   0  0  0  0  0  0  0  0  0  0  0  0
    0.1564   -0.5677    4.3577 H   0  0  0  0  0  0  0  0  0  0  0  0
  5  6  2  0  0  0  0
  5  7  1  0  0  0  0
  2  3  1  0  0  0  0
  2  4  1  0  0  0  0
  2  5  1  0  0  0  0
  1  2  1  0  0  0  0
 17 18  2  0  0  0  0
 17 19  1  0  0  0  0
 14 15  1  0  0  0  0
 14 16  2  0  0  0  0
 11 12  1  0  0  0  0
 11 13  1  0  0  0  0
 11 14  1  0  0  0  0
  9 10  1  0  0  0  0
  9 11  1  0  0  0  0
  9 17  1  0  0  0  0
  7  8  1  0  0  0  0
  7  9  1  0  0  0  0
 21 22  1  0  0  0  0
 21 23  1  0  0  0  0
 21 24  1  0  0  0  0
 19 20  1  0  0  0  0
 19 21  1  0  0  0  0
M  CHG  1  15  -1
M  END
$$$$
default_name
  -OEChem-02102213163D

 24 23  0     1  0  0  0  0  0999 V2000
   -2.8347   -3.7166    0.8034 H   0  0  0  0  0  0  0  0  0  0  0  0
   -2.7728   -2.7096    0.3954 C   0  0  0  0  0  0  0  0  0  0  0  0
   -3.4267   -2.0426    0.9524 H   0  0  0  0  0  0  0  0  0  0  0  0
   -3.0538   -2.7186   -0.6556 H   0  0  0  0  0  0  0  0  0  0  0  0
   -1.3498   -2.2206    0.5184 C   0  0  0  0  0  0  0  0  0  0  0  0
   -0.4997   -2.9426    1.0194 O   0  0  0  0  0  0  0  0  0  0  0  0
   -1.1198   -0.9926    0.0674 N   0  0  0  0  0  0  0  0  0  0  0  0
   -1.8978   -0.4486   -0.2716 H   0  0  0  0  0  0  0  0  0  0  0  0
    0.1693   -0.2866    0.0854 C   0  0  1  0  0  0  0  0  0  0  0  0
    0.9043   -0.8713   -0.4705 H   0  0  0  0  0  0  0  0  0  0  0  0
    0.0106    1.0816   -0.6124 C   0  0  0  0  0  0  0  0  0  0  0  0
   -0.5598    0.9416   -1.5323 H   0  0  0  0  0  0  0  0  0  0  0  0
   -0.5645    1.7440    0.0383 H   0  0  0  0  0  0  0  0  0  0  0  0
    1.3356    1.7641   -0.9866 C   0  0  0  0  0  0  0  0  0  0  0  0
    2.1466    2.0401   -0.0713 O   0  5  0  0  0  0  0  0  0  0  0  0
    1.5185    2.0236   -2.1954 O   0  0  0  0  0  0  0  0  0  0  0  0
    0.6664   -0.1450    1.5428 C   0  0  0  0  0  0  0  0  0  0  0  0
    1.8485   -0.3724    1.8265 O   0  0  0  0  0  0  0  0  0  0  0  0
   -0.2161    0.2434    2.4686 N   0  0  0  0  0  0  0  0  0  0  0  0
   -1.1850    0.3219    2.1537 H   0  0  0  0  0  0  0  0  0  0  0  0
    0.0735    0.4128    3.8885 C   0  0  0  0  0  0  0  0  0  0  0  0
    1.0159    0.9483    4.0105 H   0  0  0  0  0  0  0  0  0  0  0  0
   -0.7315    0.9748    4.3613 H   0  0  0  0  0  0  0  0  0  0  0  0
    0.1564   -0.5677    4.3577 H   0  0  0  0  0  0  0  0  0  0  0  0
  5  6  2  0  0  0  0
  5  7  1  0  0  0  0
  2  3  1  0  0  0  0
  2  4  1  0  0  0  0
  2  5  1  0  0  0  0
  1  2  1  0  0  0  0
 17 18  2  0  0  0  0
 17 19  1  0  0  0  0
 14 15  1  0  0  0  0
 14 16  2  0  0  0  0
 11 12  1  0  0  0  0
 11 13  1  0  0  0  0
 11 14  1  0  0  0  0
  9 10  1  0  0  0  0
  9 11  1  0  0  0  0
  9 17  1  0  0  0  0
  7  8  1  0  0  0  0
  7  9  1  0  0  0  0
 21 22  1  0  0  0  0
 21 23  1  0  0  0  0
 21 24  1  0  0  0  0
 19 20  1  0  0  0  0
 19 21  1  0  0  0  0
M  CHG  1  15  -1
M  END
$$$$
default_name
  -OEChem-02102213163D

 24 23  0     1  0  0  0  0  0999 V2000
   -2.8347   -3.7166    0.8034 H   0  0  0  0  0  0  0  0  0  0  0  0
   -2.7728   -2.7096    0.3954 C   0  0  0  0  0  0  0  0  0  0  0  0
   -3.4267   -2.0426    0.9524 H   0  0  0  0  0  0  0  0  0  0  0  0
   -3.0538   -2.7186   -0.6556 H   0  0  0  0  0  0  0  0  0  0  0  0
   -1.3498   -2.2206    0.5184 C   0  0  0  0  0  0  0  0  0  0  0  0
   -0.4997   -2.9426    1.0194 O   0  0  0  0  0  0  0  0  0  0  0  0
   -1.1198   -0.9926    0.0674 N   0  0  0  0  0  0  0  0  0  0  0  0
   -1.8978   -0.4486   -0.2716 H   0  0  0  0  0  0  0  0  0  0  0  0
    0.1693   -0.2866    0.0854 C   0  0  1  0  0  0  0  0  0  0  0  0
    0.9043   -0.8713   -0.4705 H   0  0  0  0  0  0  0  0  0  0  0  0
    0.0106    1.0816   -0.6124 C   0  0  0  0  0  0  0  0  0  0  0  0
   -0.5598    0.9416   -1.5323 H   0  0  0  0  0  0  0  0  0  0  0  0
   -0.5645    1.7440    0.0383 H   0  0  0  0  0  0  0  0  0  0  0  0
    1.3356    1.7641   -0.9866 C   0  0  0  0  0  0  0  0  0  0  0  0
    2.2592    1.7844   -0.1391 O   0  5  0  0  0  0  0  0  0  0  0  0
    1.4064    2.2816   -2.1221 O   0  0  0  0  0  0  0  0  0  0  0  0
    0.6664   -0.1450    1.5428 C   0  0  0  0  0  0  0  0  0  0  0  0
    1.8485   -0.3724    1.8265 O   0  0  0  0  0  0  0  0  0  0  0  0
   -0.2161    0.2434    2.4686 N   0  0  0  0  0  0  0  0  0  0  0  0
   -1.1850    0.3219    2.1537 H   0  0  0  0  0  0  0  0  0  0  0  0
    0.0735    0.4128    3.8885 C   0  0  0  0  0  0  0  0  0  0  0  0
    1.0159    0.9483    4.0105 H   0  0  0  0  0  0  0  0  0  0  0  0
   -0.7315    0.9748    4.3613 H   0  0  0  0  0  0  0  0  0  0  0  0
    0.1564   -0.5677    4.3577 H   0  0  0  0  0  0  0  0  0  0  0  0
  5  6  2  0  0  0  0
  5  7  1  0  0  0  0
  2  3  1  0  0  0  0
  2  4  1  0  0  0  0
  2  5  1  0  0  0  0
  1  2  1  0  0  0  0
 17 18  2  0  0  0  0
 17 19  1  0  0  0  0
 14 15  1  0  0  0  0
 14 16  2  0  0  0  0
 11 12  1  0  0  0  0
 11 13  1  0  0  0  0
 11 14  1  0  0  0  0
  9 10  1  0  0  0  0
  9 11  1  0  0  0  0
  9 17  1  0  0  0  0
  7  8  1  0  0  0  0
  7  9  1  0  0  0  0
 21 22  1  0  0  0  0
 21 23  1  0  0  0  0
 21 24  1  0  0  0  0
 19 20  1  0  0  0  0
 19 21  1  0  0  0  0
M  CHG  1  15  -1
M  END
$$$$
default_name
  -OEChem-02102213163D

 24 23  0     1  0  0  0  0  0999 V2000
   -2.8347   -3.7166    0.8034 H   0  0  0  0  0  0  0  0  0  0  0  0
   -2.7728   -2.7096    0.3954 C   0  0  0  0  0  0  0  0  0  0  0  0
   -3.4267   -2.0426    0.9524 H   0  0  0  0  0  0  0  0  0  0  0  0
   -3.0538   -2.7186   -0.6556 H   0  0  0  0  0  0  0  0  0  0  0  0
   -1.3498   -2.2206    0.5184 C   0  0  0  0  0  0  0  0  0  0  0  0
   -0.4997   -2.9426    1.0194 O   0  0  0  0  0  0  0  0  0  0  0  0
   -1.1198   -0.9926    0.0674 N   0  0  0  0  0  0  0  0  0  0  0  0
   -1.8978   -0.4486   -0.2716 H   0  0  0  0  0  0  0  0  0  0  0  0
    0.1693   -0.2866    0.0854 C   0  0  1  0  0  0  0  0  0  0  0  0
    0.9043   -0.8713   -0.4705 H   0  0  0  0  0  0  0  0  0  0  0  0
    0.0106    1.0816   -0.6124 C   0  0  0  0  0  0  0  0  0  0  0  0
   -0.5598    0.9416   -1.5323 H   0  0  0  0  0  0  0  0  0  0  0  0
   -0.5645    1.7440    0.0383 H   0  0  0  0  0  0  0  0  0  0  0  0
    1.3356    1.7641   -0.9866 C   0  0  0  0  0  0  0  0  0  0  0  0
    2.3440    1.5455   -0.2746 O   0  5  0  0  0  0  0  0  0  0  0  0
    1.3227    2.5215   -1.9807 O   0  0  0  0  0  0  0  0  0  0  0  0
    0.6664   -0.1450    1.5428 C   0  0  0  0  0  0  0  0  0  0  0  0
    1.8485   -0.3724    1.8265 O   0  0  0  0  0  0  0  0  0  0  0  0
   -0.2161    0.2434    2.4686 N   0  0  0  0  0  0  0  0  0  0  0  0
   -1.1850    0.3219    2.1537 H   0  0  0  0  0  0  0  0  0  0  0  0
    0.0735    0.4128    3.8885 C   0  0  0  0  0  0  0  0  0  0  0  0
    1.0159    0.9483    4.0105 H   0  0  0  0  0  0  0  0  0  0  0  0
   -0.7315    0.9748    4.3613 H   0  0  0  0  0  0  0  0  0  0  0  0
    0.1564   -0.5677    4.3577 H   0  0  0  0  0  0  0  0  0  0  0  0
  5  6  2  0  0  0  0
  5  7  1  0  0  0  0
  2  3  1  0  0  0  0
  2  4  1  0  0  0  0
  2  5  1  0  0  0  0
  1  2  1  0  0  0  0
 17 18  2  0  0  0  0
 17 19  1  0  0  0  0
 14 15  1  0  0  0  0
 14 16  2  0  0  0  0
 11 12  1  0  0  0  0
 11 13  1  0  0  0  0
 11 14  1  0  0  0  0
  9 10  1  0  0  0  0
  9 11  1  0  0  0  0
  9 17  1  0  0  0  0
  7  8  1  0  0  0  0
  7  9  1  0  0  0  0
 21 22  1  0  0  0  0
 21 23  1  0  0  0  0
 21 24  1  0  0  0  0
 19 20  1  0  0  0  0
 19 21  1  0  0  0  0
M  CHG  1  15  -1
M  END
$$$$
default_name
  -OEChem-02102213163D

 24 23  0     1  0  0  0  0  0999 V2000
   -2.8347   -3.7166    0.8034 H   0  0  0  0  0  0  0  0  0  0  0  0
   -2.7728   -2.7096    0.3954 C   0  0  0  0  0  0  0  0  0  0  0  0
   -3.4267   -2.0426    0.9524 H   0  0  0  0  0  0  0  0  0  0  0  0
   -3.0538   -2.7186   -0.6556 H   0  0  0  0  0  0  0  0  0  0  0  0
   -1.3498   -2.2206    0.5184 C   0  0  0  0  0  0  0  0  0  0  0  0
   -0.4997   -2.9426    1.0194 O   0  0  0  0  0  0  0  0  0  0  0  0
   -1.1198   -0.9926    0.0674 N   0  0  0  0  0  0  0  0  0  0  0  0
   -1.8978   -0.4486   -0.2716 H   0  0  0  0  0  0  0  0  0  0  0  0
    0.1693   -0.2866    0.0854 C   0  0  1  0  0  0  0  0  0  0  0  0
    0.9043   -0.8713   -0.4705 H   0  0  0  0  0  0  0  0  0  0  0  0
    0.0106    1.0816   -0.6124 C   0  0  0  0  0  0  0  0  0  0  0  0
   -0.5598    0.9416   -1.5323 H   0  0  0  0  0  0  0  0  0  0  0  0
   -0.5645    1.7440    0.0383 H   0  0  0  0  0  0  0  0  0  0  0  0
    1.3356    1.7641   -0.9866 C   0  0  0  0  0  0  0  0  0  0  0  0
    2.3953    1.3395   -0.4685 O   0  5  0  0  0  0  0  0  0  0  0  0
    1.2733    2.7269   -1.7811 O   0  0  0  0  0  0  0  0  0  0  0  0
    0.6664   -0.1450    1.5428 C   0  0  0  0  0  0  0  0  0  0  0  0
    1.8485   -0.3724    1.8265 O   0  0  0  0  0  0  0  0  0  0  0  0
   -0.2161    0.2434    2.4686 N   0  0  0  0  0  0  0  0  0  0  0  0
   -1.1850    0.3219    2.1537 H   0  0  0  0  0  0  0  0  0  0  0  0
    0.0735    0.4128    3.8885 C   0  0  0  0  0  0  0  0  0  0  0  0
    1.0159    0.9483    4.0105 H   0  0  0  0  0  0  0  0  0  0  0  0
   -0.7315    0.9748    4.3613 H   0  0  0  0  0  0  0  0  0  0  0  0
    0.1564   -0.5677    4.3577 H   0  0  0  0  0  0  0  0  0  0  0  0
  5  6  2  0  0  0  0
  5  7  1  0  0  0  0
  2  3  1  0  0  0  0
  2  4  1  0  0  0  0
  2  5  1  0  0  0  0
  1  2  1  0  0  0  0
 17 18  2  0  0  0  0
 17 19  1  0  0  0  0
 14 15  1  0  0  0  0
 14 16  2  0  0  0  0
 11 12  1  0  0  0  0
 11 13  1  0  0  0  0
 11 14  1  0  0  0  0
  9 10  1  0  0  0  0
  9 11  1  0  0  0  0
  9 17  1  0  0  0  0
  7  8  1  0  0  0  0
  7  9  1  0  0  0  0
 21 22  1  0  0  0  0
 21 23  1  0  0  0  0
 21 24  1  0  0  0  0
 19 20  1  0  0  0  0
 19 21  1  0  0  0  0
M  CHG  1  15  -1
M  END
$$$$
default_name
  -OEChem-02102213163D

 24 23  0     1  0  0  0  0  0999 V2000
   -2.8347   -3.7166    0.8034 H   0  0  0  0  0  0  0  0  0  0  0  0
   -2.7728   -2.7096    0.3954 C   0  0  0  0  0  0  0  0  0  0  0  0
   -3.4267   -2.0426    0.9524 H   0  0  0  0  0  0  0  0  0  0  0  0
   -3.0538   -2.7186   -0.6556 H   0  0  0  0  0  0  0  0  0  0  0  0
   -1.3498   -2.2206    0.5184 C   0  0  0  0  0  0  0  0  0  0  0  0
   -0.4997   -2.9426    1.0194 O   0  0  0  0  0  0  0  0  0  0  0  0
   -1.1198   -0.9926    0.0674 N   0  0  0  0  0  0  0  0  0  0  0  0
   -1.8978   -0.4486   -0.2716 H   0  0  0  0  0  0  0  0  0  0  0  0
    0.1693   -0.2866    0.0854 C   0  0  1  0  0  0  0  0  0  0  0  0
    0.9043   -0.8713   -0.4705 H   0  0  0  0  0  0  0  0  0  0  0  0
    0.0106    1.0816   -0.6124 C   0  0  0  0  0  0  0  0  0  0  0  0
   -0.5598    0.9416   -1.5323 H   0  0  0  0  0  0  0  0  0  0  0  0
   -0.5645    1.7440    0.0383 H   0  0  0  0  0  0  0  0  0  0  0  0
    1.3356    1.7641   -0.9866 C   0  0  0  0  0  0  0  0  0  0  0  0
    2.4096    1.1807   -0.7077 O   0  5  0  0  0  0  0  0  0  0  0  0
    1.2614    2.8839   -1.5367 O   0  0  0  0  0  0  0  0  0  0  0  0
    0.6664   -0.1450    1.5428 C   0  0  0  0  0  0  0  0  0  0  0  0
    1.8485   -0.3724    1.8265 O   0  0  0  0  0  0  0  0  0  0  0  0
   -0.2161    0.2434    2.4686 N   0  0  0  0  0  0  0  0  0  0  0  0
   -1.1850    0.3219    2.1537 H   0  0  0  0  0  0  0  0  0  0  0  0
    0.0735    0.4128    3.8885 C   0  0  0  0  0  0  0  0  0  0  0  0
    1.0159    0.9483    4.0105 H   0  0  0  0  0  0  0  0  0  0  0  0
   -0.7315    0.9748    4.3613 H   0  0  0  0  0  0  0  0  0  0  0  0
    0.1564   -0.5677    4.3577 H   0  0  0  0  0  0  0  0  0  0  0  0
  5  6  2  0  0  0  0
  5  7  1  0  0  0  0
  2  3  1  0  0  0  0
  2  4  1  0  0  0  0
  2  5  1  0  0  0  0
  1  2  1  0  0  0  0
 17 18  2  0  0  0  0
 17 19  1  0  0  0  0
 14 15  1  0  0  0  0
 14 16  2  0  0  0  0
 11 12  1  0  0  0  0
 11 13  1  0  0  0  0
 11 14  1  0  0  0  0
  9 10  1  0  0  0  0
  9 11  1  0  0  0  0
  9 17  1  0  0  0  0
  7  8  1  0  0  0  0
  7  9  1  0  0  0  0
 21 22  1  0  0  0  0
 21 23  1  0  0  0  0
 21 24  1  0  0  0  0
 19 20  1  0  0  0  0
 19 21  1  0  0  0  0
M  CHG  1  15  -1
M  END
$$$$
default_name
  -OEChem-02102213163D

 24 23  0     1  0  0  0  0  0999 V2000
   -2.8347   -3.7166    0.8034 H   0  0  0  0  0  0  0  0  0  0  0  0
   -2.7728   -2.7096    0.3954 C   0  0  0  0  0  0  0  0  0  0  0  0
   -3.4267   -2.0426    0.9524 H   0  0  0  0  0  0  0  0  0  0  0  0
   -3.0538   -2.7186   -0.6556 H   0  0  0  0  0  0  0  0  0  0  0  0
   -1.3498   -2.2206    0.5184 C   0  0  0  0  0  0  0  0  0  0  0  0
   -0.4997   -2.9426    1.0194 O   0  0  0  0  0  0  0  0  0  0  0  0
   -1.1198   -0.9926    0.0674 N   0  0  0  0  0  0  0  0  0  0  0  0
   -1.8978   -0.4486   -0.2716 H   0  0  0  0  0  0  0  0  0  0  0  0
    0.1693   -0.2866    0.0854 C   0  0  1  0  0  0  0  0  0  0  0  0
    0.9043   -0.8713   -0.4705 H   0  0  0  0  0  0  0  0  0  0  0  0
    0.0106    1.0816   -0.6124 C   0  0  0  0  0  0  0  0  0  0  0  0
   -0.5598    0.9416   -1.5323 H   0  0  0  0  0  0  0  0  0  0  0  0
   -0.5645    1.7440    0.0383 H   0  0  0  0  0  0  0  0  0  0  0  0
    1.3356    1.7641   -0.9866 C   0  0  0  0  0  0  0  0  0  0  0  0
    2.3859    1.0797   -0.9758 O   0  5  0  0  0  0  0  0  0  0  0  0
    1.2879    2.9818   -1.2642 O   0  0  0  0  0  0  0  0  0  0  0  0
    0.6664   -0.1450    1.5428 C   0  0  0  0  0  0  0  0  0  0  0  0
    1.8485   -0.3724    1.8265 O   0  0  0  0  0  0  0  0  0  0  0  0
   -0.2161    0.2434    2.4686 N   0  0  0  0  0  0  0  0  0  0  0  0
   -1.1850    0.3219    2.1537 H   0  0  0  0  0  0  0  0  0  0  0  0
    0.0735    0.4128    3.8885 C   0  0  0  0  0  0  0  0  0  0  0  0
    1.0159    0.9483    4.0105 H   0  0  0  0  0  0  0  0  0  0  0  0
   -0.7315    0.9748    4.3613 H   0  0  0  0  0  0  0  0  0  0  0  0
    0.1564   -0.5677    4.3577 H   0  0  0  0  0  0  0  0  0  0  0  0
  5  6  2  0  0  0  0
  5  7  1  0  0  0  0
  2  3  1  0  0  0  0
  2  4  1  0  0  0  0
  2  5  1  0  0  0  0
  1  2  1  0  0  0  0
 17 18  2  0  0  0  0
 17 19  1  0  0  0  0
 14 15  1  0  0  0  0
 14 16  2  0  0  0  0
 11 12  1  0  0  0  0
 11 13  1  0  0  0  0
 11 14  1  0  0  0  0
  9 10  1  0  0  0  0
  9 11  1  0  0  0  0
  9 17  1  0  0  0  0
  7  8  1  0  0  0  0
  7  9  1  0  0  0  0
 21 22  1  0  0  0  0
 21 23  1  0  0  0  0
 21 24  1  0  0  0  0
 19 20  1  0  0  0  0
 19 21  1  0  0  0  0
M  CHG  1  15  -1
M  END
$$$$
default_name
  -OEChem-02102213163D

 24 23  0     1  0  0  0  0  0999 V2000
   -2.8347   -3.7166    0.8034 H   0  0  0  0  0  0  0  0  0  0  0  0
   -2.7728   -2.7096    0.3954 C   0  0  0  0  0  0  0  0  0  0  0  0
   -3.4267   -2.0426    0.9524 H   0  0  0  0  0  0  0  0  0  0  0  0
   -3.0538   -2.7186   -0.6556 H   0  0  0  0  0  0  0  0  0  0  0  0
   -1.3498   -2.2206    0.5184 C   0  0  0  0  0  0  0  0  0  0  0  0
   -0.4997   -2.9426    1.0194 O   0  0  0  0  0  0  0  0  0  0  0  0
   -1.1198   -0.9926    0.0674 N   0  0  0  0  0  0  0  0  0  0  0  0
   -1.8978   -0.4486   -0.2716 H   0  0  0  0  0  0  0  0  0  0  0  0
    0.1693   -0.2866    0.0854 C   0  0  1  0  0  0  0  0  0  0  0  0
    0.9043   -0.8713   -0.4705 H   0  0  0  0  0  0  0  0  0  0  0  0
    0.0106    1.0816   -0.6124 C   0  0  0  0  0  0  0  0  0  0  0  0
   -0.5598    0.9416   -1.5323 H   0  0  0  0  0  0  0  0  0  0  0  0
   -0.5645    1.7440    0.0383 H   0  0  0  0  0  0  0  0  0  0  0  0
    1.3356    1.7641   -0.9866 C   0  0  0  0  0  0  0  0  0  0  0  0
    2.3258    1.0435   -1.2546 O   0  5  0  0  0  0  0  0  0  0  0  0
    1.3510    3.0139   -0.9822 O   0  0  0  0  0  0  0  0  0  0  0  0
    0.6664   -0.1450    1.5428 C   0  0  0  0  0  0  0  0  0  0  0  0
    1.8485   -0.3724    1.8265 O   0  0  0  0  0  0  0  0  0  0  0  0
   -0.2161    0.2434    2.4686 N   0  0  0  0  0  0  0  0  0  0  0  0
   -1.1850    0.3219    2.1537 H   0  0  0  0  0  0  0  0  0  0  0  0
    0.0735    0.4128    3.8885 C   0  0  0  0  0  0  0  0  0  0  0  0
    1.0159    0.9483    4.0105 H   0  0  0  0  0  0  0  0  0  0  0  0
   -0.7315    0.9748    4.3613 H   0  0  0  0  0  0  0  0  0  0  0  0
    0.1564   -0.5677    4.3577 H   0  0  0  0  0  0  0  0  0  0  0  0
  5  6  2  0  0  0  0
  5  7  1  0  0  0  0
  2  3  1  0  0  0  0
  2  4  1  0  0  0  0
  2  5  1  0  0  0  0
  1  2  1  0  0  0  0
 17 18  2  0  0  0  0
 17 19  1  0  0  0  0
 14 15  1  0  0  0  0
 14 16  2  0  0  0  0
 11 12  1  0  0  0  0
 11 13  1  0  0  0  0
 11 14  1  0  0  0  0
  9 10  1  0  0  0  0
  9 11  1  0  0  0  0
  9 17  1  0  0  0  0
  7  8  1  0  0  0  0
  7  9  1  0  0  0  0
 21 22  1  0  0  0  0
 21 23  1  0  0  0  0
 21 24  1  0  0  0  0
 19 20  1  0  0  0  0
 19 21  1  0  0  0  0
M  CHG  1  15  -1
M  END
$$$$
default_name
  -OEChem-02102213163D

 24 23  0     1  0  0  0  0  0999 V2000
   -2.8347   -3.7166    0.8034 H   0  0  0  0  0  0  0  0  0  0  0  0
   -2.7728   -2.7096    0.3954 C   0  0  0  0  0  0  0  0  0  0  0  0
   -3.4267   -2.0426    0.9524 H   0  0  0  0  0  0  0  0  0  0  0  0
   -3.0538   -2.7186   -0.6556 H   0  0  0  0  0  0  0  0  0  0  0  0
   -1.3498   -2.2206    0.5184 C   0  0  0  0  0  0  0  0  0  0  0  0
   -0.4997   -2.9426    1.0194 O   0  0  0  0  0  0  0  0  0  0  0  0
   -1.1198   -0.9926    0.0674 N   0  0  0  0  0  0  0  0  0  0  0  0
   -1.8978   -0.4486   -0.2716 H   0  0  0  0  0  0  0  0  0  0  0  0
    0.1693   -0.2866    0.0854 C   0  0  1  0  0  0  0  0  0  0  0  0
    0.9043   -0.8713   -0.4705 H   0  0  0  0  0  0  0  0  0  0  0  0
    0.0106    1.0816   -0.6124 C   0  0  0  0  0  0  0  0  0  0  0  0
   -0.5598    0.9416   -1.5323 H   0  0  0  0  0  0  0  0  0  0  0  0
   -0.5645    1.7440    0.0383 H   0  0  0  0  0  0  0  0  0  0  0  0
    1.3356    1.7641   -0.9866 C   0  0  0  0  0  0  0  0  0  0  0  0
    2.2334    1.0746   -1.5251 O   0  5  0  0  0  0  0  0  0  0  0  0
    1.4464    2.9779   -0.7099 O   0  0  0  0  0  0  0  0  0  0  0  0
    0.6664   -0.1450    1.5428 C   0  0  0  0  0  0  0  0  0  0  0  0
    1.8485   -0.3724    1.8265 O   0  0  0  0  0  0  0  0  0  0  0  0
   -0.2161    0.2434    2.4686 N   0  0  0  0  0  0  0  0  0  0  0  0
   -1.1850    0.3219    2.1537 H   0  0  0  0  0  0  0  0  0  0  0  0
    0.0735    0.4128    3.8885 C   0  0  0  0  0  0  0  0  0  0  0  0
    1.0159    0.9483    4.0105 H   0  0  0  0  0  0  0  0  0  0  0  0
   -0.7315    0.9748    4.3613 H   0  0  0  0  0  0  0  0  0  0  0  0
    0.1564   -0.5677    4.3577 H   0  0  0  0  0  0  0  0  0  0  0  0
  5  6  2  0  0  0  0
  5  7  1  0  0  0  0
  2  3  1  0  0  0  0
  2  4  1  0  0  0  0
  2  5  1  0  0  0  0
  1  2  1  0  0  0  0
 17 18  2  0  0  0  0
 17 19  1  0  0  0  0
 14 15  1  0  0  0  0
 14 16  2  0  0  0  0
 11 12  1  0  0  0  0
 11 13  1  0  0  0  0
 11 14  1  0  0  0  0
  9 10  1  0  0  0  0
  9 11  1  0  0  0  0
  9 17  1  0  0  0  0
  7  8  1  0  0  0  0
  7  9  1  0  0  0  0
 21 22  1  0  0  0  0
 21 23  1  0  0  0  0
 21 24  1  0  0  0  0
 19 20  1  0  0  0  0
 19 21  1  0  0  0  0
M  CHG  1  15  -1
M  END
$$$$
default_name
  -OEChem-02102213163D

 24 23  0     1  0  0  0  0  0999 V2000
   -2.8347   -3.7166    0.8034 H   0  0  0  0  0  0  0  0  0  0  0  0
   -2.7728   -2.7096    0.3954 C   0  0  0  0  0  0  0  0  0  0  0  0
   -3.4267   -2.0426    0.9524 H   0  0  0  0  0  0  0  0  0  0  0  0
   -3.0538   -2.7186   -0.6556 H   0  0  0  0  0  0  0  0  0  0  0  0
   -1.3498   -2.2206    0.5184 C   0  0  0  0  0  0  0  0  0  0  0  0
   -0.4997   -2.9426    1.0194 O   0  0  0  0  0  0  0  0  0  0  0  0
   -1.1198   -0.9926    0.0674 N   0  0  0  0  0  0  0  0  0  0  0  0
   -1.8978   -0.4486   -0.2716 H   0  0  0  0  0  0  0  0  0  0  0  0
    0.1693   -0.2866    0.0854 C   0  0  1  0  0  0  0  0  0  0  0  0
    0.9043   -0.8713   -0.4705 H   0  0  0  0  0  0  0  0  0  0  0  0
    0.0106    1.0816   -0.6124 C   0  0  0  0  0  0  0  0  0  0  0  0
   -0.5598    0.9416   -1.5323 H   0  0  0  0  0  0  0  0  0  0  0  0
   -0.5645    1.7440    0.0383 H   0  0  0  0  0  0  0  0  0  0  0  0
    1.3356    1.7641   -0.9866 C   0  0  0  0  0  0  0  0  0  0  0  0
    2.1151    1.1707   -1.7688 O   0  5  0  0  0  0  0  0  0  0  0  0
    1.5676    2.8764   -0.4659 O   0  0  0  0  0  0  0  0  0  0  0  0
    0.6664   -0.1450    1.5428 C   0  0  0  0  0  0  0  0  0  0  0  0
    1.8485   -0.3724    1.8265 O   0  0  0  0  0  0  0  0  0  0  0  0
   -0.2161    0.2434    2.4686 N   0  0  0  0  0  0  0  0  0  0  0  0
   -1.1850    0.3219    2.1537 H   0  0  0  0  0  0  0  0  0  0  0  0
    0.0735    0.4128    3.8885 C   0  0  0  0  0  0  0  0  0  0  0  0
    1.0159    0.9483    4.0105 H   0  0  0  0  0  0  0  0  0  0  0  0
   -0.7315    0.9748    4.3613 H   0  0  0  0  0  0  0  0  0  0  0  0
    0.1564   -0.5677    4.3577 H   0  0  0  0  0  0  0  0  0  0  0  0
  5  6  2  0  0  0  0
  5  7  1  0  0  0  0
  2  3  1  0  0  0  0
  2  4  1  0  0  0  0
  2  5  1  0  0  0  0
  1  2  1  0  0  0  0
 17 18  2  0  0  0  0
 17 19  1  0  0  0  0
 14 15  1  0  0  0  0
 14 16  2  0  0  0  0
 11 12  1  0  0  0  0
 11 13  1  0  0  0  0
 11 14  1  0  0  0  0
  9 10  1  0  0  0  0
  9 11  1  0  0  0  0
  9 17  1  0  0  0  0
  7  8  1  0  0  0  0
  7  9  1  0  0  0  0
 21 22  1  0  0  0  0
 21 23  1  0  0  0  0
 21 24  1  0  0  0  0
 19 20  1  0  0  0  0
 19 21  1  0  0  0  0
M  CHG  1  15  -1
M  END
$$$$
default_name
  -OEChem-02102213163D

 24 23  0     1  0  0  0  0  0999 V2000
   -2.8347   -3.7166    0.8034 H   0  0  0  0  0  0  0  0  0  0  0  0
   -2.7728   -2.7096    0.3954 C   0  0  0  0  0  0  0  0  0  0  0  0
   -3.4267   -2.0426    0.9524 H   0  0  0  0  0  0  0  0  0  0  0  0
   -3.0538   -2.7186   -0.6556 H   0  0  0  0  0  0  0  0  0  0  0  0
   -1.3498   -2.2206    0.5184 C   0  0  0  0  0  0  0  0  0  0  0  0
   -0.4997   -2.9426    1.0194 O   0  0  0  0  0  0  0  0  0  0  0  0
   -1.1198   -0.9926    0.0674 N   0  0  0  0  0  0  0  0  0  0  0  0
   -1.8978   -0.4486   -0.2716 H   0  0  0  0  0  0  0  0  0  0  0  0
    0.1693   -0.2866    0.0854 C   0  0  1  0  0  0  0  0  0  0  0  0
    0.9043   -0.8713   -0.4705 H   0  0  0  0  0  0  0  0  0  0  0  0
    0.0106    1.0816   -0.6124 C   0  0  0  0  0  0  0  0  0  0  0  0
   -0.5598    0.9416   -1.5323 H   0  0  0  0  0  0  0  0  0  0  0  0
   -0.5645    1.7440    0.0383 H   0  0  0  0  0  0  0  0  0  0  0  0
    1.3356    1.7641   -0.9866 C   0  0  0  0  0  0  0  0  0  0  0  0
    1.9788    1.3255   -1.9691 O   0  5  0  0  0  0  0  0  0  0  0  0
    1.7063    2.7163   -0.2668 O   0  0  0  0  0  0  0  0  0  0  0  0
    0.6664   -0.1450    1.5428 C   0  0  0  0  0  0  0  0  0  0  0  0
    1.8485   -0.3724    1.8265 O   0  0  0  0  0  0  0  0  0  0  0  0
   -0.2161    0.2434    2.4686 N   0  0  0  0  0  0  0  0  0  0  0  0
   -1.1850    0.3219    2.1537 H   0  0  0  0  0  0  0  0  0  0  0  0
    0.0735    0.4128    3.8885 C   0  0  0  0  0  0  0  0  0  0  0  0
    1.0159    0.9483    4.0105 H   0  0  0  0  0  0  0  0  0  0  0  0
   -0.7315    0.9748    4.3613 H   0  0  0  0  0  0  0  0  0  0  0  0
    0.1564   -0.5677    4.3577 H   0  0  0  0  0  0  0  0  0  0  0  0
  5  6  2  0  0  0  0
  5  7  1  0  0  0  0
  2  3  1  0  0  0  0
  2  4  1  0  0  0  0
  2  5  1  0  0  0  0
  1  2  1  0  0  0  0
 17 18  2  0  0  0  0
 17 19  1  0  0  0  0
 14 15  1  0  0  0  0
 14 16  2  0  0  0  0
 11 12  1  0  0  0  0
 11 13  1  0  0  0  0
 11 14  1  0  0  0  0
  9 10  1  0  0  0  0
  9 11  1  0  0  0  0
  9 17  1  0  0  0  0
  7  8  1  0  0  0  0
  7  9  1  0  0  0  0
 21 22  1  0  0  0  0
 21 23  1  0  0  0  0
 21 24  1  0  0  0  0
 19 20  1  0  0  0  0
 19 21  1  0  0  0  0
M  CHG  1  15  -1
M  END
$$$$
default_name
  -OEChem-02102213163D

 24 23  0     1  0  0  0  0  0999 V2000
   -2.8347   -3.7166    0.8034 H   0  0  0  0  0  0  0  0  0  0  0  0
   -2.7728   -2.7096    0.3954 C   0  0  0  0  0  0  0  0  0  0  0  0
   -3.4267   -2.0426    0.9524 H   0  0  0  0  0  0  0  0  0  0  0  0
   -3.0538   -2.7186   -0.6556 H   0  0  0  0  0  0  0  0  0  0  0  0
   -1.3498   -2.2206    0.5184 C   0  0  0  0  0  0  0  0  0  0  0  0
   -0.4997   -2.9426    1.0194 O   0  0  0  0  0  0  0  0  0  0  0  0
   -1.1198   -0.9926    0.0674 N   0  0  0  0  0  0  0  0  0  0  0  0
   -1.8978   -0.4486   -0.2716 H   0  0  0  0  0  0  0  0  0  0  0  0
    0.1693   -0.2866    0.0854 C   0  0  1  0  0  0  0  0  0  0  0  0
    0.9043   -0.8713   -0.4705 H   0  0  0  0  0  0  0  0  0  0  0  0
    0.0106    1.0816   -0.6124 C   0  0  0  0  0  0  0  0  0  0  0  0
   -0.5598    0.9416   -1.5323 H   0  0  0  0  0  0  0  0  0  0  0  0
   -0.5645    1.7440    0.0383 H   0  0  0  0  0  0  0  0  0  0  0  0
    1.3356    1.7641   -0.9866 C   0  0  0  0  0  0  0  0  0  0  0  0
    1.8339    1.5282   -2.1125 O   0  5  0  0  0  0  0  0  0  0  0  0
    1.8531    2.5085   -0.1262 O   0  0  0  0  0  0  0  0  0  0  0  0
    0.6664   -0.1450    1.5428 C   0  0  0  0  0  0  0  0  0  0  0  0
    1.8485   -0.3724    1.8265 O   0  0  0  0  0  0  0  0  0  0  0  0
   -0.2161    0.2434    2.4686 N   0  0  0  0  0  0  0  0  0  0  0  0
   -1.1850    0.3219    2.1537 H   0  0  0  0  0  0  0  0  0  0  0  0
    0.0735    0.4128    3.8885 C   0  0  0  0  0  0  0  0  0  0  0  0
    1.0159    0.9483    4.0105 H   0  0  0  0  0  0  0  0  0  0  0  0
   -0.7315    0.9748    4.3613 H   0  0  0  0  0  0  0  0  0  0  0  0
    0.1564   -0.5677    4.3577 H   0  0  0  0  0  0  0  0  0  0  0  0
  5  6  2  0  0  0  0
  5  7  1  0  0  0  0
  2  3  1  0  0  0  0
  2  4  1  0  0  0  0
  2  5  1  0  0  0  0
  1  2  1  0  0  0  0
 17 18  2  0  0  0  0
 17 19  1  0  0  0  0
 14 15  1  0  0  0  0
 14 16  2  0  0  0  0
 11 12  1  0  0  0  0
 11 13  1  0  0  0  0
 11 14  1  0  0  0  0
  9 10  1  0  0  0  0
  9 11  1  0  0  0  0
  9 17  1  0  0  0  0
  7  8  1  0  0  0  0
  7  9  1  0  0  0  0
 21 22  1  0  0  0  0
 21 23  1  0  0  0  0
 21 24  1  0  0  0  0
 19 20  1  0  0  0  0
 19 21  1  0  0  0  0
M  CHG  1  15  -1
M  END
$$$$
default_name
  -OEChem-02102213163D

 24 23  0     1  0  0  0  0  0999 V2000
   -2.8347   -3.7166    0.8034 H   0  0  0  0  0  0  0  0  0  0  0  0
   -2.7728   -2.7096    0.3954 C   0  0  0  0  0  0  0  0  0  0  0  0
   -3.4267   -2.0426    0.9524 H   0  0  0  0  0  0  0  0  0  0  0  0
   -3.0538   -2.7186   -0.6556 H   0  0  0  0  0  0  0  0  0  0  0  0
   -1.3498   -2.2206    0.5184 C   0  0  0  0  0  0  0  0  0  0  0  0
   -0.4997   -2.9426    1.0194 O   0  0  0  0  0  0  0  0  0  0  0  0
   -1.1198   -0.9926    0.0674 N   0  0  0  0  0  0  0  0  0  0  0  0
   -1.8978   -0.4486   -0.2716 H   0  0  0  0  0  0  0  0  0  0  0  0
    0.1693   -0.2866    0.0854 C   0  0  1  0  0  0  0  0  0  0  0  0
    0.9043   -0.8713   -0.4705 H   0  0  0  0  0  0  0  0  0  0  0  0
    0.0106    1.0816   -0.6124 C   0  0  0  0  0  0  0  0  0  0  0  0
   -0.5598    0.9416   -1.5323 H   0  0  0  0  0  0  0  0  0  0  0  0
   -0.5645    1.7440    0.0383 H   0  0  0  0  0  0  0  0  0  0  0  0
    1.3356    1.7641   -0.9866 C   0  0  0  0  0  0  0  0  0  0  0  0
    1.6903    1.7652   -2.1890 O   0  5  0  0  0  0  0  0  0  0  0  0
    1.9979    2.2671   -0.0535 O   0  0  0  0  0  0  0  0  0  0  0  0
    0.6664   -0.1450    1.5428 C   0  0  0  0  0  0  0  0  0  0  0  0
    1.8485   -0.3724    1.8265 O   0  0  0  0  0  0  0  0  0  0  0  0
   -0.2161    0.2434    2.4686 N   0  0  0  0  0  0  0  0  0  0  0  0
   -1.1850    0.3219    2.1537 H   0  0  0  0  0  0  0  0  0  0  0  0
    0.0735    0.4128    3.8885 C   0  0  0  0  0  0  0  0  0  0  0  0
    1.0159    0.9483    4.0105 H   0  0  0  0  0  0  0  0  0  0  0  0
   -0.7315    0.9748    4.3613 H   0  0  0  0  0  0  0  0  0  0  0  0
    0.1564   -0.5677    4.3577 H   0  0  0  0  0  0  0  0  0  0  0  0
  5  6  2  0  0  0  0
  5  7  1  0  0  0  0
  2  3  1  0  0  0  0
  2  4  1  0  0  0  0
  2  5  1  0  0  0  0
  1  2  1  0  0  0  0
 17 18  2  0  0  0  0
 17 19  1  0  0  0  0
 14 15  1  0  0  0  0
 14 16  2  0  0  0  0
 11 12  1  0  0  0  0
 11 13  1  0  0  0  0
 11 14  1  0  0  0  0
  9 10  1  0  0  0  0
  9 11  1  0  0  0  0
  9 17  1  0  0  0  0
  7  8  1  0  0  0  0
  7  9  1  0  0  0  0
 21 22  1  0  0  0  0
 21 23  1  0  0  0  0
 21 24  1  0  0  0  0
 19 20  1  0  0  0  0
 19 21  1  0  0  0  0
M  CHG  1  15  -1
M  END
$$$$
default_name
  -OEChem-02102213163D

 24 23  0     1  0  0  0  0  0999 V2000
   -2.8347   -3.7166    0.8034 H   0  0  0  0  0  0  0  0  0  0  0  0
   -2.7728   -2.7096    0.3954 C   0  0  0  0  0  0  0  0  0  0  0  0
   -3.4267   -2.0426    0.9524 H   0  0  0  0  0  0  0  0  0  0  0  0
   -3.0538   -2.7186   -0.6556 H   0  0  0  0  0  0  0  0  0  0  0  0
   -1.3498   -2.2206    0.5184 C   0  0  0  0  0  0  0  0  0  0  0  0
   -0.4997   -2.9426    1.0194 O   0  0  0  0  0  0  0  0  0  0  0  0
   -1.1198   -0.9926    0.0674 N   0  0  0  0  0  0  0  0  0  0  0  0
   -1.8978   -0.4486   -0.2716 H   0  0  0  0  0  0  0  0  0  0  0  0
    0.1693   -0.2866    0.0854 C   0  0  1  0  0  0  0  0  0  0  0  0
    0.9043   -0.8713   -0.4705 H   0  0  0  0  0  0  0  0  0  0  0  0
    0.0106    1.0816   -0.6124 C   0  0  0  0  0  0  0  0  0  0  0  0
   -0.5598    0.9416   -1.5323 H   0  0  0  0  0  0  0  0  0  0  0  0
   -0.5645    1.7440    0.0383 H   0  0  0  0  0  0  0  0  0  0  0  0
    1.3356    1.7641   -0.9866 C   0  0  0  0  0  0  0  0  0  0  0  0
    1.5576    2.0202   -2.1935 O   0  5  0  0  0  0  0  0  0  0  0  0
    2.1310    2.0086   -0.0539 O   0  0  0  0  0  0  0  0  0  0  0  0
    0.6664   -0.1450    1.5428 C   0  0  0  0  0  0  0  0  0  0  0  0
    1.8485   -0.3724    1.8265 O   0  0  0  0  0  0  0  0  0  0  0  0
   -0.2161    0.2434    2.4686 N   0  0  0  0  0  0  0  0  0  0  0  0
   -1.1850    0.3219    2.1537 H   0  0  0  0  0  0  0  0  0  0  0  0
    0.0735    0.4128    3.8885 C   0  0  0  0  0  0  0  0  0  0  0  0
    1.0159    0.9483    4.0105 H   0  0  0  0  0  0  0  0  0  0  0  0
   -0.7315    0.9748    4.3613 H   0  0  0  0  0  0  0  0  0  0  0  0
    0.1564   -0.5677    4.3577 H   0  0  0  0  0  0  0  0  0  0  0  0
  5  6  2  0  0  0  0
  5  7  1  0  0  0  0
  2  3  1  0  0  0  0
  2  4  1  0  0  0  0
  2  5  1  0  0  0  0
  1  2  1  0  0  0  0
 17 18  2  0  0  0  0
 17 19  1  0  0  0  0
 14 15  1  0  0  0  0
 14 16  2  0  0  0  0
 11 12  1  0  0  0  0
 11 13  1  0  0  0  0
 11 14  1  0  0  0  0
  9 10  1  0  0  0  0
  9 11  1  0  0  0  0
  9 17  1  0  0  0  0
  7  8  1  0  0  0  0
  7  9  1  0  0  0  0
 21 22  1  0  0  0  0
 21 23  1  0  0  0  0
 21 24  1  0  0  0  0
 19 20  1  0  0  0  0
 19 21  1  0  0  0  0
M  CHG  1  15  -1
M  END
$$$$
default_name
  -OEChem-02102213163D

 24 23  0     1  0  0  0  0  0999 V2000
   -2.8347   -3.7166    0.8034 H   0  0  0  0  0  0  0  0  0  0  0  0
   -2.7728   -2.7096    0.3954 C   0  0  0  0  0  0  0  0  0  0  0  0
   -3.4267   -2.0426    0.9524 H   0  0  0  0  0  0  0  0  0  0  0  0
   -3.0538   -2.7186   -0.6556 H   0  0  0  0  0  0  0  0  0  0  0  0
   -1.3498   -2.2206    0.5184 C   0  0  0  0  0  0  0  0  0  0  0  0
   -0.4997   -2.9426    1.0194 O   0  0  0  0  0  0  0  0  0  0  0  0
   -1.1198   -0.9926    0.0674 N   0  0  0  0  0  0  0  0  0  0  0  0
   -1.8978   -0.4486   -0.2716 H   0  0  0  0  0  0  0  0  0  0  0  0
    0.1693   -0.2866    0.0854 C   0  0  1  0  0  0  0  0  0  0  0  0
    0.9043   -0.8713   -0.4705 H   0  0  0  0  0  0  0  0  0  0  0  0
    0.0106    1.0816   -0.6124 C   0  0  0  0  0  0  0  0  0  0  0  0
   -0.5598    0.9416   -1.5323 H   0  0  0  0  0  0  0  0  0  0  0  0
   -0.5645    1.7440    0.0383 H   0  0  0  0  0  0  0  0  0  0  0  0
    1.3356    1.7641   -0.9866 C   0  0  0  0  0  0  0  0  0  0  0  0
    1.4451    2.2759   -2.1257 O   0  5  0  0  0  0  0  0  0  0  0  0
    2.2431    1.7506   -0.1273 O   0  0  0  0  0  0  0  0  0  0  0  0
    0.6664   -0.1450    1.5428 C   0  0  0  0  0  0  0  0  0  0  0  0
    1.8485   -0.3724    1.8265 O   0  0  0  0  0  0  0  0  0  0  0  0
   -0.2161    0.2434    2.4686 N   0  0  0  0  0  0  0  0  0  0  0  0
   -1.1850    0.3219    2.1537 H   0  0  0  0  0  0  0  0  0  0  0  0
    0.0735    0.4128    3.8885 C   0  0  0  0  0  0  0  0  0  0  0  0
    1.0159    0.9483    4.0105 H   0  0  0  0  0  0  0  0  0  0  0  0
   -0.7315    0.9748    4.3613 H   0  0  0  0  0  0  0  0  0  0  0  0
    0.1564   -0.5677    4.3577 H   0  0  0  0  0  0  0  0  0  0  0  0
  5  6  2  0  0  0  0
  5  7  1  0  0  0  0
  2  3  1  0  0  0  0
  2  4  1  0  0  0  0
  2  5  1  0  0  0  0
  1  2  1  0  0  0  0
 17 18  2  0  0  0  0
 17 19  1  0  0  0  0
 14 15  1  0  0  0  0
 14 16  2  0  0  0  0
 11 12  1  0  0  0  0
 11 13  1  0  0  0  0
 11 14  1  0  0  0  0
  9 10  1  0  0  0  0
  9 11  1  0  0  0  0
  9 17  1  0  0  0  0
  7  8  1  0  0  0  0
  7  9  1  0  0  0  0
 21 22  1  0  0  0  0
 21 23  1  0  0  0  0
 21 24  1  0  0  0  0
 19 20  1  0  0  0  0
 19 21  1  0  0  0  0
M  CHG  1  15  -1
M  END
$$$$
default_name
  -OEChem-02102213163D

 24 23  0     1  0  0  0  0  0999 V2000
   -2.8347   -3.7166    0.8034 H   0  0  0  0  0  0  0  0  0  0  0  0
   -2.7728   -2.7096    0.3954 C   0  0  0  0  0  0  0  0  0  0  0  0
   -3.4267   -2.0426    0.9524 H   0  0  0  0  0  0  0  0  0  0  0  0
   -3.0538   -2.7186   -0.6556 H   0  0  0  0  0  0  0  0  0  0  0  0
   -1.3498   -2.2206    0.5184 C   0  0  0  0  0  0  0  0  0  0  0  0
   -0.4997   -2.9426    1.0194 O   0  0  0  0  0  0  0  0  0  0  0  0
   -1.1198   -0.9926    0.0674 N   0  0  0  0  0  0  0  0  0  0  0  0
   -1.8978   -0.4486   -0.2716 H   0  0  0  0  0  0  0  0  0  0  0  0
    0.1693   -0.2866    0.0854 C   0  0  1  0  0  0  0  0  0  0  0  0
    0.9043   -0.8713   -0.4705 H   0  0  0  0  0  0  0  0  0  0  0  0
    0.0106    1.0816   -0.6124 C   0  0  0  0  0  0  0  0  0  0  0  0
   -0.5598    0.9416   -1.5323 H   0  0  0  0  0  0  0  0  0  0  0  0
   -0.5645    1.7440    0.0383 H   0  0  0  0  0  0  0  0  0  0  0  0
    1.3356    1.7641   -0.9866 C   0  0  0  0  0  0  0  0  0  0  0  0
    1.3602    2.5149   -1.9903 O   0  5  0  0  0  0  0  0  0  0  0  0
    2.3268    1.5107   -0.2686 O   0  0  0  0  0  0  0  0  0  0  0  0
    0.6664   -0.1450    1.5428 C   0  0  0  0  0  0  0  0  0  0  0  0
    1.8485   -0.3724    1.8265 O   0  0  0  0  0  0  0  0  0  0  0  0
   -0.2161    0.2434    2.4686 N   0  0  0  0  0  0  0  0  0  0  0  0
   -1.1850    0.3219    2.1537 H   0  0  0  0  0  0  0  0  0  0  0  0
    0.0735    0.4128    3.8885 C   0  0  0  0  0  0  0  0  0  0  0  0
    1.0159    0.9483    4.0105 H   0  0  0  0  0  0  0  0  0  0  0  0
   -0.7315    0.9748    4.3613 H   0  0  0  0  0  0  0  0  0  0  0  0
    0.1564   -0.5677    4.3577 H   0  0  0  0  0  0  0  0  0  0  0  0
  5  6  2  0  0  0  0
  5  7  1  0  0  0  0
  2  3  1  0  0  0  0
  2  4  1  0  0  0  0
  2  5  1  0  0  0  0
  1  2  1  0  0  0  0
 17 18  2  0  0  0  0
 17 19  1  0  0  0  0
 14 15  1  0  0  0  0
 14 16  2  0  0  0  0
 11 12  1  0  0  0  0
 11 13  1  0  0  0  0
 11 14  1  0  0  0  0
  9 10  1  0  0  0  0
  9 11  1  0  0  0  0
  9 17  1  0  0  0  0
  7  8  1  0  0  0  0
  7  9  1  0  0  0  0
 21 22  1  0  0  0  0
 21 23  1  0  0  0  0
 21 24  1  0  0  0  0
 19 20  1  0  0  0  0
 19 21  1  0  0  0  0
M  CHG  1  15  -1
M  END
$$$$
default_name
  -OEChem-02102213163D

 24 23  0     1  0  0  0  0  0999 V2000
   -2.8347   -3.7166    0.8034 H   0  0  0  0  0  0  0  0  0  0  0  0
   -2.7728   -2.7096    0.3954 C   0  0  0  0  0  0  0  0  0  0  0  0
   -3.4267   -2.0426    0.9524 H   0  0  0  0  0  0  0  0  0  0  0  0
   -3.0538   -2.7186   -0.6556 H   0  0  0  0  0  0  0  0  0  0  0  0
   -1.3498   -2.2206    0.5184 C   0  0  0  0  0  0  0  0  0  0  0  0
   -0.4997   -2.9426    1.0194 O   0  0  0  0  0  0  0  0  0  0  0  0
   -1.1198   -0.9926    0.0674 N   0  0  0  0  0  0  0  0  0  0  0  0
   -1.8978   -0.4486   -0.2716 H   0  0  0  0  0  0  0  0  0  0  0  0
    0.1693   -0.2866    0.0854 C   0  0  1  0  0  0  0  0  0  0  0  0
    0.9043   -0.8713   -0.4705 H   0  0  0  0  0  0  0  0  0  0  0  0
    0.0106    1.0816   -0.6124 C   0  0  0  0  0  0  0  0  0  0  0  0
   -0.5598    0.9416   -1.5323 H   0  0  0  0  0  0  0  0  0  0  0  0
   -0.5645    1.7440    0.0383 H   0  0  0  0  0  0  0  0  0  0  0  0
    1.3356    1.7641   -0.9866 C   0  0  0  0  0  0  0  0  0  0  0  0
    1.3089    2.7208   -1.7963 O   0  5  0  0  0  0  0  0  0  0  0  0
    2.3762    1.3052   -0.4683 O   0  0  0  0  0  0  0  0  0  0  0  0
    0.6664   -0.1450    1.5428 C   0  0  0  0  0  0  0  0  0  0  0  0
    1.8485   -0.3724    1.8265 O   0  0  0  0  0  0  0  0  0  0  0  0
   -0.2161    0.2434    2.4686 N   0  0  0  0  0  0  0  0  0  0  0  0
   -1.1850    0.3219    2.1537 H   0  0  0  0  0  0  0  0  0  0  0  0
    0.0735    0.4128    3.8885 C   0  0  0  0  0  0  0  0  0  0  0  0
    1.0159    0.9483    4.0105 H   0  0  0  0  0  0  0  0  0  0  0  0
   -0.7315    0.9748    4.3613 H   0  0  0  0  0  0  0  0  0  0  0  0
    0.1564   -0.5677    4.3577 H   0  0  0  0  0  0  0  0  0  0  0  0
  5  6  2  0  0  0  0
  5  7  1  0  0  0  0
  2  3  1  0  0  0  0
  2  4  1  0  0  0  0
  2  5  1  0  0  0  0
  1  2  1  0  0  0  0
 17 18  2  0  0  0  0
 17 19  1  0  0  0  0
 14 15  1  0  0  0  0
 14 16  2  0  0  0  0
 11 12  1  0  0  0  0
 11 13  1  0  0  0  0
 11 14  1  0  0  0  0
  9 10  1  0  0  0  0
  9 11  1  0  0  0  0
  9 17  1  0  0  0  0
  7  8  1  0  0  0  0
  7  9  1  0  0  0  0
 21 22  1  0  0  0  0
 21 23  1  0  0  0  0
 21 24  1  0  0  0  0
 19 20  1  0  0  0  0
 19 21  1  0  0  0  0
M  CHG  1  15  -1
M  END
$$$$
default_name
  -OEChem-02102213163D

 24 23  0     1  0  0  0  0  0999 V2000
   -2.8347   -3.7166    0.8034 H   0  0  0  0  0  0  0  0  0  0  0  0
   -2.7728   -2.7096    0.3954 C   0  0  0  0  0  0  0  0  0  0  0  0
   -3.4267   -2.0426    0.9524 H   0  0  0  0  0  0  0  0  0  0  0  0
   -3.0538   -2.7186   -0.6556 H   0  0  0  0  0  0  0  0  0  0  0  0
   -1.3498   -2.2206    0.5184 C   0  0  0  0  0  0  0  0  0  0  0  0
   -0.4997   -2.9426    1.0194 O   0  0  0  0  0  0  0  0  0  0  0  0
   -1.1198   -0.9926    0.0674 N   0  0  0  0  0  0  0  0  0  0  0  0
   -1.8978   -0.4486   -0.2716 H   0  0  0  0  0  0  0  0  0  0  0  0
    0.1693   -0.2866    0.0854 C   0  0  1  0  0  0  0  0  0  0  0  0
    0.9043   -0.8713   -0.4705 H   0  0  0  0  0  0  0  0  0  0  0  0
    0.0106    1.0816   -0.6124 C   0  0  0  0  0  0  0  0  0  0  0  0
   -0.7690    0.9992   -1.3719 H   0  0  0  0  0  0  0  0  0  0  0  0
   -0.3194    1.8166    0.1250 H   0  0  0  0  0  0  0  0  0  0  0  0
    1.2822    1.5952   -1.3057 C   0  0  0  0  0  0  0  0  0  0  0  0
    1.2379    2.7001   -1.8963 O   0  5  0  0  0  0  0  0  0  0  0  0
    2.2924    0.8609   -1.2542 O   0  0  0  0  0  0  0  0  0  0  0  0
    0.6664   -0.1450    1.5428 C   0  0  0  0  0  0  0  0  0  0  0  0
    1.8485   -0.3724    1.8265 O   0  0  0  0  0  0  0  0  0  0  0  0
   -0.2161    0.2434    2.4686 N   0  0  0  0  0  0  0  0  0  0  0  0
   -1.1850    0.3219    2.1537 H   0  0  0  0  0  0  0  0  0  0  0  0
    0.0735    0.4128    3.8885 C   0  0  0  0  0  0  0  0  0  0  0  0
    1.0159    0.9483    4.0105 H   0  0  0  0  0  0  0  0  0  0  0  0
   -0.7315    0.9748    4.3613 H   0  0  0  0  0  0  0  0  0  0  0  0
    0.1564   -0.5677    4.3577 H   0  0  0  0  0  0  0  0  0  0  0  0
  5  6  2  0  0  0  0
  5  7  1  0  0  0  0
  2  3  1  0  0  0  0
  2  4  1  0  0  0  0
  2  5  1  0  0  0  0
  1  2  1  0  0  0  0
 17 18  2  0  0  0  0
 17 19  1  0  0  0  0
 14 15  1  0  0  0  0
 14 16  2  0  0  0  0
 11 12  1  0  0  0  0
 11 13  1  0  0  0  0
 11 14  1  0  0  0  0
  9 10  1  0  0  0  0
  9 11  1  0  0  0  0
  9 17  1  0  0  0  0
  7  8  1  0  0  0  0
  7  9  1  0  0  0  0
 21 22  1  0  0  0  0
 21 23  1  0  0  0  0
 21 24  1  0  0  0  0
 19 20  1  0  0  0  0
 19 21  1  0  0  0  0
M  CHG  1  15  -1
M  END
$$$$
default_name
  -OEChem-02102213163D

 24 23  0     1  0  0  0  0  0999 V2000
   -2.8347   -3.7166    0.8034 H   0  0  0  0  0  0  0  0  0  0  0  0
   -2.7728   -2.7096    0.3954 C   0  0  0  0  0  0  0  0  0  0  0  0
   -3.4267   -2.0426    0.9524 H   0  0  0  0  0  0  0  0  0  0  0  0
   -3.0538   -2.7186   -0.6556 H   0  0  0  0  0  0  0  0  0  0  0  0
   -1.3498   -2.2206    0.5184 C   0  0  0  0  0  0  0  0  0  0  0  0
   -0.4997   -2.9426    1.0194 O   0  0  0  0  0  0  0  0  0  0  0  0
   -1.1198   -0.9926    0.0674 N   0  0  0  0  0  0  0  0  0  0  0  0
   -1.8978   -0.4486   -0.2716 H   0  0  0  0  0  0  0  0  0  0  0  0
    0.1693   -0.2866    0.0854 C   0  0  1  0  0  0  0  0  0  0  0  0
    0.9043   -0.8713   -0.4705 H   0  0  0  0  0  0  0  0  0  0  0  0
    0.0106    1.0816   -0.6124 C   0  0  0  0  0  0  0  0  0  0  0  0
   -0.7690    0.9992   -1.3719 H   0  0  0  0  0  0  0  0  0  0  0  0
   -0.3194    1.8166    0.1250 H   0  0  0  0  0  0  0  0  0  0  0  0
    1.2822    1.5952   -1.3057 C   0  0  0  0  0  0  0  0  0  0  0  0
    1.3343    2.8009   -1.6450 O   0  5  0  0  0  0  0  0  0  0  0  0
    2.1927    0.7634   -1.5093 O   0  0  0  0  0  0  0  0  0  0  0  0
    0.6664   -0.1450    1.5428 C   0  0  0  0  0  0  0  0  0  0  0  0
    1.8485   -0.3724    1.8265 O   0  0  0  0  0  0  0  0  0  0  0  0
   -0.2161    0.2434    2.4686 N   0  0  0  0  0  0  0  0  0  0  0  0
   -1.1850    0.3219    2.1537 H   0  0  0  0  0  0  0  0  0  0  0  0
    0.0735    0.4128    3.8885 C   0  0  0  0  0  0  0  0  0  0  0  0
    1.0159    0.9483    4.0105 H   0  0  0  0  0  0  0  0  0  0  0  0
   -0.7315    0.9748    4.3613 H   0  0  0  0  0  0  0  0  0  0  0  0
    0.1564   -0.5677    4.3577 H   0  0  0  0  0  0  0  0  0  0  0  0
  5  6  2  0  0  0  0
  5  7  1  0  0  0  0
  2  3  1  0  0  0  0
  2  4  1  0  0  0  0
  2  5  1  0  0  0  0
  1  2  1  0  0  0  0
 17 18  2  0  0  0  0
 17 19  1  0  0  0  0
 14 15  1  0  0  0  0
 14 16  2  0  0  0  0
 11 12  1  0  0  0  0
 11 13  1  0  0  0  0
 11 14  1  0  0  0  0
  9 10  1  0  0  0  0
  9 11  1  0  0  0  0
  9 17  1  0  0  0  0
  7  8  1  0  0  0  0
  7  9  1  0  0  0  0
 21 22  1  0  0  0  0
 21 23  1  0  0  0  0
 21 24  1  0  0  0  0
 19 20  1  0  0  0  0
 19 21  1  0  0  0  0
M  CHG  1  15  -1
M  END
$$$$
default_name
  -OEChem-02102213163D

 24 23  0     1  0  0  0  0  0999 V2000
   -2.8347   -3.7166    0.8034 H   0  0  0  0  0  0  0  0  0  0  0  0
   -2.7728   -2.7096    0.3954 C   0  0  0  0  0  0  0  0  0  0  0  0
   -3.4267   -2.0426    0.9524 H   0  0  0  0  0  0  0  0  0  0  0  0
   -3.0538   -2.7186   -0.6556 H   0  0  0  0  0  0  0  0  0  0  0  0
   -1.3498   -2.2206    0.5184 C   0  0  0  0  0  0  0  0  0  0  0  0
   -0.4997   -2.9426    1.0194 O   0  0  0  0  0  0  0  0  0  0  0  0
   -1.1198   -0.9926    0.0674 N   0  0  0  0  0  0  0  0  0  0  0  0
   -1.8978   -0.4486   -0.2716 H   0  0  0  0  0  0  0  0  0  0  0  0
    0.1693   -0.2866    0.0854 C   0  0  1  0  0  0  0  0  0  0  0  0
    0.9043   -0.8713   -0.4705 H   0  0  0  0  0  0  0  0  0  0  0  0
    0.0106    1.0816   -0.6124 C   0  0  0  0  0  0  0  0  0  0  0  0
   -0.7690    0.9992   -1.3719 H   0  0  0  0  0  0  0  0  0  0  0  0
   -0.3194    1.8166    0.1250 H   0  0  0  0  0  0  0  0  0  0  0  0
    1.2822    1.5952   -1.3057 C   0  0  0  0  0  0  0  0  0  0  0  0
    1.4608    2.8332   -1.3889 O   0  5  0  0  0  0  0  0  0  0  0  0
    2.0629    0.7355   -1.7679 O   0  0  0  0  0  0  0  0  0  0  0  0
    0.6664   -0.1450    1.5428 C   0  0  0  0  0  0  0  0  0  0  0  0
    1.8485   -0.3724    1.8265 O   0  0  0  0  0  0  0  0  0  0  0  0
   -0.2161    0.2434    2.4686 N   0  0  0  0  0  0  0  0  0  0  0  0
   -1.1850    0.3219    2.1537 H   0  0  0  0  0  0  0  0  0  0  0  0
    0.0735    0.4128    3.8885 C   0  0  0  0  0  0  0  0  0  0  0  0
    1.0159    0.9483    4.0105 H   0  0  0  0  0  0  0  0  0  0  0  0
   -0.7315    0.9748    4.3613 H   0  0  0  0  0  0  0  0  0  0  0  0
    0.1564   -0.5677    4.3577 H   0  0  0  0  0  0  0  0  0  0  0  0
  5  6  2  0  0  0  0
  5  7  1  0  0  0  0
  2  3  1  0  0  0  0
  2  4  1  0  0  0  0
  2  5  1  0  0  0  0
  1  2  1  0  0  0  0
 17 18  2  0  0  0  0
 17 19  1  0  0  0  0
 14 15  1  0  0  0  0
 14 16  2  0  0  0  0
 11 12  1  0  0  0  0
 11 13  1  0  0  0  0
 11 14  1  0  0  0  0
  9 10  1  0  0  0  0
  9 11  1  0  0  0  0
  9 17  1  0  0  0  0
  7  8  1  0  0  0  0
  7  9  1  0  0  0  0
 21 22  1  0  0  0  0
 21 23  1  0  0  0  0
 21 24  1  0  0  0  0
 19 20  1  0  0  0  0
 19 21  1  0  0  0  0
M  CHG  1  15  -1
M  END
$$$$
default_name
  -OEChem-02102213163D

 24 23  0     1  0  0  0  0  0999 V2000
   -2.8347   -3.7166    0.8034 H   0  0  0  0  0  0  0  0  0  0  0  0
   -2.7728   -2.7096    0.3954 C   0  0  0  0  0  0  0  0  0  0  0  0
   -3.4267   -2.0426    0.9524 H   0  0  0  0  0  0  0  0  0  0  0  0
   -3.0538   -2.7186   -0.6556 H   0  0  0  0  0  0  0  0  0  0  0  0
   -1.3498   -2.2206    0.5184 C   0  0  0  0  0  0  0  0  0  0  0  0
   -0.4997   -2.9426    1.0194 O   0  0  0  0  0  0  0  0  0  0  0  0
   -1.1198   -0.9926    0.0674 N   0  0  0  0  0  0  0  0  0  0  0  0
   -1.8978   -0.4486   -0.2716 H   0  0  0  0  0  0  0  0  0  0  0  0
    0.1693   -0.2866    0.0854 C   0  0  1  0  0  0  0  0  0  0  0  0
    0.9043   -0.8713   -0.4705 H   0  0  0  0  0  0  0  0  0  0  0  0
    0.0106    1.0816   -0.6124 C   0  0  0  0  0  0  0  0  0  0  0  0
   -0.7690    0.9992   -1.3719 H   0  0  0  0  0  0  0  0  0  0  0  0
   -0.3194    1.8166    0.1250 H   0  0  0  0  0  0  0  0  0  0  0  0
    1.2822    1.5952   -1.3057 C   0  0  0  0  0  0  0  0  0  0  0  0
    1.6090    2.7948   -1.1455 O   0  5  0  0  0  0  0  0  0  0  0  0
    1.9120    0.7791   -2.0125 O   0  0  0  0  0  0  0  0  0  0  0  0
    0.6664   -0.1450    1.5428 C   0  0  0  0  0  0  0  0  0  0  0  0
    1.8485   -0.3724    1.8265 O   0  0  0  0  0  0  0  0  0  0  0  0
   -0.2161    0.2434    2.4686 N   0  0  0  0  0  0  0  0  0  0  0  0
   -1.1850    0.3219    2.1537 H   0  0  0  0  0  0  0  0  0  0  0  0
    0.0735    0.4128    3.8885 C   0  0  0  0  0  0  0  0  0  0  0  0
    1.0159    0.9483    4.0105 H   0  0  0  0  0  0  0  0  0  0  0  0
   -0.7315    0.9748    4.3613 H   0  0  0  0  0  0  0  0  0  0  0  0
    0.1564   -0.5677    4.3577 H   0  0  0  0  0  0  0  0  0  0  0  0
  5  6  2  0  0  0  0
  5  7  1  0  0  0  0
  2  3  1  0  0  0  0
  2  4  1  0  0  0  0
  2  5  1  0  0  0  0
  1  2  1  0  0  0  0
 17 18  2  0  0  0  0
 17 19  1  0  0  0  0
 14 15  1  0  0  0  0
 14 16  2  0  0  0  0
 11 12  1  0  0  0  0
 11 13  1  0  0  0  0
 11 14  1  0  0  0  0
  9 10  1  0  0  0  0
  9 11  1  0  0  0  0
  9 17  1  0  0  0  0
  7  8  1  0  0  0  0
  7  9  1  0  0  0  0
 21 22  1  0  0  0  0
 21 23  1  0  0  0  0
 21 24  1  0  0  0  0
 19 20  1  0  0  0  0
 19 21  1  0  0  0  0
M  CHG  1  15  -1
M  END
$$$$
default_name
  -OEChem-02102213163D

 24 23  0     1  0  0  0  0  0999 V2000
   -2.8347   -3.7166    0.8034 H   0  0  0  0  0  0  0  0  0  0  0  0
   -2.7728   -2.7096    0.3954 C   0  0  0  0  0  0  0  0  0  0  0  0
   -3.4267   -2.0426    0.9524 H   0  0  0  0  0  0  0  0  0  0  0  0
   -3.0538   -2.7186   -0.6556 H   0  0  0  0  0  0  0  0  0  0  0  0
   -1.3498   -2.2206    0.5184 C   0  0  0  0  0  0  0  0  0  0  0  0
   -0.4997   -2.9426    1.0194 O   0  0  0  0  0  0  0  0  0  0  0  0
   -1.1198   -0.9926    0.0674 N   0  0  0  0  0  0  0  0  0  0  0  0
   -1.8978   -0.4486   -0.2716 H   0  0  0  0  0  0  0  0  0  0  0  0
    0.1693   -0.2866    0.0854 C   0  0  1  0  0  0  0  0  0  0  0  0
    0.9043   -0.8713   -0.4705 H   0  0  0  0  0  0  0  0  0  0  0  0
    0.0106    1.0816   -0.6124 C   0  0  0  0  0  0  0  0  0  0  0  0
   -0.7690    0.9992   -1.3719 H   0  0  0  0  0  0  0  0  0  0  0  0
   -0.3194    1.8166    0.1250 H   0  0  0  0  0  0  0  0  0  0  0  0
    1.2822    1.5952   -1.3057 C   0  0  0  0  0  0  0  0  0  0  0  0
    1.7687    2.6883   -0.9315 O   0  5  0  0  0  0  0  0  0  0  0  0
    1.7501    0.8913   -2.2264 O   0  0  0  0  0  0  0  0  0  0  0  0
    0.6664   -0.1450    1.5428 C   0  0  0  0  0  0  0  0  0  0  0  0
    1.8485   -0.3724    1.8265 O   0  0  0  0  0  0  0  0  0  0  0  0
   -0.2161    0.2434    2.4686 N   0  0  0  0  0  0  0  0  0  0  0  0
   -1.1850    0.3219    2.1537 H   0  0  0  0  0  0  0  0  0  0  0  0
    0.0735    0.4128    3.8885 C   0  0  0  0  0  0  0  0  0  0  0  0
    1.0159    0.9483    4.0105 H   0  0  0  0  0  0  0  0  0  0  0  0
   -0.7315    0.9748    4.3613 H   0  0  0  0  0  0  0  0  0  0  0  0
    0.1564   -0.5677    4.3577 H   0  0  0  0  0  0  0  0  0  0  0  0
  5  6  2  0  0  0  0
  5  7  1  0  0  0  0
  2  3  1  0  0  0  0
  2  4  1  0  0  0  0
  2  5  1  0  0  0  0
  1  2  1  0  0  0  0
 17 18  2  0  0  0  0
 17 19  1  0  0  0  0
 14 15  1  0  0  0  0
 14 16  2  0  0  0  0
 11 12  1  0  0  0  0
 11 13  1  0  0  0  0
 11 14  1  0  0  0  0
  9 10  1  0  0  0  0
  9 11  1  0  0  0  0
  9 17  1  0  0  0  0
  7  8  1  0  0  0  0
  7  9  1  0  0  0  0
 21 22  1  0  0  0  0
 21 23  1  0  0  0  0
 21 24  1  0  0  0  0
 19 20  1  0  0  0  0
 19 21  1  0  0  0  0
M  CHG  1  15  -1
M  END
$$$$
default_name
  -OEChem-02102213163D

 24 23  0     1  0  0  0  0  0999 V2000
   -2.8347   -3.7166    0.8034 H   0  0  0  0  0  0  0  0  0  0  0  0
   -2.7728   -2.7096    0.3954 C   0  0  0  0  0  0  0  0  0  0  0  0
   -3.4267   -2.0426    0.9524 H   0  0  0  0  0  0  0  0  0  0  0  0
   -3.0538   -2.7186   -0.6556 H   0  0  0  0  0  0  0  0  0  0  0  0
   -1.3498   -2.2206    0.5184 C   0  0  0  0  0  0  0  0  0  0  0  0
   -0.4997   -2.9426    1.0194 O   0  0  0  0  0  0  0  0  0  0  0  0
   -1.1198   -0.9926    0.0674 N   0  0  0  0  0  0  0  0  0  0  0  0
   -1.8978   -0.4486   -0.2716 H   0  0  0  0  0  0  0  0  0  0  0  0
    0.1693   -0.2866    0.0854 C   0  0  1  0  0  0  0  0  0  0  0  0
    0.9043   -0.8713   -0.4705 H   0  0  0  0  0  0  0  0  0  0  0  0
    0.0106    1.0816   -0.6124 C   0  0  0  0  0  0  0  0  0  0  0  0
   -0.7690    0.9992   -1.3719 H   0  0  0  0  0  0  0  0  0  0  0  0
   -0.3194    1.8166    0.1250 H   0  0  0  0  0  0  0  0  0  0  0  0
    1.2822    1.5952   -1.3057 C   0  0  0  0  0  0  0  0  0  0  0  0
    1.9290    2.5210   -0.7614 O   0  5  0  0  0  0  0  0  0  0  0  0
    1.5883    1.0643   -2.3950 O   0  0  0  0  0  0  0  0  0  0  0  0
    0.6664   -0.1450    1.5428 C   0  0  0  0  0  0  0  0  0  0  0  0
    1.8485   -0.3724    1.8265 O   0  0  0  0  0  0  0  0  0  0  0  0
   -0.2161    0.2434    2.4686 N   0  0  0  0  0  0  0  0  0  0  0  0
   -1.1850    0.3219    2.1537 H   0  0  0  0  0  0  0  0  0  0  0  0
    0.0735    0.4128    3.8885 C   0  0  0  0  0  0  0  0  0  0  0  0
    1.0159    0.9483    4.0105 H   0  0  0  0  0  0  0  0  0  0  0  0
   -0.7315    0.9748    4.3613 H   0  0  0  0  0  0  0  0  0  0  0  0
    0.1564   -0.5677    4.3577 H   0  0  0  0  0  0  0  0  0  0  0  0
  5  6  2  0  0  0  0
  5  7  1  0  0  0  0
  2  3  1  0  0  0  0
  2  4  1  0  0  0  0
  2  5  1  0  0  0  0
  1  2  1  0  0  0  0
 17 18  2  0  0  0  0
 17 19  1  0  0  0  0
 14 15  1  0  0  0  0
 14 16  2  0  0  0  0
 11 12  1  0  0  0  0
 11 13  1  0  0  0  0
 11 14  1  0  0  0  0
  9 10  1  0  0  0  0
  9 11  1  0  0  0  0
  9 17  1  0  0  0  0
  7  8  1  0  0  0  0
  7  9  1  0  0  0  0
 21 22  1  0  0  0  0
 21 23  1  0  0  0  0
 21 24  1  0  0  0  0
 19 20  1  0  0  0  0
 19 21  1  0  0  0  0
M  CHG  1  15  -1
M  END
$$$$
default_name
  -OEChem-02102213163D

 24 23  0     1  0  0  0  0  0999 V2000
   -2.8347   -3.7166    0.8034 H   0  0  0  0  0  0  0  0  0  0  0  0
   -2.7728   -2.7096    0.3954 C   0  0  0  0  0  0  0  0  0  0  0  0
   -3.4267   -2.0426    0.9524 H   0  0  0  0  0  0  0  0  0  0  0  0
   -3.0538   -2.7186   -0.6556 H   0  0  0  0  0  0  0  0  0  0  0  0
   -1.3498   -2.2206    0.5184 C   0  0  0  0  0  0  0  0  0  0  0  0
   -0.4997   -2.9426    1.0194 O   0  0  0  0  0  0  0  0  0  0  0  0
   -1.1198   -0.9926    0.0674 N   0  0  0  0  0  0  0  0  0  0  0  0
   -1.8978   -0.4486   -0.2716 H   0  0  0  0  0  0  0  0  0  0  0  0
    0.1693   -0.2866    0.0854 C   0  0  1  0  0  0  0  0  0  0  0  0
    0.9043   -0.8713   -0.4705 H   0  0  0  0  0  0  0  0  0  0  0  0
    0.0106    1.0816   -0.6124 C   0  0  0  0  0  0  0  0  0  0  0  0
   -0.7690    0.9992   -1.3719 H   0  0  0  0  0  0  0  0  0  0  0  0
   -0.3194    1.8166    0.1250 H   0  0  0  0  0  0  0  0  0  0  0  0
    1.2822    1.5952   -1.3057 C   0  0  0  0  0  0  0  0  0  0  0  0
    2.0790    2.3042   -0.6468 O   0  5  0  0  0  0  0  0  0  0  0  0
    1.4377    1.2864   -2.5068 O   0  0  0  0  0  0  0  0  0  0  0  0
    0.6664   -0.1450    1.5428 C   0  0  0  0  0  0  0  0  0  0  0  0
    1.8485   -0.3724    1.8265 O   0  0  0  0  0  0  0  0  0  0  0  0
   -0.2161    0.2434    2.4686 N   0  0  0  0  0  0  0  0  0  0  0  0
   -1.1850    0.3219    2.1537 H   0  0  0  0  0  0  0  0  0  0  0  0
    0.0735    0.4128    3.8885 C   0  0  0  0  0  0  0  0  0  0  0  0
    1.0159    0.9483    4.0105 H   0  0  0  0  0  0  0  0  0  0  0  0
   -0.7315    0.9748    4.3613 H   0  0  0  0  0  0  0  0  0  0  0  0
    0.1564   -0.5677    4.3577 H   0  0  0  0  0  0  0  0  0  0  0  0
  5  6  2  0  0  0  0
  5  7  1  0  0  0  0
  2  3  1  0  0  0  0
  2  4  1  0  0  0  0
  2  5  1  0  0  0  0
  1  2  1  0  0  0  0
 17 18  2  0  0  0  0
 17 19  1  0  0  0  0
 14 15  1  0  0  0  0
 14 16  2  0  0  0  0
 11 12  1  0  0  0  0
 11 13  1  0  0  0  0
 11 14  1  0  0  0  0
  9 10  1  0  0  0  0
  9 11  1  0  0  0  0
  9 17  1  0  0  0  0
  7  8  1  0  0  0  0
  7  9  1  0  0  0  0
 21 22  1  0  0  0  0
 21 23  1  0  0  0  0
 21 24  1  0  0  0  0
 19 20  1  0  0  0  0
 19 21  1  0  0  0  0
M  CHG  1  15  -1
M  END
$$$$
default_name
  -OEChem-02102213163D

 24 23  0     1  0  0  0  0  0999 V2000
   -2.8347   -3.7166    0.8034 H   0  0  0  0  0  0  0  0  0  0  0  0
   -2.7728   -2.7096    0.3954 C   0  0  0  0  0  0  0  0  0  0  0  0
   -3.4267   -2.0426    0.9524 H   0  0  0  0  0  0  0  0  0  0  0  0
   -3.0538   -2.7186   -0.6556 H   0  0  0  0  0  0  0  0  0  0  0  0
   -1.3498   -2.2206    0.5184 C   0  0  0  0  0  0  0  0  0  0  0  0
   -0.4997   -2.9426    1.0194 O   0  0  0  0  0  0  0  0  0  0  0  0
   -1.1198   -0.9926    0.0674 N   0  0  0  0  0  0  0  0  0  0  0  0
   -1.8978   -0.4486   -0.2716 H   0  0  0  0  0  0  0  0  0  0  0  0
    0.1693   -0.2866    0.0854 C   0  0  1  0  0  0  0  0  0  0  0  0
    0.9043   -0.8713   -0.4705 H   0  0  0  0  0  0  0  0  0  0  0  0
    0.0106    1.0816   -0.6124 C   0  0  0  0  0  0  0  0  0  0  0  0
   -0.7690    0.9992   -1.3719 H   0  0  0  0  0  0  0  0  0  0  0  0
   -0.3194    1.8166    0.1250 H   0  0  0  0  0  0  0  0  0  0  0  0
    1.2822    1.5952   -1.3057 C   0  0  0  0  0  0  0  0  0  0  0  0
    2.2085    2.0527   -0.5955 O   0  5  0  0  0  0  0  0  0  0  0  0
    1.3084    1.5425   -2.5541 O   0  0  0  0  0  0  0  0  0  0  0  0
    0.6664   -0.1450    1.5428 C   0  0  0  0  0  0  0  0  0  0  0  0
    1.8485   -0.3724    1.8265 O   0  0  0  0  0  0  0  0  0  0  0  0
   -0.2161    0.2434    2.4686 N   0  0  0  0  0  0  0  0  0  0  0  0
   -1.1850    0.3219    2.1537 H   0  0  0  0  0  0  0  0  0  0  0  0
    0.0735    0.4128    3.8885 C   0  0  0  0  0  0  0  0  0  0  0  0
    1.0159    0.9483    4.0105 H   0  0  0  0  0  0  0  0  0  0  0  0
   -0.7315    0.9748    4.3613 H   0  0  0  0  0  0  0  0  0  0  0  0
    0.1564   -0.5677    4.3577 H   0  0  0  0  0  0  0  0  0  0  0  0
  5  6  2  0  0  0  0
  5  7  1  0  0  0  0
  2  3  1  0  0  0  0
  2  4  1  0  0  0  0
  2  5  1  0  0  0  0
  1  2  1  0  0  0  0
 17 18  2  0  0  0  0
 17 19  1  0  0  0  0
 14 15  1  0  0  0  0
 14 16  2  0  0  0  0
 11 12  1  0  0  0  0
 11 13  1  0  0  0  0
 11 14  1  0  0  0  0
  9 10  1  0  0  0  0
  9 11  1  0  0  0  0
  9 17  1  0  0  0  0
  7  8  1  0  0  0  0
  7  9  1  0  0  0  0
 21 22  1  0  0  0  0
 21 23  1  0  0  0  0
 21 24  1  0  0  0  0
 19 20  1  0  0  0  0
 19 21  1  0  0  0  0
M  CHG  1  15  -1
M  END
$$$$
default_name
  -OEChem-02102213163D

 24 23  0     1  0  0  0  0  0999 V2000
   -2.8347   -3.7166    0.8034 H   0  0  0  0  0  0  0  0  0  0  0  0
   -2.7728   -2.7096    0.3954 C   0  0  0  0  0  0  0  0  0  0  0  0
   -3.4267   -2.0426    0.9524 H   0  0  0  0  0  0  0  0  0  0  0  0
   -3.0538   -2.7186   -0.6556 H   0  0  0  0  0  0  0  0  0  0  0  0
   -1.3498   -2.2206    0.5184 C   0  0  0  0  0  0  0  0  0  0  0  0
   -0.4997   -2.9426    1.0194 O   0  0  0  0  0  0  0  0  0  0  0  0
   -1.1198   -0.9926    0.0674 N   0  0  0  0  0  0  0  0  0  0  0  0
   -1.8978   -0.4486   -0.2716 H   0  0  0  0  0  0  0  0  0  0  0  0
    0.1693   -0.2866    0.0854 C   0  0  1  0  0  0  0  0  0  0  0  0
    0.9043   -0.8713   -0.4705 H   0  0  0  0  0  0  0  0  0  0  0  0
    0.0106    1.0816   -0.6124 C   0  0  0  0  0  0  0  0  0  0  0  0
   -0.7690    0.9992   -1.3719 H   0  0  0  0  0  0  0  0  0  0  0  0
   -0.3194    1.8166    0.1250 H   0  0  0  0  0  0  0  0  0  0  0  0
    1.2822    1.5952   -1.3057 C   0  0  0  0  0  0  0  0  0  0  0  0
    2.3087    1.7836   -0.6111 O   0  5  0  0  0  0  0  0  0  0  0  0
    1.2094    1.8151   -2.5339 O   0  0  0  0  0  0  0  0  0  0  0  0
    0.6664   -0.1450    1.5428 C   0  0  0  0  0  0  0  0  0  0  0  0
    1.8485   -0.3724    1.8265 O   0  0  0  0  0  0  0  0  0  0  0  0
   -0.2161    0.2434    2.4686 N   0  0  0  0  0  0  0  0  0  0  0  0
   -1.1850    0.3219    2.1537 H   0  0  0  0  0  0  0  0  0  0  0  0
    0.0735    0.4128    3.8885 C   0  0  0  0  0  0  0  0  0  0  0  0
    1.0159    0.9483    4.0105 H   0  0  0  0  0  0  0  0  0  0  0  0
   -0.7315    0.9748    4.3613 H   0  0  0  0  0  0  0  0  0  0  0  0
    0.1564   -0.5677    4.3577 H   0  0  0  0  0  0  0  0  0  0  0  0
  5  6  2  0  0  0  0
  5  7  1  0  0  0  0
  2  3  1  0  0  0  0
  2  4  1  0  0  0  0
  2  5  1  0  0  0  0
  1  2  1  0  0  0  0
 17 18  2  0  0  0  0
 17 19  1  0  0  0  0
 14 15  1  0  0  0  0
 14 16  2  0  0  0  0
 11 12  1  0  0  0  0
 11 13  1  0  0  0  0
 11 14  1  0  0  0  0
  9 10  1  0  0  0  0
  9 11  1  0  0  0  0
  9 17  1  0  0  0  0
  7  8  1  0  0  0  0
  7  9  1  0  0  0  0
 21 22  1  0  0  0  0
 21 23  1  0  0  0  0
 21 24  1  0  0  0  0
 19 20  1  0  0  0  0
 19 21  1  0  0  0  0
M  CHG  1  15  -1
M  END
$$$$
default_name
  -OEChem-02102213163D

 24 23  0     1  0  0  0  0  0999 V2000
   -2.8347   -3.7166    0.8034 H   0  0  0  0  0  0  0  0  0  0  0  0
   -2.7728   -2.7096    0.3954 C   0  0  0  0  0  0  0  0  0  0  0  0
   -3.4267   -2.0426    0.9524 H   0  0  0  0  0  0  0  0  0  0  0  0
   -3.0538   -2.7186   -0.6556 H   0  0  0  0  0  0  0  0  0  0  0  0
   -1.3498   -2.2206    0.5184 C   0  0  0  0  0  0  0  0  0  0  0  0
   -0.4997   -2.9426    1.0194 O   0  0  0  0  0  0  0  0  0  0  0  0
   -1.1198   -0.9926    0.0674 N   0  0  0  0  0  0  0  0  0  0  0  0
   -1.8978   -0.4486   -0.2716 H   0  0  0  0  0  0  0  0  0  0  0  0
    0.1693   -0.2866    0.0854 C   0  0  1  0  0  0  0  0  0  0  0  0
    0.9043   -0.8713   -0.4705 H   0  0  0  0  0  0  0  0  0  0  0  0
    0.0106    1.0816   -0.6124 C   0  0  0  0  0  0  0  0  0  0  0  0
   -0.7690    0.9992   -1.3719 H   0  0  0  0  0  0  0  0  0  0  0  0
   -0.3194    1.8166    0.1250 H   0  0  0  0  0  0  0  0  0  0  0  0
    1.2822    1.5952   -1.3057 C   0  0  0  0  0  0  0  0  0  0  0  0
    2.3727    1.5154   -0.6923 O   0  5  0  0  0  0  0  0  0  0  0  0
    1.1473    2.0856   -2.4473 O   0  0  0  0  0  0  0  0  0  0  0  0
    0.6664   -0.1450    1.5428 C   0  0  0  0  0  0  0  0  0  0  0  0
    1.8485   -0.3724    1.8265 O   0  0  0  0  0  0  0  0  0  0  0  0
   -0.2161    0.2434    2.4686 N   0  0  0  0  0  0  0  0  0  0  0  0
   -1.1850    0.3219    2.1537 H   0  0  0  0  0  0  0  0  0  0  0  0
    0.0735    0.4128    3.8885 C   0  0  0  0  0  0  0  0  0  0  0  0
    1.0159    0.9483    4.0105 H   0  0  0  0  0  0  0  0  0  0  0  0
   -0.7315    0.9748    4.3613 H   0  0  0  0  0  0  0  0  0  0  0  0
    0.1564   -0.5677    4.3577 H   0  0  0  0  0  0  0  0  0  0  0  0
  5  6  2  0  0  0  0
  5  7  1  0  0  0  0
  2  3  1  0  0  0  0
  2  4  1  0  0  0  0
  2  5  1  0  0  0  0
  1  2  1  0  0  0  0
 17 18  2  0  0  0  0
 17 19  1  0  0  0  0
 14 15  1  0  0  0  0
 14 16  2  0  0  0  0
 11 12  1  0  0  0  0
 11 13  1  0  0  0  0
 11 14  1  0  0  0  0
  9 10  1  0  0  0  0
  9 11  1  0  0  0  0
  9 17  1  0  0  0  0
  7  8  1  0  0  0  0
  7  9  1  0  0  0  0
 21 22  1  0  0  0  0
 21 23  1  0  0  0  0
 21 24  1  0  0  0  0
 19 20  1  0  0  0  0
 19 21  1  0  0  0  0
M  CHG  1  15  -1
M  END
$$$$
default_name
  -OEChem-02102213163D

 24 23  0     1  0  0  0  0  0999 V2000
   -2.8347   -3.7166    0.8034 H   0  0  0  0  0  0  0  0  0  0  0  0
   -2.7728   -2.7096    0.3954 C   0  0  0  0  0  0  0  0  0  0  0  0
   -3.4267   -2.0426    0.9524 H   0  0  0  0  0  0  0  0  0  0  0  0
   -3.0538   -2.7186   -0.6556 H   0  0  0  0  0  0  0  0  0  0  0  0
   -1.3498   -2.2206    0.5184 C   0  0  0  0  0  0  0  0  0  0  0  0
   -0.4997   -2.9426    1.0194 O   0  0  0  0  0  0  0  0  0  0  0  0
   -1.1198   -0.9926    0.0674 N   0  0  0  0  0  0  0  0  0  0  0  0
   -1.8978   -0.4486   -0.2716 H   0  0  0  0  0  0  0  0  0  0  0  0
    0.1693   -0.2866    0.0854 C   0  0  1  0  0  0  0  0  0  0  0  0
    0.9043   -0.8713   -0.4705 H   0  0  0  0  0  0  0  0  0  0  0  0
    0.0106    1.0816   -0.6124 C   0  0  0  0  0  0  0  0  0  0  0  0
   -0.7690    0.9992   -1.3719 H   0  0  0  0  0  0  0  0  0  0  0  0
   -0.3194    1.8166    0.1250 H   0  0  0  0  0  0  0  0  0  0  0  0
    1.2822    1.5952   -1.3057 C   0  0  0  0  0  0  0  0  0  0  0  0
    2.3962    1.2663   -0.8339 O   0  5  0  0  0  0  0  0  0  0  0  0
    1.1264    2.3357   -2.3004 O   0  0  0  0  0  0  0  0  0  0  0  0
    0.6664   -0.1450    1.5428 C   0  0  0  0  0  0  0  0  0  0  0  0
    1.8485   -0.3724    1.8265 O   0  0  0  0  0  0  0  0  0  0  0  0
   -0.2161    0.2434    2.4686 N   0  0  0  0  0  0  0  0  0  0  0  0
   -1.1850    0.3219    2.1537 H   0  0  0  0  0  0  0  0  0  0  0  0
    0.0735    0.4128    3.8885 C   0  0  0  0  0  0  0  0  0  0  0  0
    1.0159    0.9483    4.0105 H   0  0  0  0  0  0  0  0  0  0  0  0
   -0.7315    0.9748    4.3613 H   0  0  0  0  0  0  0  0  0  0  0  0
    0.1564   -0.5677    4.3577 H   0  0  0  0  0  0  0  0  0  0  0  0
  5  6  2  0  0  0  0
  5  7  1  0  0  0  0
  2  3  1  0  0  0  0
  2  4  1  0  0  0  0
  2  5  1  0  0  0  0
  1  2  1  0  0  0  0
 17 18  2  0  0  0  0
 17 19  1  0  0  0  0
 14 15  1  0  0  0  0
 14 16  2  0  0  0  0
 11 12  1  0  0  0  0
 11 13  1  0  0  0  0
 11 14  1  0  0  0  0
  9 10  1  0  0  0  0
  9 11  1  0  0  0  0
  9 17  1  0  0  0  0
  7  8  1  0  0  0  0
  7  9  1  0  0  0  0
 21 22  1  0  0  0  0
 21 23  1  0  0  0  0
 21 24  1  0  0  0  0
 19 20  1  0  0  0  0
 19 21  1  0  0  0  0
M  CHG  1  15  -1
M  END
$$$$
default_name
  -OEChem-02102213163D

 24 23  0     1  0  0  0  0  0999 V2000
   -2.8347   -3.7166    0.8034 H   0  0  0  0  0  0  0  0  0  0  0  0
   -2.7728   -2.7096    0.3954 C   0  0  0  0  0  0  0  0  0  0  0  0
   -3.4267   -2.0426    0.9524 H   0  0  0  0  0  0  0  0  0  0  0  0
   -3.0538   -2.7186   -0.6556 H   0  0  0  0  0  0  0  0  0  0  0  0
   -1.3498   -2.2206    0.5184 C   0  0  0  0  0  0  0  0  0  0  0  0
   -0.4997   -2.9426    1.0194 O   0  0  0  0  0  0  0  0  0  0  0  0
   -1.1198   -0.9926    0.0674 N   0  0  0  0  0  0  0  0  0  0  0  0
   -1.8978   -0.4486   -0.2716 H   0  0  0  0  0  0  0  0  0  0  0  0
    0.1693   -0.2866    0.0854 C   0  0  1  0  0  0  0  0  0  0  0  0
    0.9043   -0.8713   -0.4705 H   0  0  0  0  0  0  0  0  0  0  0  0
    0.0106    1.0816   -0.6124 C   0  0  0  0  0  0  0  0  0  0  0  0
   -0.7690    0.9992   -1.3719 H   0  0  0  0  0  0  0  0  0  0  0  0
   -0.3194    1.8166    0.1250 H   0  0  0  0  0  0  0  0  0  0  0  0
    1.2822    1.5952   -1.3057 C   0  0  0  0  0  0  0  0  0  0  0  0
    2.3775    1.0532   -1.0259 O   0  5  0  0  0  0  0  0  0  0  0  0
    1.1482    2.5481   -2.1032 O   0  0  0  0  0  0  0  0  0  0  0  0
    0.6664   -0.1450    1.5428 C   0  0  0  0  0  0  0  0  0  0  0  0
    1.8485   -0.3724    1.8265 O   0  0  0  0  0  0  0  0  0  0  0  0
   -0.2161    0.2434    2.4686 N   0  0  0  0  0  0  0  0  0  0  0  0
   -1.1850    0.3219    2.1537 H   0  0  0  0  0  0  0  0  0  0  0  0
    0.0735    0.4128    3.8885 C   0  0  0  0  0  0  0  0  0  0  0  0
    1.0159    0.9483    4.0105 H   0  0  0  0  0  0  0  0  0  0  0  0
   -0.7315    0.9748    4.3613 H   0  0  0  0  0  0  0  0  0  0  0  0
    0.1564   -0.5677    4.3577 H   0  0  0  0  0  0  0  0  0  0  0  0
  5  6  2  0  0  0  0
  5  7  1  0  0  0  0
  2  3  1  0  0  0  0
  2  4  1  0  0  0  0
  2  5  1  0  0  0  0
  1  2  1  0  0  0  0
 17 18  2  0  0  0  0
 17 19  1  0  0  0  0
 14 15  1  0  0  0  0
 14 16  2  0  0  0  0
 11 12  1  0  0  0  0
 11 13  1  0  0  0  0
 11 14  1  0  0  0  0
  9 10  1  0  0  0  0
  9 11  1  0  0  0  0
  9 17  1  0  0  0  0
  7  8  1  0  0  0  0
  7  9  1  0  0  0  0
 21 22  1  0  0  0  0
 21 23  1  0  0  0  0
 21 24  1  0  0  0  0
 19 20  1  0  0  0  0
 19 21  1  0  0  0  0
M  CHG  1  15  -1
M  END
$$$$
default_name
  -OEChem-02102213163D

 24 23  0     1  0  0  0  0  0999 V2000
   -2.8347   -3.7166    0.8034 H   0  0  0  0  0  0  0  0  0  0  0  0
   -2.7728   -2.7096    0.3954 C   0  0  0  0  0  0  0  0  0  0  0  0
   -3.4267   -2.0426    0.9524 H   0  0  0  0  0  0  0  0  0  0  0  0
   -3.0538   -2.7186   -0.6556 H   0  0  0  0  0  0  0  0  0  0  0  0
   -1.3498   -2.2206    0.5184 C   0  0  0  0  0  0  0  0  0  0  0  0
   -0.4997   -2.9426    1.0194 O   0  0  0  0  0  0  0  0  0  0  0  0
   -1.1198   -0.9926    0.0674 N   0  0  0  0  0  0  0  0  0  0  0  0
   -1.8978   -0.4486   -0.2716 H   0  0  0  0  0  0  0  0  0  0  0  0
    0.1693   -0.2866    0.0854 C   0  0  1  0  0  0  0  0  0  0  0  0
    0.9043   -0.8713   -0.4705 H   0  0  0  0  0  0  0  0  0  0  0  0
    0.0106    1.0816   -0.6124 C   0  0  0  0  0  0  0  0  0  0  0  0
   -0.7690    0.9992   -1.3719 H   0  0  0  0  0  0  0  0  0  0  0  0
   -0.3194    1.8166    0.1250 H   0  0  0  0  0  0  0  0  0  0  0  0
    1.2822    1.5952   -1.3057 C   0  0  0  0  0  0  0  0  0  0  0  0
    2.3180    0.8907   -1.2555 O   0  5  0  0  0  0  0  0  0  0  0  0
    1.2110    2.7086   -1.8690 O   0  0  0  0  0  0  0  0  0  0  0  0
    0.6664   -0.1450    1.5428 C   0  0  0  0  0  0  0  0  0  0  0  0
    1.8485   -0.3724    1.8265 O   0  0  0  0  0  0  0  0  0  0  0  0
   -0.2161    0.2434    2.4686 N   0  0  0  0  0  0  0  0  0  0  0  0
   -1.1850    0.3219    2.1537 H   0  0  0  0  0  0  0  0  0  0  0  0
    0.0735    0.4128    3.8885 C   0  0  0  0  0  0  0  0  0  0  0  0
    1.0159    0.9483    4.0105 H   0  0  0  0  0  0  0  0  0  0  0  0
   -0.7315    0.9748    4.3613 H   0  0  0  0  0  0  0  0  0  0  0  0
    0.1564   -0.5677    4.3577 H   0  0  0  0  0  0  0  0  0  0  0  0
  5  6  2  0  0  0  0
  5  7  1  0  0  0  0
  2  3  1  0  0  0  0
  2  4  1  0  0  0  0
  2  5  1  0  0  0  0
  1  2  1  0  0  0  0
 17 18  2  0  0  0  0
 17 19  1  0  0  0  0
 14 15  1  0  0  0  0
 14 16  2  0  0  0  0
 11 12  1  0  0  0  0
 11 13  1  0  0  0  0
 11 14  1  0  0  0  0
  9 10  1  0  0  0  0
  9 11  1  0  0  0  0
  9 17  1  0  0  0  0
  7  8  1  0  0  0  0
  7  9  1  0  0  0  0
 21 22  1  0  0  0  0
 21 23  1  0  0  0  0
 21 24  1  0  0  0  0
 19 20  1  0  0  0  0
 19 21  1  0  0  0  0
M  CHG  1  15  -1
M  END
$$$$
default_name
  -OEChem-02102213163D

 24 23  0     1  0  0  0  0  0999 V2000
   -2.8347   -3.7166    0.8034 H   0  0  0  0  0  0  0  0  0  0  0  0
   -2.7728   -2.7096    0.3954 C   0  0  0  0  0  0  0  0  0  0  0  0
   -3.4267   -2.0426    0.9524 H   0  0  0  0  0  0  0  0  0  0  0  0
   -3.0538   -2.7186   -0.6556 H   0  0  0  0  0  0  0  0  0  0  0  0
   -1.3498   -2.2206    0.5184 C   0  0  0  0  0  0  0  0  0  0  0  0
   -0.4997   -2.9426    1.0194 O   0  0  0  0  0  0  0  0  0  0  0  0
   -1.1198   -0.9926    0.0674 N   0  0  0  0  0  0  0  0  0  0  0  0
   -1.8978   -0.4486   -0.2716 H   0  0  0  0  0  0  0  0  0  0  0  0
    0.1693   -0.2866    0.0854 C   0  0  1  0  0  0  0  0  0  0  0  0
    0.9043   -0.8713   -0.4705 H   0  0  0  0  0  0  0  0  0  0  0  0
    0.0106    1.0816   -0.6124 C   0  0  0  0  0  0  0  0  0  0  0  0
   -0.7690    0.9992   -1.3719 H   0  0  0  0  0  0  0  0  0  0  0  0
   -0.3194    1.8166    0.1250 H   0  0  0  0  0  0  0  0  0  0  0  0
    1.2822    1.5952   -1.3057 C   0  0  0  0  0  0  0  0  0  0  0  0
    2.2217    0.7898   -1.5069 O   0  5  0  0  0  0  0  0  0  0  0  0
    1.3107    2.8061   -1.6139 O   0  0  0  0  0  0  0  0  0  0  0  0
    0.6664   -0.1450    1.5428 C   0  0  0  0  0  0  0  0  0  0  0  0
    1.8485   -0.3724    1.8265 O   0  0  0  0  0  0  0  0  0  0  0  0
   -0.2161    0.2434    2.4686 N   0  0  0  0  0  0  0  0  0  0  0  0
   -1.1850    0.3219    2.1537 H   0  0  0  0  0  0  0  0  0  0  0  0
    0.0735    0.4128    3.8885 C   0  0  0  0  0  0  0  0  0  0  0  0
    1.0159    0.9483    4.0105 H   0  0  0  0  0  0  0  0  0  0  0  0
   -0.7315    0.9748    4.3613 H   0  0  0  0  0  0  0  0  0  0  0  0
    0.1564   -0.5677    4.3577 H   0  0  0  0  0  0  0  0  0  0  0  0
  5  6  2  0  0  0  0
  5  7  1  0  0  0  0
  2  3  1  0  0  0  0
  2  4  1  0  0  0  0
  2  5  1  0  0  0  0
  1  2  1  0  0  0  0
 17 18  2  0  0  0  0
 17 19  1  0  0  0  0
 14 15  1  0  0  0  0
 14 16  2  0  0  0  0
 11 12  1  0  0  0  0
 11 13  1  0  0  0  0
 11 14  1  0  0  0  0
  9 10  1  0  0  0  0
  9 11  1  0  0  0  0
  9 17  1  0  0  0  0
  7  8  1  0  0  0  0
  7  9  1  0  0  0  0
 21 22  1  0  0  0  0
 21 23  1  0  0  0  0
 21 24  1  0  0  0  0
 19 20  1  0  0  0  0
 19 21  1  0  0  0  0
M  CHG  1  15  -1
M  END
$$$$
default_name
  -OEChem-02102213163D

 24 23  0     1  0  0  0  0  0999 V2000
   -2.8347   -3.7166    0.8034 H   0  0  0  0  0  0  0  0  0  0  0  0
   -2.7728   -2.7096    0.3954 C   0  0  0  0  0  0  0  0  0  0  0  0
   -3.4267   -2.0426    0.9524 H   0  0  0  0  0  0  0  0  0  0  0  0
   -3.0538   -2.7186   -0.6556 H   0  0  0  0  0  0  0  0  0  0  0  0
   -1.3498   -2.2206    0.5184 C   0  0  0  0  0  0  0  0  0  0  0  0
   -0.4997   -2.9426    1.0194 O   0  0  0  0  0  0  0  0  0  0  0  0
   -1.1198   -0.9926    0.0674 N   0  0  0  0  0  0  0  0  0  0  0  0
   -1.8978   -0.4486   -0.2716 H   0  0  0  0  0  0  0  0  0  0  0  0
    0.1693   -0.2866    0.0854 C   0  0  1  0  0  0  0  0  0  0  0  0
    0.9043   -0.8713   -0.4705 H   0  0  0  0  0  0  0  0  0  0  0  0
    0.0106    1.0816   -0.6124 C   0  0  0  0  0  0  0  0  0  0  0  0
   -0.7690    0.9992   -1.3719 H   0  0  0  0  0  0  0  0  0  0  0  0
   -0.3194    1.8166    0.1250 H   0  0  0  0  0  0  0  0  0  0  0  0
    1.2822    1.5952   -1.3057 C   0  0  0  0  0  0  0  0  0  0  0  0
    2.0951    0.7575   -1.7630 O   0  5  0  0  0  0  0  0  0  0  0  0
    1.4405    2.8340   -1.3553 O   0  0  0  0  0  0  0  0  0  0  0  0
    0.6664   -0.1450    1.5428 C   0  0  0  0  0  0  0  0  0  0  0  0
    1.8485   -0.3724    1.8265 O   0  0  0  0  0  0  0  0  0  0  0  0
   -0.2161    0.2434    2.4686 N   0  0  0  0  0  0  0  0  0  0  0  0
   -1.1850    0.3219    2.1537 H   0  0  0  0  0  0  0  0  0  0  0  0
    0.0735    0.4128    3.8885 C   0  0  0  0  0  0  0  0  0  0  0  0
    1.0159    0.9483    4.0105 H   0  0  0  0  0  0  0  0  0  0  0  0
   -0.7315    0.9748    4.3613 H   0  0  0  0  0  0  0  0  0  0  0  0
    0.1564   -0.5677    4.3577 H   0  0  0  0  0  0  0  0  0  0  0  0
  5  6  2  0  0  0  0
  5  7  1  0  0  0  0
  2  3  1  0  0  0  0
  2  4  1  0  0  0  0
  2  5  1  0  0  0  0
  1  2  1  0  0  0  0
 17 18  2  0  0  0  0
 17 19  1  0  0  0  0
 14 15  1  0  0  0  0
 14 16  2  0  0  0  0
 11 12  1  0  0  0  0
 11 13  1  0  0  0  0
 11 14  1  0  0  0  0
  9 10  1  0  0  0  0
  9 11  1  0  0  0  0
  9 17  1  0  0  0  0
  7  8  1  0  0  0  0
  7  9  1  0  0  0  0
 21 22  1  0  0  0  0
 21 23  1  0  0  0  0
 21 24  1  0  0  0  0
 19 20  1  0  0  0  0
 19 21  1  0  0  0  0
M  CHG  1  15  -1
M  END
$$$$
default_name
  -OEChem-02102213163D

 24 23  0     1  0  0  0  0  0999 V2000
   -2.8347   -3.7166    0.8034 H   0  0  0  0  0  0  0  0  0  0  0  0
   -2.7728   -2.7096    0.3954 C   0  0  0  0  0  0  0  0  0  0  0  0
   -3.4267   -2.0426    0.9524 H   0  0  0  0  0  0  0  0  0  0  0  0
   -3.0538   -2.7186   -0.6556 H   0  0  0  0  0  0  0  0  0  0  0  0
   -1.3498   -2.2206    0.5184 C   0  0  0  0  0  0  0  0  0  0  0  0
   -0.4997   -2.9426    1.0194 O   0  0  0  0  0  0  0  0  0  0  0  0
   -1.1198   -0.9926    0.0674 N   0  0  0  0  0  0  0  0  0  0  0  0
   -1.8978   -0.4486   -0.2716 H   0  0  0  0  0  0  0  0  0  0  0  0
    0.1693   -0.2866    0.0854 C   0  0  1  0  0  0  0  0  0  0  0  0
    0.9043   -0.8713   -0.4705 H   0  0  0  0  0  0  0  0  0  0  0  0
    0.0106    1.0816   -0.6124 C   0  0  0  0  0  0  0  0  0  0  0  0
   -0.7690    0.9992   -1.3719 H   0  0  0  0  0  0  0  0  0  0  0  0
   -0.3194    1.8166    0.1250 H   0  0  0  0  0  0  0  0  0  0  0  0
    1.2822    1.5952   -1.3057 C   0  0  0  0  0  0  0  0  0  0  0  0
    1.9469    0.7959   -2.0063 O   0  5  0  0  0  0  0  0  0  0  0  0
    1.5914    2.7904   -1.1107 O   0  0  0  0  0  0  0  0  0  0  0  0
    0.6664   -0.1450    1.5428 C   0  0  0  0  0  0  0  0  0  0  0  0
    1.8485   -0.3724    1.8265 O   0  0  0  0  0  0  0  0  0  0  0  0
   -0.2161    0.2434    2.4686 N   0  0  0  0  0  0  0  0  0  0  0  0
   -1.1850    0.3219    2.1537 H   0  0  0  0  0  0  0  0  0  0  0  0
    0.0735    0.4128    3.8885 C   0  0  0  0  0  0  0  0  0  0  0  0
    1.0159    0.9483    4.0105 H   0  0  0  0  0  0  0  0  0  0  0  0
   -0.7315    0.9748    4.3613 H   0  0  0  0  0  0  0  0  0  0  0  0
    0.1564   -0.5677    4.3577 H   0  0  0  0  0  0  0  0  0  0  0  0
  5  6  2  0  0  0  0
  5  7  1  0  0  0  0
  2  3  1  0  0  0  0
  2  4  1  0  0  0  0
  2  5  1  0  0  0  0
  1  2  1  0  0  0  0
 17 18  2  0  0  0  0
 17 19  1  0  0  0  0
 14 15  1  0  0  0  0
 14 16  2  0  0  0  0
 11 12  1  0  0  0  0
 11 13  1  0  0  0  0
 11 14  1  0  0  0  0
  9 10  1  0  0  0  0
  9 11  1  0  0  0  0
  9 17  1  0  0  0  0
  7  8  1  0  0  0  0
  7  9  1  0  0  0  0
 21 22  1  0  0  0  0
 21 23  1  0  0  0  0
 21 24  1  0  0  0  0
 19 20  1  0  0  0  0
 19 21  1  0  0  0  0
M  CHG  1  15  -1
M  END
$$$$
default_name
  -OEChem-02102213163D

 24 23  0     1  0  0  0  0  0999 V2000
   -2.8347   -3.7166    0.8034 H   0  0  0  0  0  0  0  0  0  0  0  0
   -2.7728   -2.7096    0.3954 C   0  0  0  0  0  0  0  0  0  0  0  0
   -3.4267   -2.0426    0.9524 H   0  0  0  0  0  0  0  0  0  0  0  0
   -3.0538   -2.7186   -0.6556 H   0  0  0  0  0  0  0  0  0  0  0  0
   -1.3498   -2.2206    0.5184 C   0  0  0  0  0  0  0  0  0  0  0  0
   -0.4997   -2.9426    1.0194 O   0  0  0  0  0  0  0  0  0  0  0  0
   -1.1198   -0.9926    0.0674 N   0  0  0  0  0  0  0  0  0  0  0  0
   -1.8978   -0.4486   -0.2716 H   0  0  0  0  0  0  0  0  0  0  0  0
    0.1693   -0.2866    0.0854 C   0  0  1  0  0  0  0  0  0  0  0  0
    0.9043   -0.8713   -0.4705 H   0  0  0  0  0  0  0  0  0  0  0  0
    0.0106    1.0816   -0.6124 C   0  0  0  0  0  0  0  0  0  0  0  0
   -0.7690    0.9992   -1.3719 H   0  0  0  0  0  0  0  0  0  0  0  0
   -0.3194    1.8166    0.1250 H   0  0  0  0  0  0  0  0  0  0  0  0
    1.2822    1.5952   -1.3057 C   0  0  0  0  0  0  0  0  0  0  0  0
    1.7873    0.9024   -2.2204 O   0  5  0  0  0  0  0  0  0  0  0  0
    1.7533    2.6782   -0.8968 O   0  0  0  0  0  0  0  0  0  0  0  0
    0.6664   -0.1450    1.5428 C   0  0  0  0  0  0  0  0  0  0  0  0
    1.8485   -0.3724    1.8265 O   0  0  0  0  0  0  0  0  0  0  0  0
   -0.2161    0.2434    2.4686 N   0  0  0  0  0  0  0  0  0  0  0  0
   -1.1850    0.3219    2.1537 H   0  0  0  0  0  0  0  0  0  0  0  0
    0.0735    0.4128    3.8885 C   0  0  0  0  0  0  0  0  0  0  0  0
    1.0159    0.9483    4.0105 H   0  0  0  0  0  0  0  0  0  0  0  0
   -0.7315    0.9748    4.3613 H   0  0  0  0  0  0  0  0  0  0  0  0
    0.1564   -0.5677    4.3577 H   0  0  0  0  0  0  0  0  0  0  0  0
  5  6  2  0  0  0  0
  5  7  1  0  0  0  0
  2  3  1  0  0  0  0
  2  4  1  0  0  0  0
  2  5  1  0  0  0  0
  1  2  1  0  0  0  0
 17 18  2  0  0  0  0
 17 19  1  0  0  0  0
 14 15  1  0  0  0  0
 14 16  2  0  0  0  0
 11 12  1  0  0  0  0
 11 13  1  0  0  0  0
 11 14  1  0  0  0  0
  9 10  1  0  0  0  0
  9 11  1  0  0  0  0
  9 17  1  0  0  0  0
  7  8  1  0  0  0  0
  7  9  1  0  0  0  0
 21 22  1  0  0  0  0
 21 23  1  0  0  0  0
 21 24  1  0  0  0  0
 19 20  1  0  0  0  0
 19 21  1  0  0  0  0
M  CHG  1  15  -1
M  END
$$$$
default_name
  -OEChem-02102213163D

 24 23  0     1  0  0  0  0  0999 V2000
   -2.8347   -3.7166    0.8034 H   0  0  0  0  0  0  0  0  0  0  0  0
   -2.7728   -2.7096    0.3954 C   0  0  0  0  0  0  0  0  0  0  0  0
   -3.4267   -2.0426    0.9524 H   0  0  0  0  0  0  0  0  0  0  0  0
   -3.0538   -2.7186   -0.6556 H   0  0  0  0  0  0  0  0  0  0  0  0
   -1.3498   -2.2206    0.5184 C   0  0  0  0  0  0  0  0  0  0  0  0
   -0.4997   -2.9426    1.0194 O   0  0  0  0  0  0  0  0  0  0  0  0
   -1.1198   -0.9926    0.0674 N   0  0  0  0  0  0  0  0  0  0  0  0
   -1.8978   -0.4486   -0.2716 H   0  0  0  0  0  0  0  0  0  0  0  0
    0.1693   -0.2866    0.0854 C   0  0  1  0  0  0  0  0  0  0  0  0
    0.9043   -0.8713   -0.4705 H   0  0  0  0  0  0  0  0  0  0  0  0
    0.0106    1.0816   -0.6124 C   0  0  0  0  0  0  0  0  0  0  0  0
   -0.7690    0.9992   -1.3719 H   0  0  0  0  0  0  0  0  0  0  0  0
   -0.3194    1.8166    0.1250 H   0  0  0  0  0  0  0  0  0  0  0  0
    1.2822    1.5952   -1.3057 C   0  0  0  0  0  0  0  0  0  0  0  0
    1.6269    1.0698   -2.3905 O   0  5  0  0  0  0  0  0  0  0  0  0
    1.9151    2.5052   -0.7282 O   0  0  0  0  0  0  0  0  0  0  0  0
    0.6664   -0.1450    1.5428 C   0  0  0  0  0  0  0  0  0  0  0  0
    1.8485   -0.3724    1.8265 O   0  0  0  0  0  0  0  0  0  0  0  0
   -0.2161    0.2434    2.4686 N   0  0  0  0  0  0  0  0  0  0  0  0
   -1.1850    0.3219    2.1537 H   0  0  0  0  0  0  0  0  0  0  0  0
    0.0735    0.4128    3.8885 C   0  0  0  0  0  0  0  0  0  0  0  0
    1.0159    0.9483    4.0105 H   0  0  0  0  0  0  0  0  0  0  0  0
   -0.7315    0.9748    4.3613 H   0  0  0  0  0  0  0  0  0  0  0  0
    0.1564   -0.5677    4.3577 H   0  0  0  0  0  0  0  0  0  0  0  0
  5  6  2  0  0  0  0
  5  7  1  0  0  0  0
  2  3  1  0  0  0  0
  2  4  1  0  0  0  0
  2  5  1  0  0  0  0
  1  2  1  0  0  0  0
 17 18  2  0  0  0  0
 17 19  1  0  0  0  0
 14 15  1  0  0  0  0
 14 16  2  0  0  0  0
 11 12  1  0  0  0  0
 11 13  1  0  0  0  0
 11 14  1  0  0  0  0
  9 10  1  0  0  0  0
  9 11  1  0  0  0  0
  9 17  1  0  0  0  0
  7  8  1  0  0  0  0
  7  9  1  0  0  0  0
 21 22  1  0  0  0  0
 21 23  1  0  0  0  0
 21 24  1  0  0  0  0
 19 20  1  0  0  0  0
 19 21  1  0  0  0  0
M  CHG  1  15  -1
M  END
$$$$
default_name
  -OEChem-02102213163D

 24 23  0     1  0  0  0  0  0999 V2000
   -2.8347   -3.7166    0.8034 H   0  0  0  0  0  0  0  0  0  0  0  0
   -2.7728   -2.7096    0.3954 C   0  0  0  0  0  0  0  0  0  0  0  0
   -3.4267   -2.0426    0.9524 H   0  0  0  0  0  0  0  0  0  0  0  0
   -3.0538   -2.7186   -0.6556 H   0  0  0  0  0  0  0  0  0  0  0  0
   -1.3498   -2.2206    0.5184 C   0  0  0  0  0  0  0  0  0  0  0  0
   -0.4997   -2.9426    1.0194 O   0  0  0  0  0  0  0  0  0  0  0  0
   -1.1198   -0.9926    0.0674 N   0  0  0  0  0  0  0  0  0  0  0  0
   -1.8978   -0.4486   -0.2716 H   0  0  0  0  0  0  0  0  0  0  0  0
    0.1693   -0.2866    0.0854 C   0  0  1  0  0  0  0  0  0  0  0  0
    0.9043   -0.8713   -0.4705 H   0  0  0  0  0  0  0  0  0  0  0  0
    0.0106    1.0816   -0.6124 C   0  0  0  0  0  0  0  0  0  0  0  0
   -0.7690    0.9992   -1.3719 H   0  0  0  0  0  0  0  0  0  0  0  0
   -0.3194    1.8166    0.1250 H   0  0  0  0  0  0  0  0  0  0  0  0
    1.2822    1.5952   -1.3057 C   0  0  0  0  0  0  0  0  0  0  0  0
    1.4769    1.2866   -2.5050 O   0  5  0  0  0  0  0  0  0  0  0  0
    2.0657    2.2831   -0.6164 O   0  0  0  0  0  0  0  0  0  0  0  0
    0.6664   -0.1450    1.5428 C   0  0  0  0  0  0  0  0  0  0  0  0
    1.8485   -0.3724    1.8265 O   0  0  0  0  0  0  0  0  0  0  0  0
   -0.2161    0.2434    2.4686 N   0  0  0  0  0  0  0  0  0  0  0  0
   -1.1850    0.3219    2.1537 H   0  0  0  0  0  0  0  0  0  0  0  0
    0.0735    0.4128    3.8885 C   0  0  0  0  0  0  0  0  0  0  0  0
    1.0159    0.9483    4.0105 H   0  0  0  0  0  0  0  0  0  0  0  0
   -0.7315    0.9748    4.3613 H   0  0  0  0  0  0  0  0  0  0  0  0
    0.1564   -0.5677    4.3577 H   0  0  0  0  0  0  0  0  0  0  0  0
  5  6  2  0  0  0  0
  5  7  1  0  0  0  0
  2  3  1  0  0  0  0
  2  4  1  0  0  0  0
  2  5  1  0  0  0  0
  1  2  1  0  0  0  0
 17 18  2  0  0  0  0
 17 19  1  0  0  0  0
 14 15  1  0  0  0  0
 14 16  2  0  0  0  0
 11 12  1  0  0  0  0
 11 13  1  0  0  0  0
 11 14  1  0  0  0  0
  9 10  1  0  0  0  0
  9 11  1  0  0  0  0
  9 17  1  0  0  0  0
  7  8  1  0  0  0  0
  7  9  1  0  0  0  0
 21 22  1  0  0  0  0
 21 23  1  0  0  0  0
 21 24  1  0  0  0  0
 19 20  1  0  0  0  0
 19 21  1  0  0  0  0
M  CHG  1  15  -1
M  END
$$$$
default_name
  -OEChem-02102213163D

 24 23  0     1  0  0  0  0  0999 V2000
   -2.8347   -3.7166    0.8034 H   0  0  0  0  0  0  0  0  0  0  0  0
   -2.7728   -2.7096    0.3954 C   0  0  0  0  0  0  0  0  0  0  0  0
   -3.4267   -2.0426    0.9524 H   0  0  0  0  0  0  0  0  0  0  0  0
   -3.0538   -2.7186   -0.6556 H   0  0  0  0  0  0  0  0  0  0  0  0
   -1.3498   -2.2206    0.5184 C   0  0  0  0  0  0  0  0  0  0  0  0
   -0.4997   -2.9426    1.0194 O   0  0  0  0  0  0  0  0  0  0  0  0
   -1.1198   -0.9926    0.0674 N   0  0  0  0  0  0  0  0  0  0  0  0
   -1.8978   -0.4486   -0.2716 H   0  0  0  0  0  0  0  0  0  0  0  0
    0.1693   -0.2866    0.0854 C   0  0  1  0  0  0  0  0  0  0  0  0
    0.9043   -0.8713   -0.4705 H   0  0  0  0  0  0  0  0  0  0  0  0
    0.0106    1.0816   -0.6124 C   0  0  0  0  0  0  0  0  0  0  0  0
   -0.7690    0.9992   -1.3719 H   0  0  0  0  0  0  0  0  0  0  0  0
   -0.3194    1.8166    0.1250 H   0  0  0  0  0  0  0  0  0  0  0  0
    1.2822    1.5952   -1.3057 C   0  0  0  0  0  0  0  0  0  0  0  0
    1.3474    1.5381   -2.5563 O   0  5  0  0  0  0  0  0  0  0  0  0
    2.1949    2.0270   -0.5691 O   0  0  0  0  0  0  0  0  0  0  0  0
    0.6664   -0.1450    1.5428 C   0  0  0  0  0  0  0  0  0  0  0  0
    1.8485   -0.3724    1.8265 O   0  0  0  0  0  0  0  0  0  0  0  0
   -0.2161    0.2434    2.4686 N   0  0  0  0  0  0  0  0  0  0  0  0
   -1.1850    0.3219    2.1537 H   0  0  0  0  0  0  0  0  0  0  0  0
    0.0735    0.4128    3.8885 C   0  0  0  0  0  0  0  0  0  0  0  0
    1.0159    0.9483    4.0105 H   0  0  0  0  0  0  0  0  0  0  0  0
   -0.7315    0.9748    4.3613 H   0  0  0  0  0  0  0  0  0  0  0  0
    0.1564   -0.5677    4.3577 H   0  0  0  0  0  0  0  0  0  0  0  0
  5  6  2  0  0  0  0
  5  7  1  0  0  0  0
  2  3  1  0  0  0  0
  2  4  1  0  0  0  0
  2  5  1  0  0  0  0
  1  2  1  0  0  0  0
 17 18  2  0  0  0  0
 17 19  1  0  0  0  0
 14 15  1  0  0  0  0
 14 16  2  0  0  0  0
 11 12  1  0  0  0  0
 11 13  1  0  0  0  0
 11 14  1  0  0  0  0
  9 10  1  0  0  0  0
  9 11  1  0  0  0  0
  9 17  1  0  0  0  0
  7  8  1  0  0  0  0
  7  9  1  0  0  0  0
 21 22  1  0  0  0  0
 21 23  1  0  0  0  0
 21 24  1  0  0  0  0
 19 20  1  0  0  0  0
 19 21  1  0  0  0  0
M  CHG  1  15  -1
M  END
$$$$
default_name
  -OEChem-02102213163D

 24 23  0     1  0  0  0  0  0999 V2000
   -2.8347   -3.7166    0.8034 H   0  0  0  0  0  0  0  0  0  0  0  0
   -2.7728   -2.7096    0.3954 C   0  0  0  0  0  0  0  0  0  0  0  0
   -3.4267   -2.0426    0.9524 H   0  0  0  0  0  0  0  0  0  0  0  0
   -3.0538   -2.7186   -0.6556 H   0  0  0  0  0  0  0  0  0  0  0  0
   -1.3498   -2.2206    0.5184 C   0  0  0  0  0  0  0  0  0  0  0  0
   -0.4997   -2.9426    1.0194 O   0  0  0  0  0  0  0  0  0  0  0  0
   -1.1198   -0.9926    0.0674 N   0  0  0  0  0  0  0  0  0  0  0  0
   -1.8978   -0.4486   -0.2716 H   0  0  0  0  0  0  0  0  0  0  0  0
    0.1693   -0.2866    0.0854 C   0  0  1  0  0  0  0  0  0  0  0  0
    0.9043   -0.8713   -0.4705 H   0  0  0  0  0  0  0  0  0  0  0  0
    0.0106    1.0816   -0.6124 C   0  0  0  0  0  0  0  0  0  0  0  0
   -0.7690    0.9992   -1.3719 H   0  0  0  0  0  0  0  0  0  0  0  0
   -0.3194    1.8166    0.1250 H   0  0  0  0  0  0  0  0  0  0  0  0
    1.2822    1.5952   -1.3057 C   0  0  0  0  0  0  0  0  0  0  0  0
    1.2472    1.8071   -2.5408 O   0  5  0  0  0  0  0  0  0  0  0  0
    2.2940    1.7544   -0.5893 O   0  0  0  0  0  0  0  0  0  0  0  0
    0.6664   -0.1450    1.5428 C   0  0  0  0  0  0  0  0  0  0  0  0
    1.8485   -0.3724    1.8265 O   0  0  0  0  0  0  0  0  0  0  0  0
   -0.2161    0.2434    2.4686 N   0  0  0  0  0  0  0  0  0  0  0  0
   -1.1850    0.3219    2.1537 H   0  0  0  0  0  0  0  0  0  0  0  0
    0.0735    0.4128    3.8885 C   0  0  0  0  0  0  0  0  0  0  0  0
    1.0159    0.9483    4.0105 H   0  0  0  0  0  0  0  0  0  0  0  0
   -0.7315    0.9748    4.3613 H   0  0  0  0  0  0  0  0  0  0  0  0
    0.1564   -0.5677    4.3577 H   0  0  0  0  0  0  0  0  0  0  0  0
  5  6  2  0  0  0  0
  5  7  1  0  0  0  0
  2  3  1  0  0  0  0
  2  4  1  0  0  0  0
  2  5  1  0  0  0  0
  1  2  1  0  0  0  0
 17 18  2  0  0  0  0
 17 19  1  0  0  0  0
 14 15  1  0  0  0  0
 14 16  2  0  0  0  0
 11 12  1  0  0  0  0
 11 13  1  0  0  0  0
 11 14  1  0  0  0  0
  9 10  1  0  0  0  0
  9 11  1  0  0  0  0
  9 17  1  0  0  0  0
  7  8  1  0  0  0  0
  7  9  1  0  0  0  0
 21 22  1  0  0  0  0
 21 23  1  0  0  0  0
 21 24  1  0  0  0  0
 19 20  1  0  0  0  0
 19 21  1  0  0  0  0
M  CHG  1  15  -1
M  END
$$$$
default_name
  -OEChem-02102213163D

 24 23  0     1  0  0  0  0  0999 V2000
   -2.8347   -3.7166    0.8034 H   0  0  0  0  0  0  0  0  0  0  0  0
   -2.7728   -2.7096    0.3954 C   0  0  0  0  0  0  0  0  0  0  0  0
   -3.4267   -2.0426    0.9524 H   0  0  0  0  0  0  0  0  0  0  0  0
   -3.0538   -2.7186   -0.6556 H   0  0  0  0  0  0  0  0  0  0  0  0
   -1.3498   -2.2206    0.5184 C   0  0  0  0  0  0  0  0  0  0  0  0
   -0.4997   -2.9426    1.0194 O   0  0  0  0  0  0  0  0  0  0  0  0
   -1.1198   -0.9926    0.0674 N   0  0  0  0  0  0  0  0  0  0  0  0
   -1.8978   -0.4486   -0.2716 H   0  0  0  0  0  0  0  0  0  0  0  0
    0.1693   -0.2866    0.0854 C   0  0  1  0  0  0  0  0  0  0  0  0
    0.9043   -0.8713   -0.4705 H   0  0  0  0  0  0  0  0  0  0  0  0
    0.0106    1.0816   -0.6124 C   0  0  0  0  0  0  0  0  0  0  0  0
   -0.7690    0.9992   -1.3719 H   0  0  0  0  0  0  0  0  0  0  0  0
   -0.3194    1.8166    0.1250 H   0  0  0  0  0  0  0  0  0  0  0  0
    1.2822    1.5952   -1.3057 C   0  0  0  0  0  0  0  0  0  0  0  0
    1.1832    2.0753   -2.4595 O   0  5  0  0  0  0  0  0  0  0  0  0
    2.3560    1.4839   -0.6759 O   0  0  0  0  0  0  0  0  0  0  0  0
    0.6664   -0.1450    1.5428 C   0  0  0  0  0  0  0  0  0  0  0  0
    1.8485   -0.3724    1.8265 O   0  0  0  0  0  0  0  0  0  0  0  0
   -0.2161    0.2434    2.4686 N   0  0  0  0  0  0  0  0  0  0  0  0
   -1.1850    0.3219    2.1537 H   0  0  0  0  0  0  0  0  0  0  0  0
    0.0735    0.4128    3.8885 C   0  0  0  0  0  0  0  0  0  0  0  0
    1.0159    0.9483    4.0105 H   0  0  0  0  0  0  0  0  0  0  0  0
   -0.7315    0.9748    4.3613 H   0  0  0  0  0  0  0  0  0  0  0  0
    0.1564   -0.5677    4.3577 H   0  0  0  0  0  0  0  0  0  0  0  0
  5  6  2  0  0  0  0
  5  7  1  0  0  0  0
  2  3  1  0  0  0  0
  2  4  1  0  0  0  0
  2  5  1  0  0  0  0
  1  2  1  0  0  0  0
 17 18  2  0  0  0  0
 17 19  1  0  0  0  0
 14 15  1  0  0  0  0
 14 16  2  0  0  0  0
 11 12  1  0  0  0  0
 11 13  1  0  0  0  0
 11 14  1  0  0  0  0
  9 10  1  0  0  0  0
  9 11  1  0  0  0  0
  9 17  1  0  0  0  0
  7  8  1  0  0  0  0
  7  9  1  0  0  0  0
 21 22  1  0  0  0  0
 21 23  1  0  0  0  0
 21 24  1  0  0  0  0
 19 20  1  0  0  0  0
 19 21  1  0  0  0  0
M  CHG  1  15  -1
M  END
$$$$
default_name
  -OEChem-02102213163D

 24 23  0     1  0  0  0  0  0999 V2000
   -2.8347   -3.7166    0.8034 H   0  0  0  0  0  0  0  0  0  0  0  0
   -2.7728   -2.7096    0.3954 C   0  0  0  0  0  0  0  0  0  0  0  0
   -3.4267   -2.0426    0.9524 H   0  0  0  0  0  0  0  0  0  0  0  0
   -3.0538   -2.7186   -0.6556 H   0  0  0  0  0  0  0  0  0  0  0  0
   -1.3498   -2.2206    0.5184 C   0  0  0  0  0  0  0  0  0  0  0  0
   -0.4997   -2.9426    1.0194 O   0  0  0  0  0  0  0  0  0  0  0  0
   -1.1198   -0.9926    0.0674 N   0  0  0  0  0  0  0  0  0  0  0  0
   -1.8978   -0.4486   -0.2716 H   0  0  0  0  0  0  0  0  0  0  0  0
    0.1693   -0.2866    0.0854 C   0  0  1  0  0  0  0  0  0  0  0  0
    0.9043   -0.8713   -0.4705 H   0  0  0  0  0  0  0  0  0  0  0  0
    0.0106    1.0816   -0.6124 C   0  0  0  0  0  0  0  0  0  0  0  0
   -0.7690    0.9992   -1.3719 H   0  0  0  0  0  0  0  0  0  0  0  0
   -0.3194    1.8166    0.1250 H   0  0  0  0  0  0  0  0  0  0  0  0
    1.2822    1.5952   -1.3057 C   0  0  0  0  0  0  0  0  0  0  0  0
    1.1598    2.3245   -2.3180 O   0  5  0  0  0  0  0  0  0  0  0  0
    2.3769    1.2339   -0.8228 O   0  0  0  0  0  0  0  0  0  0  0  0
    0.6664   -0.1450    1.5428 C   0  0  0  0  0  0  0  0  0  0  0  0
    1.8485   -0.3724    1.8265 O   0  0  0  0  0  0  0  0  0  0  0  0
   -0.2161    0.2434    2.4686 N   0  0  0  0  0  0  0  0  0  0  0  0
   -1.1850    0.3219    2.1537 H   0  0  0  0  0  0  0  0  0  0  0  0
    0.0735    0.4128    3.8885 C   0  0  0  0  0  0  0  0  0  0  0  0
    1.0159    0.9483    4.0105 H   0  0  0  0  0  0  0  0  0  0  0  0
   -0.7315    0.9748    4.3613 H   0  0  0  0  0  0  0  0  0  0  0  0
    0.1564   -0.5677    4.3577 H   0  0  0  0  0  0  0  0  0  0  0  0
  5  6  2  0  0  0  0
  5  7  1  0  0  0  0
  2  3  1  0  0  0  0
  2  4  1  0  0  0  0
  2  5  1  0  0  0  0
  1  2  1  0  0  0  0
 17 18  2  0  0  0  0
 17 19  1  0  0  0  0
 14 15  1  0  0  0  0
 14 16  2  0  0  0  0
 11 12  1  0  0  0  0
 11 13  1  0  0  0  0
 11 14  1  0  0  0  0
  9 10  1  0  0  0  0
  9 11  1  0  0  0  0
  9 17  1  0  0  0  0
  7  8  1  0  0  0  0
  7  9  1  0  0  0  0
 21 22  1  0  0  0  0
 21 23  1  0  0  0  0
 21 24  1  0  0  0  0
 19 20  1  0  0  0  0
 19 21  1  0  0  0  0
M  CHG  1  15  -1
M  END
$$$$
default_name
  -OEChem-02102213163D

 24 23  0     1  0  0  0  0  0999 V2000
   -2.8347   -3.7166    0.8034 H   0  0  0  0  0  0  0  0  0  0  0  0
   -2.7728   -2.7096    0.3954 C   0  0  0  0  0  0  0  0  0  0  0  0
   -3.4267   -2.0426    0.9524 H   0  0  0  0  0  0  0  0  0  0  0  0
   -3.0538   -2.7186   -0.6556 H   0  0  0  0  0  0  0  0  0  0  0  0
   -1.3498   -2.2206    0.5184 C   0  0  0  0  0  0  0  0  0  0  0  0
   -0.4997   -2.9426    1.0194 O   0  0  0  0  0  0  0  0  0  0  0  0
   -1.1198   -0.9926    0.0674 N   0  0  0  0  0  0  0  0  0  0  0  0
   -1.8978   -0.4486   -0.2716 H   0  0  0  0  0  0  0  0  0  0  0  0
    0.1693   -0.2866    0.0854 C   0  0  1  0  0  0  0  0  0  0  0  0
    0.9043   -0.8713   -0.4705 H   0  0  0  0  0  0  0  0  0  0  0  0
    0.0106    1.0816   -0.6124 C   0  0  0  0  0  0  0  0  0  0  0  0
   -0.7690    0.9992   -1.3719 H   0  0  0  0  0  0  0  0  0  0  0  0
   -0.3194    1.8166    0.1250 H   0  0  0  0  0  0  0  0  0  0  0  0
    1.2822    1.5952   -1.3057 C   0  0  0  0  0  0  0  0  0  0  0  0
    1.1784    2.5376   -2.1259 O   0  5  0  0  0  0  0  0  0  0  0  0
    2.3552    1.0214   -1.0200 O   0  0  0  0  0  0  0  0  0  0  0  0
    0.6664   -0.1450    1.5428 C   0  0  0  0  0  0  0  0  0  0  0  0
    1.8485   -0.3724    1.8265 O   0  0  0  0  0  0  0  0  0  0  0  0
   -0.2161    0.2434    2.4686 N   0  0  0  0  0  0  0  0  0  0  0  0
   -1.1850    0.3219    2.1537 H   0  0  0  0  0  0  0  0  0  0  0  0
    0.0735    0.4128    3.8885 C   0  0  0  0  0  0  0  0  0  0  0  0
    1.0159    0.9483    4.0105 H   0  0  0  0  0  0  0  0  0  0  0  0
   -0.7315    0.9748    4.3613 H   0  0  0  0  0  0  0  0  0  0  0  0
    0.1564   -0.5677    4.3577 H   0  0  0  0  0  0  0  0  0  0  0  0
  5  6  2  0  0  0  0
  5  7  1  0  0  0  0
  2  3  1  0  0  0  0
  2  4  1  0  0  0  0
  2  5  1  0  0  0  0
  1  2  1  0  0  0  0
 17 18  2  0  0  0  0
 17 19  1  0  0  0  0
 14 15  1  0  0  0  0
 14 16  2  0  0  0  0
 11 12  1  0  0  0  0
 11 13  1  0  0  0  0
 11 14  1  0  0  0  0
  9 10  1  0  0  0  0
  9 11  1  0  0  0  0
  9 17  1  0  0  0  0
  7  8  1  0  0  0  0
  7  9  1  0  0  0  0
 21 22  1  0  0  0  0
 21 23  1  0  0  0  0
 21 24  1  0  0  0  0
 19 20  1  0  0  0  0
 19 21  1  0  0  0  0
M  CHG  1  15  -1
M  END
$$$$
default_name
  -OEChem-02102213163D

 24 23  0     1  0  0  0  0  0999 V2000
   -2.8347   -3.7166    0.8034 H   0  0  0  0  0  0  0  0  0  0  0  0
   -2.7728   -2.7096    0.3954 C   0  0  0  0  0  0  0  0  0  0  0  0
   -3.4267   -2.0426    0.9524 H   0  0  0  0  0  0  0  0  0  0  0  0
   -3.0538   -2.7186   -0.6556 H   0  0  0  0  0  0  0  0  0  0  0  0
   -1.3498   -2.2206    0.5184 C   0  0  0  0  0  0  0  0  0  0  0  0
   -0.4997   -2.9426    1.0194 O   0  0  0  0  0  0  0  0  0  0  0  0
   -1.1198   -0.9926    0.0674 N   0  0  0  0  0  0  0  0  0  0  0  0
   -1.8978   -0.4486   -0.2716 H   0  0  0  0  0  0  0  0  0  0  0  0
    0.1693   -0.2866    0.0854 C   0  0  1  0  0  0  0  0  0  0  0  0
    0.9043   -0.8713   -0.4705 H   0  0  0  0  0  0  0  0  0  0  0  0
    0.0106    1.0816   -0.6124 C   0  0  0  0  0  0  0  0  0  0  0  0
   -0.9274    1.0836   -1.1704 H   0  0  0  0  0  0  0  0  0  0  0  0
   -0.0543    1.8604    0.1506 H   0  0  0  0  0  0  0  0  0  0  0  0
    1.1377    1.4297   -1.5972 C   0  0  0  0  0  0  0  0  0  0  0  0
    1.0843    2.5242   -2.2062 O   0  5  0  0  0  0  0  0  0  0  0  0
    2.0421    0.5803   -1.7476 O   0  0  0  0  0  0  0  0  0  0  0  0
    0.6664   -0.1450    1.5428 C   0  0  0  0  0  0  0  0  0  0  0  0
    1.8485   -0.3724    1.8265 O   0  0  0  0  0  0  0  0  0  0  0  0
   -0.2161    0.2434    2.4686 N   0  0  0  0  0  0  0  0  0  0  0  0
   -1.1850    0.3219    2.1537 H   0  0  0  0  0  0  0  0  0  0  0  0
    0.0735    0.4128    3.8885 C   0  0  0  0  0  0  0  0  0  0  0  0
    1.0159    0.9483    4.0105 H   0  0  0  0  0  0  0  0  0  0  0  0
   -0.7315    0.9748    4.3613 H   0  0  0  0  0  0  0  0  0  0  0  0
    0.1564   -0.5677    4.3577 H   0  0  0  0  0  0  0  0  0  0  0  0
  5  6  2  0  0  0  0
  5  7  1  0  0  0  0
  2  3  1  0  0  0  0
  2  4  1  0  0  0  0
  2  5  1  0  0  0  0
  1  2  1  0  0  0  0
 17 18  2  0  0  0  0
 17 19  1  0  0  0  0
 14 15  1  0  0  0  0
 14 16  2  0  0  0  0
 11 12  1  0  0  0  0
 11 13  1  0  0  0  0
 11 14  1  0  0  0  0
  9 10  1  0  0  0  0
  9 11  1  0  0  0  0
  9 17  1  0  0  0  0
  7  8  1  0  0  0  0
  7  9  1  0  0  0  0
 21 22  1  0  0  0  0
 21 23  1  0  0  0  0
 21 24  1  0  0  0  0
 19 20  1  0  0  0  0
 19 21  1  0  0  0  0
M  CHG  1  15  -1
M  END
$$$$
default_name
  -OEChem-02102213163D

 24 23  0     1  0  0  0  0  0999 V2000
   -2.8347   -3.7166    0.8034 H   0  0  0  0  0  0  0  0  0  0  0  0
   -2.7728   -2.7096    0.3954 C   0  0  0  0  0  0  0  0  0  0  0  0
   -3.4267   -2.0426    0.9524 H   0  0  0  0  0  0  0  0  0  0  0  0
   -3.0538   -2.7186   -0.6556 H   0  0  0  0  0  0  0  0  0  0  0  0
   -1.3498   -2.2206    0.5184 C   0  0  0  0  0  0  0  0  0  0  0  0
   -0.4997   -2.9426    1.0194 O   0  0  0  0  0  0  0  0  0  0  0  0
   -1.1198   -0.9926    0.0674 N   0  0  0  0  0  0  0  0  0  0  0  0
   -1.8978   -0.4486   -0.2716 H   0  0  0  0  0  0  0  0  0  0  0  0
    0.1693   -0.2866    0.0854 C   0  0  1  0  0  0  0  0  0  0  0  0
    0.9043   -0.8713   -0.4705 H   0  0  0  0  0  0  0  0  0  0  0  0
    0.0106    1.0816   -0.6124 C   0  0  0  0  0  0  0  0  0  0  0  0
   -0.9274    1.0836   -1.1704 H   0  0  0  0  0  0  0  0  0  0  0  0
   -0.0543    1.8604    0.1506 H   0  0  0  0  0  0  0  0  0  0  0  0
    1.1377    1.4297   -1.5972 C   0  0  0  0  0  0  0  0  0  0  0  0
    1.2470    2.6160   -1.9876 O   0  5  0  0  0  0  0  0  0  0  0  0
    1.8758    0.4921   -1.9691 O   0  0  0  0  0  0  0  0  0  0  0  0
    0.6664   -0.1450    1.5428 C   0  0  0  0  0  0  0  0  0  0  0  0
    1.8485   -0.3724    1.8265 O   0  0  0  0  0  0  0  0  0  0  0  0
   -0.2161    0.2434    2.4686 N   0  0  0  0  0  0  0  0  0  0  0  0
   -1.1850    0.3219    2.1537 H   0  0  0  0  0  0  0  0  0  0  0  0
    0.0735    0.4128    3.8885 C   0  0  0  0  0  0  0  0  0  0  0  0
    1.0159    0.9483    4.0105 H   0  0  0  0  0  0  0  0  0  0  0  0
   -0.7315    0.9748    4.3613 H   0  0  0  0  0  0  0  0  0  0  0  0
    0.1564   -0.5677    4.3577 H   0  0  0  0  0  0  0  0  0  0  0  0
  5  6  2  0  0  0  0
  5  7  1  0  0  0  0
  2  3  1  0  0  0  0
  2  4  1  0  0  0  0
  2  5  1  0  0  0  0
  1  2  1  0  0  0  0
 17 18  2  0  0  0  0
 17 19  1  0  0  0  0
 14 15  1  0  0  0  0
 14 16  2  0  0  0  0
 11 12  1  0  0  0  0
 11 13  1  0  0  0  0
 11 14  1  0  0  0  0
  9 10  1  0  0  0  0
  9 11  1  0  0  0  0
  9 17  1  0  0  0  0
  7  8  1  0  0  0  0
  7  9  1  0  0  0  0
 21 22  1  0  0  0  0
 21 23  1  0  0  0  0
 21 24  1  0  0  0  0
 19 20  1  0  0  0  0
 19 21  1  0  0  0  0
M  CHG  1  15  -1
M  END
$$$$
default_name
  -OEChem-02102213163D

 24 23  0     1  0  0  0  0  0999 V2000
   -2.8347   -3.7166    0.8034 H   0  0  0  0  0  0  0  0  0  0  0  0
   -2.7728   -2.7096    0.3954 C   0  0  0  0  0  0  0  0  0  0  0  0
   -3.4267   -2.0426    0.9524 H   0  0  0  0  0  0  0  0  0  0  0  0
   -3.0538   -2.7186   -0.6556 H   0  0  0  0  0  0  0  0  0  0  0  0
   -1.3498   -2.2206    0.5184 C   0  0  0  0  0  0  0  0  0  0  0  0
   -0.4997   -2.9426    1.0194 O   0  0  0  0  0  0  0  0  0  0  0  0
   -1.1198   -0.9926    0.0674 N   0  0  0  0  0  0  0  0  0  0  0  0
   -1.8978   -0.4486   -0.2716 H   0  0  0  0  0  0  0  0  0  0  0  0
    0.1693   -0.2866    0.0854 C   0  0  1  0  0  0  0  0  0  0  0  0
    0.9043   -0.8713   -0.4705 H   0  0  0  0  0  0  0  0  0  0  0  0
    0.0106    1.0816   -0.6124 C   0  0  0  0  0  0  0  0  0  0  0  0
   -0.9274    1.0836   -1.1704 H   0  0  0  0  0  0  0  0  0  0  0  0
   -0.0543    1.8604    0.1506 H   0  0  0  0  0  0  0  0  0  0  0  0
    1.1377    1.4297   -1.5972 C   0  0  0  0  0  0  0  0  0  0  0  0
    1.4321    2.6362   -1.7686 O   0  5  0  0  0  0  0  0  0  0  0  0
    1.6875    0.4767   -2.1901 O   0  0  0  0  0  0  0  0  0  0  0  0
    0.6664   -0.1450    1.5428 C   0  0  0  0  0  0  0  0  0  0  0  0
    1.8485   -0.3724    1.8265 O   0  0  0  0  0  0  0  0  0  0  0  0
   -0.2161    0.2434    2.4686 N   0  0  0  0  0  0  0  0  0  0  0  0
   -1.1850    0.3219    2.1537 H   0  0  0  0  0  0  0  0  0  0  0  0
    0.0735    0.4128    3.8885 C   0  0  0  0  0  0  0  0  0  0  0  0
    1.0159    0.9483    4.0105 H   0  0  0  0  0  0  0  0  0  0  0  0
   -0.7315    0.9748    4.3613 H   0  0  0  0  0  0  0  0  0  0  0  0
    0.1564   -0.5677    4.3577 H   0  0  0  0  0  0  0  0  0  0  0  0
  5  6  2  0  0  0  0
  5  7  1  0  0  0  0
  2  3  1  0  0  0  0
  2  4  1  0  0  0  0
  2  5  1  0  0  0  0
  1  2  1  0  0  0  0
 17 18  2  0  0  0  0
 17 19  1  0  0  0  0
 14 15  1  0  0  0  0
 14 16  2  0  0  0  0
 11 12  1  0  0  0  0
 11 13  1  0  0  0  0
 11 14  1  0  0  0  0
  9 10  1  0  0  0  0
  9 11  1  0  0  0  0
  9 17  1  0  0  0  0
  7  8  1  0  0  0  0
  7  9  1  0  0  0  0
 21 22  1  0  0  0  0
 21 23  1  0  0  0  0
 21 24  1  0  0  0  0
 19 20  1  0  0  0  0
 19 21  1  0  0  0  0
M  CHG  1  15  -1
M  END
$$$$
default_name
  -OEChem-02102213163D

 24 23  0     1  0  0  0  0  0999 V2000
   -2.8347   -3.7166    0.8034 H   0  0  0  0  0  0  0  0  0  0  0  0
   -2.7728   -2.7096    0.3954 C   0  0  0  0  0  0  0  0  0  0  0  0
   -3.4267   -2.0426    0.9524 H   0  0  0  0  0  0  0  0  0  0  0  0
   -3.0538   -2.7186   -0.6556 H   0  0  0  0  0  0  0  0  0  0  0  0
   -1.3498   -2.2206    0.5184 C   0  0  0  0  0  0  0  0  0  0  0  0
   -0.4997   -2.9426    1.0194 O   0  0  0  0  0  0  0  0  0  0  0  0
   -1.1198   -0.9926    0.0674 N   0  0  0  0  0  0  0  0  0  0  0  0
   -1.8978   -0.4486   -0.2716 H   0  0  0  0  0  0  0  0  0  0  0  0
    0.1693   -0.2866    0.0854 C   0  0  1  0  0  0  0  0  0  0  0  0
    0.9043   -0.8713   -0.4705 H   0  0  0  0  0  0  0  0  0  0  0  0
    0.0106    1.0816   -0.6124 C   0  0  0  0  0  0  0  0  0  0  0  0
   -0.9274    1.0836   -1.1704 H   0  0  0  0  0  0  0  0  0  0  0  0
   -0.0543    1.8604    0.1506 H   0  0  0  0  0  0  0  0  0  0  0  0
    1.1377    1.4297   -1.5972 C   0  0  0  0  0  0  0  0  0  0  0  0
    1.6271    2.5835   -1.5641 O   0  5  0  0  0  0  0  0  0  0  0  0
    1.4901    0.5349   -2.3955 O   0  0  0  0  0  0  0  0  0  0  0  0
    0.6664   -0.1450    1.5428 C   0  0  0  0  0  0  0  0  0  0  0  0
    1.8485   -0.3724    1.8265 O   0  0  0  0  0  0  0  0  0  0  0  0
   -0.2161    0.2434    2.4686 N   0  0  0  0  0  0  0  0  0  0  0  0
   -1.1850    0.3219    2.1537 H   0  0  0  0  0  0  0  0  0  0  0  0
    0.0735    0.4128    3.8885 C   0  0  0  0  0  0  0  0  0  0  0  0
    1.0159    0.9483    4.0105 H   0  0  0  0  0  0  0  0  0  0  0  0
   -0.7315    0.9748    4.3613 H   0  0  0  0  0  0  0  0  0  0  0  0
    0.1564   -0.5677    4.3577 H   0  0  0  0  0  0  0  0  0  0  0  0
  5  6  2  0  0  0  0
  5  7  1  0  0  0  0
  2  3  1  0  0  0  0
  2  4  1  0  0  0  0
  2  5  1  0  0  0  0
  1  2  1  0  0  0  0
 17 18  2  0  0  0  0
 17 19  1  0  0  0  0
 14 15  1  0  0  0  0
 14 16  2  0  0  0  0
 11 12  1  0  0  0  0
 11 13  1  0  0  0  0
 11 14  1  0  0  0  0
  9 10  1  0  0  0  0
  9 11  1  0  0  0  0
  9 17  1  0  0  0  0
  7  8  1  0  0  0  0
  7  9  1  0  0  0  0
 21 22  1  0  0  0  0
 21 23  1  0  0  0  0
 21 24  1  0  0  0  0
 19 20  1  0  0  0  0
 19 21  1  0  0  0  0
M  CHG  1  15  -1
M  END
$$$$
default_name
  -OEChem-02102213163D

 24 23  0     1  0  0  0  0  0999 V2000
   -2.8347   -3.7166    0.8034 H   0  0  0  0  0  0  0  0  0  0  0  0
   -2.7728   -2.7096    0.3954 C   0  0  0  0  0  0  0  0  0  0  0  0
   -3.4267   -2.0426    0.9524 H   0  0  0  0  0  0  0  0  0  0  0  0
   -3.0538   -2.7186   -0.6556 H   0  0  0  0  0  0  0  0  0  0  0  0
   -1.3498   -2.2206    0.5184 C   0  0  0  0  0  0  0  0  0  0  0  0
   -0.4997   -2.9426    1.0194 O   0  0  0  0  0  0  0  0  0  0  0  0
   -1.1198   -0.9926    0.0674 N   0  0  0  0  0  0  0  0  0  0  0  0
   -1.8978   -0.4486   -0.2716 H   0  0  0  0  0  0  0  0  0  0  0  0
    0.1693   -0.2866    0.0854 C   0  0  1  0  0  0  0  0  0  0  0  0
    0.9043   -0.8713   -0.4705 H   0  0  0  0  0  0  0  0  0  0  0  0
    0.0106    1.0816   -0.6124 C   0  0  0  0  0  0  0  0  0  0  0  0
   -0.9274    1.0836   -1.1704 H   0  0  0  0  0  0  0  0  0  0  0  0
   -0.0543    1.8604    0.1506 H   0  0  0  0  0  0  0  0  0  0  0  0
    1.1377    1.4297   -1.5972 C   0  0  0  0  0  0  0  0  0  0  0  0
    1.8187    2.4613   -1.3879 O   0  5  0  0  0  0  0  0  0  0  0  0
    1.2970    0.6629   -2.5712 O   0  0  0  0  0  0  0  0  0  0  0  0
    0.6664   -0.1450    1.5428 C   0  0  0  0  0  0  0  0  0  0  0  0
    1.8485   -0.3724    1.8265 O   0  0  0  0  0  0  0  0  0  0  0  0
   -0.2161    0.2434    2.4686 N   0  0  0  0  0  0  0  0  0  0  0  0
   -1.1850    0.3219    2.1537 H   0  0  0  0  0  0  0  0  0  0  0  0
    0.0735    0.4128    3.8885 C   0  0  0  0  0  0  0  0  0  0  0  0
    1.0159    0.9483    4.0105 H   0  0  0  0  0  0  0  0  0  0  0  0
   -0.7315    0.9748    4.3613 H   0  0  0  0  0  0  0  0  0  0  0  0
    0.1564   -0.5677    4.3577 H   0  0  0  0  0  0  0  0  0  0  0  0
  5  6  2  0  0  0  0
  5  7  1  0  0  0  0
  2  3  1  0  0  0  0
  2  4  1  0  0  0  0
  2  5  1  0  0  0  0
  1  2  1  0  0  0  0
 17 18  2  0  0  0  0
 17 19  1  0  0  0  0
 14 15  1  0  0  0  0
 14 16  2  0  0  0  0
 11 12  1  0  0  0  0
 11 13  1  0  0  0  0
 11 14  1  0  0  0  0
  9 10  1  0  0  0  0
  9 11  1  0  0  0  0
  9 17  1  0  0  0  0
  7  8  1  0  0  0  0
  7  9  1  0  0  0  0
 21 22  1  0  0  0  0
 21 23  1  0  0  0  0
 21 24  1  0  0  0  0
 19 20  1  0  0  0  0
 19 21  1  0  0  0  0
M  CHG  1  15  -1
M  END
$$$$
default_name
  -OEChem-02102213163D

 24 23  0     1  0  0  0  0  0999 V2000
   -2.8347   -3.7166    0.8034 H   0  0  0  0  0  0  0  0  0  0  0  0
   -2.7728   -2.7096    0.3954 C   0  0  0  0  0  0  0  0  0  0  0  0
   -3.4267   -2.0426    0.9524 H   0  0  0  0  0  0  0  0  0  0  0  0
   -3.0538   -2.7186   -0.6556 H   0  0  0  0  0  0  0  0  0  0  0  0
   -1.3498   -2.2206    0.5184 C   0  0  0  0  0  0  0  0  0  0  0  0
   -0.4997   -2.9426    1.0194 O   0  0  0  0  0  0  0  0  0  0  0  0
   -1.1198   -0.9926    0.0674 N   0  0  0  0  0  0  0  0  0  0  0  0
   -1.8978   -0.4486   -0.2716 H   0  0  0  0  0  0  0  0  0  0  0  0
    0.1693   -0.2866    0.0854 C   0  0  1  0  0  0  0  0  0  0  0  0
    0.9043   -0.8713   -0.4705 H   0  0  0  0  0  0  0  0  0  0  0  0
    0.0106    1.0816   -0.6124 C   0  0  0  0  0  0  0  0  0  0  0  0
   -0.9274    1.0836   -1.1704 H   0  0  0  0  0  0  0  0  0  0  0  0
   -0.0543    1.8604    0.1506 H   0  0  0  0  0  0  0  0  0  0  0  0
    1.1377    1.4297   -1.5972 C   0  0  0  0  0  0  0  0  0  0  0  0
    1.9938    2.2782   -1.2522 O   0  5  0  0  0  0  0  0  0  0  0  0
    1.1215    0.8519   -2.7053 O   0  0  0  0  0  0  0  0  0  0  0  0
    0.6664   -0.1450    1.5428 C   0  0  0  0  0  0  0  0  0  0  0  0
    1.8485   -0.3724    1.8265 O   0  0  0  0  0  0  0  0  0  0  0  0
   -0.2161    0.2434    2.4686 N   0  0  0  0  0  0  0  0  0  0  0  0
   -1.1850    0.3219    2.1537 H   0  0  0  0  0  0  0  0  0  0  0  0
    0.0735    0.4128    3.8885 C   0  0  0  0  0  0  0  0  0  0  0  0
    1.0159    0.9483    4.0105 H   0  0  0  0  0  0  0  0  0  0  0  0
   -0.7315    0.9748    4.3613 H   0  0  0  0  0  0  0  0  0  0  0  0
    0.1564   -0.5677    4.3577 H   0  0  0  0  0  0  0  0  0  0  0  0
  5  6  2  0  0  0  0
  5  7  1  0  0  0  0
  2  3  1  0  0  0  0
  2  4  1  0  0  0  0
  2  5  1  0  0  0  0
  1  2  1  0  0  0  0
 17 18  2  0  0  0  0
 17 19  1  0  0  0  0
 14 15  1  0  0  0  0
 14 16  2  0  0  0  0
 11 12  1  0  0  0  0
 11 13  1  0  0  0  0
 11 14  1  0  0  0  0
  9 10  1  0  0  0  0
  9 11  1  0  0  0  0
  9 17  1  0  0  0  0
  7  8  1  0  0  0  0
  7  9  1  0  0  0  0
 21 22  1  0  0  0  0
 21 23  1  0  0  0  0
 21 24  1  0  0  0  0
 19 20  1  0  0  0  0
 19 21  1  0  0  0  0
M  CHG  1  15  -1
M  END
$$$$
default_name
  -OEChem-02102213163D

 24 23  0     1  0  0  0  0  0999 V2000
   -2.8347   -3.7166    0.8034 H   0  0  0  0  0  0  0  0  0  0  0  0
   -2.7728   -2.7096    0.3954 C   0  0  0  0  0  0  0  0  0  0  0  0
   -3.4267   -2.0426    0.9524 H   0  0  0  0  0  0  0  0  0  0  0  0
   -3.0538   -2.7186   -0.6556 H   0  0  0  0  0  0  0  0  0  0  0  0
   -1.3498   -2.2206    0.5184 C   0  0  0  0  0  0  0  0  0  0  0  0
   -0.4997   -2.9426    1.0194 O   0  0  0  0  0  0  0  0  0  0  0  0
   -1.1198   -0.9926    0.0674 N   0  0  0  0  0  0  0  0  0  0  0  0
   -1.8978   -0.4486   -0.2716 H   0  0  0  0  0  0  0  0  0  0  0  0
    0.1693   -0.2866    0.0854 C   0  0  1  0  0  0  0  0  0  0  0  0
    0.9043   -0.8713   -0.4705 H   0  0  0  0  0  0  0  0  0  0  0  0
    0.0106    1.0816   -0.6124 C   0  0  0  0  0  0  0  0  0  0  0  0
   -0.9274    1.0836   -1.1704 H   0  0  0  0  0  0  0  0  0  0  0  0
   -0.0543    1.8604    0.1506 H   0  0  0  0  0  0  0  0  0  0  0  0
    1.1377    1.4297   -1.5972 C   0  0  0  0  0  0  0  0  0  0  0  0
    2.1405    2.0464   -1.1662 O   0  5  0  0  0  0  0  0  0  0  0  0
    0.9754    1.0890   -2.7887 O   0  0  0  0  0  0  0  0  0  0  0  0
    0.6664   -0.1450    1.5428 C   0  0  0  0  0  0  0  0  0  0  0  0
    1.8485   -0.3724    1.8265 O   0  0  0  0  0  0  0  0  0  0  0  0
   -0.2161    0.2434    2.4686 N   0  0  0  0  0  0  0  0  0  0  0  0
   -1.1850    0.3219    2.1537 H   0  0  0  0  0  0  0  0  0  0  0  0
    0.0735    0.4128    3.8885 C   0  0  0  0  0  0  0  0  0  0  0  0
    1.0159    0.9483    4.0105 H   0  0  0  0  0  0  0  0  0  0  0  0
   -0.7315    0.9748    4.3613 H   0  0  0  0  0  0  0  0  0  0  0  0
    0.1564   -0.5677    4.3577 H   0  0  0  0  0  0  0  0  0  0  0  0
  5  6  2  0  0  0  0
  5  7  1  0  0  0  0
  2  3  1  0  0  0  0
  2  4  1  0  0  0  0
  2  5  1  0  0  0  0
  1  2  1  0  0  0  0
 17 18  2  0  0  0  0
 17 19  1  0  0  0  0
 14 15  1  0  0  0  0
 14 16  2  0  0  0  0
 11 12  1  0  0  0  0
 11 13  1  0  0  0  0
 11 14  1  0  0  0  0
  9 10  1  0  0  0  0
  9 11  1  0  0  0  0
  9 17  1  0  0  0  0
  7  8  1  0  0  0  0
  7  9  1  0  0  0  0
 21 22  1  0  0  0  0
 21 23  1  0  0  0  0
 21 24  1  0  0  0  0
 19 20  1  0  0  0  0
 19 21  1  0  0  0  0
M  CHG  1  15  -1
M  END
$$$$
default_name
  -OEChem-02102213163D

 24 23  0     1  0  0  0  0  0999 V2000
   -2.8347   -3.7166    0.8034 H   0  0  0  0  0  0  0  0  0  0  0  0
   -2.7728   -2.7096    0.3954 C   0  0  0  0  0  0  0  0  0  0  0  0
   -3.4267   -2.0426    0.9524 H   0  0  0  0  0  0  0  0  0  0  0  0
   -3.0538   -2.7186   -0.6556 H   0  0  0  0  0  0  0  0  0  0  0  0
   -1.3498   -2.2206    0.5184 C   0  0  0  0  0  0  0  0  0  0  0  0
   -0.4997   -2.9426    1.0194 O   0  0  0  0  0  0  0  0  0  0  0  0
   -1.1198   -0.9926    0.0674 N   0  0  0  0  0  0  0  0  0  0  0  0
   -1.8978   -0.4486   -0.2716 H   0  0  0  0  0  0  0  0  0  0  0  0
    0.1693   -0.2866    0.0854 C   0  0  1  0  0  0  0  0  0  0  0  0
    0.9043   -0.8713   -0.4705 H   0  0  0  0  0  0  0  0  0  0  0  0
    0.0106    1.0816   -0.6124 C   0  0  0  0  0  0  0  0  0  0  0  0
   -0.9274    1.0836   -1.1704 H   0  0  0  0  0  0  0  0  0  0  0  0
   -0.0543    1.8604    0.1506 H   0  0  0  0  0  0  0  0  0  0  0  0
    1.1377    1.4297   -1.5972 C   0  0  0  0  0  0  0  0  0  0  0  0
    2.2489    1.7819   -1.1357 O   0  5  0  0  0  0  0  0  0  0  0  0
    0.8688    1.3581   -2.8156 O   0  0  0  0  0  0  0  0  0  0  0  0
    0.6664   -0.1450    1.5428 C   0  0  0  0  0  0  0  0  0  0  0  0
    1.8485   -0.3724    1.8265 O   0  0  0  0  0  0  0  0  0  0  0  0
   -0.2161    0.2434    2.4686 N   0  0  0  0  0  0  0  0  0  0  0  0
   -1.1850    0.3219    2.1537 H   0  0  0  0  0  0  0  0  0  0  0  0
    0.0735    0.4128    3.8885 C   0  0  0  0  0  0  0  0  0  0  0  0
    1.0159    0.9483    4.0105 H   0  0  0  0  0  0  0  0  0  0  0  0
   -0.7315    0.9748    4.3613 H   0  0  0  0  0  0  0  0  0  0  0  0
    0.1564   -0.5677    4.3577 H   0  0  0  0  0  0  0  0  0  0  0  0
  5  6  2  0  0  0  0
  5  7  1  0  0  0  0
  2  3  1  0  0  0  0
  2  4  1  0  0  0  0
  2  5  1  0  0  0  0
  1  2  1  0  0  0  0
 17 18  2  0  0  0  0
 17 19  1  0  0  0  0
 14 15  1  0  0  0  0
 14 16  2  0  0  0  0
 11 12  1  0  0  0  0
 11 13  1  0  0  0  0
 11 14  1  0  0  0  0
  9 10  1  0  0  0  0
  9 11  1  0  0  0  0
  9 17  1  0  0  0  0
  7  8  1  0  0  0  0
  7  9  1  0  0  0  0
 21 22  1  0  0  0  0
 21 23  1  0  0  0  0
 21 24  1  0  0  0  0
 19 20  1  0  0  0  0
 19 21  1  0  0  0  0
M  CHG  1  15  -1
M  END
$$$$
default_name
  -OEChem-02102213163D

 24 23  0     1  0  0  0  0  0999 V2000
   -2.8347   -3.7166    0.8034 H   0  0  0  0  0  0  0  0  0  0  0  0
   -2.7728   -2.7096    0.3954 C   0  0  0  0  0  0  0  0  0  0  0  0
   -3.4267   -2.0426    0.9524 H   0  0  0  0  0  0  0  0  0  0  0  0
   -3.0538   -2.7186   -0.6556 H   0  0  0  0  0  0  0  0  0  0  0  0
   -1.3498   -2.2206    0.5184 C   0  0  0  0  0  0  0  0  0  0  0  0
   -0.4997   -2.9426    1.0194 O   0  0  0  0  0  0  0  0  0  0  0  0
   -1.1198   -0.9926    0.0674 N   0  0  0  0  0  0  0  0  0  0  0  0
   -1.8978   -0.4486   -0.2716 H   0  0  0  0  0  0  0  0  0  0  0  0
    0.1693   -0.2866    0.0854 C   0  0  1  0  0  0  0  0  0  0  0  0
    0.9043   -0.8713   -0.4705 H   0  0  0  0  0  0  0  0  0  0  0  0
    0.0106    1.0816   -0.6124 C   0  0  0  0  0  0  0  0  0  0  0  0
   -0.9274    1.0836   -1.1704 H   0  0  0  0  0  0  0  0  0  0  0  0
   -0.0543    1.8604    0.1506 H   0  0  0  0  0  0  0  0  0  0  0  0
    1.1377    1.4297   -1.5972 C   0  0  0  0  0  0  0  0  0  0  0  0
    2.3115    1.5026   -1.1628 O   0  5  0  0  0  0  0  0  0  0  0  0
    0.8088    1.6409   -2.7843 O   0  0  0  0  0  0  0  0  0  0  0  0
    0.6664   -0.1450    1.5428 C   0  0  0  0  0  0  0  0  0  0  0  0
    1.8485   -0.3724    1.8265 O   0  0  0  0  0  0  0  0  0  0  0  0
   -0.2161    0.2434    2.4686 N   0  0  0  0  0  0  0  0  0  0  0  0
   -1.1850    0.3219    2.1537 H   0  0  0  0  0  0  0  0  0  0  0  0
    0.0735    0.4128    3.8885 C   0  0  0  0  0  0  0  0  0  0  0  0
    1.0159    0.9483    4.0105 H   0  0  0  0  0  0  0  0  0  0  0  0
   -0.7315    0.9748    4.3613 H   0  0  0  0  0  0  0  0  0  0  0  0
    0.1564   -0.5677    4.3577 H   0  0  0  0  0  0  0  0  0  0  0  0
  5  6  2  0  0  0  0
  5  7  1  0  0  0  0
  2  3  1  0  0  0  0
  2  4  1  0  0  0  0
  2  5  1  0  0  0  0
  1  2  1  0  0  0  0
 17 18  2  0  0  0  0
 17 19  1  0  0  0  0
 14 15  1  0  0  0  0
 14 16  2  0  0  0  0
 11 12  1  0  0  0  0
 11 13  1  0  0  0  0
 11 14  1  0  0  0  0
  9 10  1  0  0  0  0
  9 11  1  0  0  0  0
  9 17  1  0  0  0  0
  7  8  1  0  0  0  0
  7  9  1  0  0  0  0
 21 22  1  0  0  0  0
 21 23  1  0  0  0  0
 21 24  1  0  0  0  0
 19 20  1  0  0  0  0
 19 21  1  0  0  0  0
M  CHG  1  15  -1
M  END
$$$$
default_name
  -OEChem-02102213163D

 24 23  0     1  0  0  0  0  0999 V2000
   -2.8347   -3.7166    0.8034 H   0  0  0  0  0  0  0  0  0  0  0  0
   -2.7728   -2.7096    0.3954 C   0  0  0  0  0  0  0  0  0  0  0  0
   -3.4267   -2.0426    0.9524 H   0  0  0  0  0  0  0  0  0  0  0  0
   -3.0538   -2.7186   -0.6556 H   0  0  0  0  0  0  0  0  0  0  0  0
   -1.3498   -2.2206    0.5184 C   0  0  0  0  0  0  0  0  0  0  0  0
   -0.4997   -2.9426    1.0194 O   0  0  0  0  0  0  0  0  0  0  0  0
   -1.1198   -0.9926    0.0674 N   0  0  0  0  0  0  0  0  0  0  0  0
   -1.8978   -0.4486   -0.2716 H   0  0  0  0  0  0  0  0  0  0  0  0
    0.1693   -0.2866    0.0854 C   0  0  1  0  0  0  0  0  0  0  0  0
    0.9043   -0.8713   -0.4705 H   0  0  0  0  0  0  0  0  0  0  0  0
    0.0106    1.0816   -0.6124 C   0  0  0  0  0  0  0  0  0  0  0  0
   -0.9274    1.0836   -1.1704 H   0  0  0  0  0  0  0  0  0  0  0  0
   -0.0543    1.8604    0.1506 H   0  0  0  0  0  0  0  0  0  0  0  0
    1.1377    1.4297   -1.5972 C   0  0  0  0  0  0  0  0  0  0  0  0
    2.3240    1.2276   -1.2456 O   0  5  0  0  0  0  0  0  0  0  0  0
    0.7996    1.9180   -2.6969 O   0  0  0  0  0  0  0  0  0  0  0  0
    0.6664   -0.1450    1.5428 C   0  0  0  0  0  0  0  0  0  0  0  0
    1.8485   -0.3724    1.8265 O   0  0  0  0  0  0  0  0  0  0  0  0
   -0.2161    0.2434    2.4686 N   0  0  0  0  0  0  0  0  0  0  0  0
   -1.1850    0.3219    2.1537 H   0  0  0  0  0  0  0  0  0  0  0  0
    0.0735    0.4128    3.8885 C   0  0  0  0  0  0  0  0  0  0  0  0
    1.0159    0.9483    4.0105 H   0  0  0  0  0  0  0  0  0  0  0  0
   -0.7315    0.9748    4.3613 H   0  0  0  0  0  0  0  0  0  0  0  0
    0.1564   -0.5677    4.3577 H   0  0  0  0  0  0  0  0  0  0  0  0
  5  6  2  0  0  0  0
  5  7  1  0  0  0  0
  2  3  1  0  0  0  0
  2  4  1  0  0  0  0
  2  5  1  0  0  0  0
  1  2  1  0  0  0  0
 17 18  2  0  0  0  0
 17 19  1  0  0  0  0
 14 15  1  0  0  0  0
 14 16  2  0  0  0  0
 11 12  1  0  0  0  0
 11 13  1  0  0  0  0
 11 14  1  0  0  0  0
  9 10  1  0  0  0  0
  9 11  1  0  0  0  0
  9 17  1  0  0  0  0
  7  8  1  0  0  0  0
  7  9  1  0  0  0  0
 21 22  1  0  0  0  0
 21 23  1  0  0  0  0
 21 24  1  0  0  0  0
 19 20  1  0  0  0  0
 19 21  1  0  0  0  0
M  CHG  1  15  -1
M  END
$$$$
default_name
  -OEChem-02102213163D

 24 23  0     1  0  0  0  0  0999 V2000
   -2.8347   -3.7166    0.8034 H   0  0  0  0  0  0  0  0  0  0  0  0
   -2.7728   -2.7096    0.3954 C   0  0  0  0  0  0  0  0  0  0  0  0
   -3.4267   -2.0426    0.9524 H   0  0  0  0  0  0  0  0  0  0  0  0
   -3.0538   -2.7186   -0.6556 H   0  0  0  0  0  0  0  0  0  0  0  0
   -1.3498   -2.2206    0.5184 C   0  0  0  0  0  0  0  0  0  0  0  0
   -0.4997   -2.9426    1.0194 O   0  0  0  0  0  0  0  0  0  0  0  0
   -1.1198   -0.9926    0.0674 N   0  0  0  0  0  0  0  0  0  0  0  0
   -1.8978   -0.4486   -0.2716 H   0  0  0  0  0  0  0  0  0  0  0  0
    0.1693   -0.2866    0.0854 C   0  0  1  0  0  0  0  0  0  0  0  0
    0.9043   -0.8713   -0.4705 H   0  0  0  0  0  0  0  0  0  0  0  0
    0.0106    1.0816   -0.6124 C   0  0  0  0  0  0  0  0  0  0  0  0
   -0.9274    1.0836   -1.1704 H   0  0  0  0  0  0  0  0  0  0  0  0
   -0.0543    1.8604    0.1506 H   0  0  0  0  0  0  0  0  0  0  0  0
    1.1377    1.4297   -1.5972 C   0  0  0  0  0  0  0  0  0  0  0  0
    2.2856    0.9756   -1.3786 O   0  5  0  0  0  0  0  0  0  0  0  0
    0.8418    2.1706   -2.5593 O   0  0  0  0  0  0  0  0  0  0  0  0
    0.6664   -0.1450    1.5428 C   0  0  0  0  0  0  0  0  0  0  0  0
    1.8485   -0.3724    1.8265 O   0  0  0  0  0  0  0  0  0  0  0  0
   -0.2161    0.2434    2.4686 N   0  0  0  0  0  0  0  0  0  0  0  0
   -1.1850    0.3219    2.1537 H   0  0  0  0  0  0  0  0  0  0  0  0
    0.0735    0.4128    3.8885 C   0  0  0  0  0  0  0  0  0  0  0  0
    1.0159    0.9483    4.0105 H   0  0  0  0  0  0  0  0  0  0  0  0
   -0.7315    0.9748    4.3613 H   0  0  0  0  0  0  0  0  0  0  0  0
    0.1564   -0.5677    4.3577 H   0  0  0  0  0  0  0  0  0  0  0  0
  5  6  2  0  0  0  0
  5  7  1  0  0  0  0
  2  3  1  0  0  0  0
  2  4  1  0  0  0  0
  2  5  1  0  0  0  0
  1  2  1  0  0  0  0
 17 18  2  0  0  0  0
 17 19  1  0  0  0  0
 14 15  1  0  0  0  0
 14 16  2  0  0  0  0
 11 12  1  0  0  0  0
 11 13  1  0  0  0  0
 11 14  1  0  0  0  0
  9 10  1  0  0  0  0
  9 11  1  0  0  0  0
  9 17  1  0  0  0  0
  7  8  1  0  0  0  0
  7  9  1  0  0  0  0
 21 22  1  0  0  0  0
 21 23  1  0  0  0  0
 21 24  1  0  0  0  0
 19 20  1  0  0  0  0
 19 21  1  0  0  0  0
M  CHG  1  15  -1
M  END
$$$$
default_name
  -OEChem-02102213163D

 24 23  0     1  0  0  0  0  0999 V2000
   -2.8347   -3.7166    0.8034 H   0  0  0  0  0  0  0  0  0  0  0  0
   -2.7728   -2.7096    0.3954 C   0  0  0  0  0  0  0  0  0  0  0  0
   -3.4267   -2.0426    0.9524 H   0  0  0  0  0  0  0  0  0  0  0  0
   -3.0538   -2.7186   -0.6556 H   0  0  0  0  0  0  0  0  0  0  0  0
   -1.3498   -2.2206    0.5184 C   0  0  0  0  0  0  0  0  0  0  0  0
   -0.4997   -2.9426    1.0194 O   0  0  0  0  0  0  0  0  0  0  0  0
   -1.1198   -0.9926    0.0674 N   0  0  0  0  0  0  0  0  0  0  0  0
   -1.8978   -0.4486   -0.2716 H   0  0  0  0  0  0  0  0  0  0  0  0
    0.1693   -0.2866    0.0854 C   0  0  1  0  0  0  0  0  0  0  0  0
    0.9043   -0.8713   -0.4705 H   0  0  0  0  0  0  0  0  0  0  0  0
    0.0106    1.0816   -0.6124 C   0  0  0  0  0  0  0  0  0  0  0  0
   -0.9274    1.0836   -1.1704 H   0  0  0  0  0  0  0  0  0  0  0  0
   -0.0543    1.8604    0.1506 H   0  0  0  0  0  0  0  0  0  0  0  0
    1.1377    1.4297   -1.5972 C   0  0  0  0  0  0  0  0  0  0  0  0
    2.1990    0.7638   -1.5527 O   0  5  0  0  0  0  0  0  0  0  0  0
    0.9325    2.3815   -2.3809 O   0  0  0  0  0  0  0  0  0  0  0  0
    0.6664   -0.1450    1.5428 C   0  0  0  0  0  0  0  0  0  0  0  0
    1.8485   -0.3724    1.8265 O   0  0  0  0  0  0  0  0  0  0  0  0
   -0.2161    0.2434    2.4686 N   0  0  0  0  0  0  0  0  0  0  0  0
   -1.1850    0.3219    2.1537 H   0  0  0  0  0  0  0  0  0  0  0  0
    0.0735    0.4128    3.8885 C   0  0  0  0  0  0  0  0  0  0  0  0
    1.0159    0.9483    4.0105 H   0  0  0  0  0  0  0  0  0  0  0  0
   -0.7315    0.9748    4.3613 H   0  0  0  0  0  0  0  0  0  0  0  0
    0.1564   -0.5677    4.3577 H   0  0  0  0  0  0  0  0  0  0  0  0
  5  6  2  0  0  0  0
  5  7  1  0  0  0  0
  2  3  1  0  0  0  0
  2  4  1  0  0  0  0
  2  5  1  0  0  0  0
  1  2  1  0  0  0  0
 17 18  2  0  0  0  0
 17 19  1  0  0  0  0
 14 15  1  0  0  0  0
 14 16  2  0  0  0  0
 11 12  1  0  0  0  0
 11 13  1  0  0  0  0
 11 14  1  0  0  0  0
  9 10  1  0  0  0  0
  9 11  1  0  0  0  0
  9 17  1  0  0  0  0
  7  8  1  0  0  0  0
  7  9  1  0  0  0  0
 21 22  1  0  0  0  0
 21 23  1  0  0  0  0
 21 24  1  0  0  0  0
 19 20  1  0  0  0  0
 19 21  1  0  0  0  0
M  CHG  1  15  -1
M  END
$$$$
default_name
  -OEChem-02102213163D

 24 23  0     1  0  0  0  0  0999 V2000
   -2.8347   -3.7166    0.8034 H   0  0  0  0  0  0  0  0  0  0  0  0
   -2.7728   -2.7096    0.3954 C   0  0  0  0  0  0  0  0  0  0  0  0
   -3.4267   -2.0426    0.9524 H   0  0  0  0  0  0  0  0  0  0  0  0
   -3.0538   -2.7186   -0.6556 H   0  0  0  0  0  0  0  0  0  0  0  0
   -1.3498   -2.2206    0.5184 C   0  0  0  0  0  0  0  0  0  0  0  0
   -0.4997   -2.9426    1.0194 O   0  0  0  0  0  0  0  0  0  0  0  0
   -1.1198   -0.9926    0.0674 N   0  0  0  0  0  0  0  0  0  0  0  0
   -1.8978   -0.4486   -0.2716 H   0  0  0  0  0  0  0  0  0  0  0  0
    0.1693   -0.2866    0.0854 C   0  0  1  0  0  0  0  0  0  0  0  0
    0.9043   -0.8713   -0.4705 H   0  0  0  0  0  0  0  0  0  0  0  0
    0.0106    1.0816   -0.6124 C   0  0  0  0  0  0  0  0  0  0  0  0
   -0.9274    1.0836   -1.1704 H   0  0  0  0  0  0  0  0  0  0  0  0
   -0.0543    1.8604    0.1506 H   0  0  0  0  0  0  0  0  0  0  0  0
    1.1377    1.4297   -1.5972 C   0  0  0  0  0  0  0  0  0  0  0  0
    2.0699    0.6067   -1.7559 O   0  5  0  0  0  0  0  0  0  0  0  0
    1.0656    2.5363   -2.1739 O   0  0  0  0  0  0  0  0  0  0  0  0
    0.6664   -0.1450    1.5428 C   0  0  0  0  0  0  0  0  0  0  0  0
    1.8485   -0.3724    1.8265 O   0  0  0  0  0  0  0  0  0  0  0  0
   -0.2161    0.2434    2.4686 N   0  0  0  0  0  0  0  0  0  0  0  0
   -1.1850    0.3219    2.1537 H   0  0  0  0  0  0  0  0  0  0  0  0
    0.0735    0.4128    3.8885 C   0  0  0  0  0  0  0  0  0  0  0  0
    1.0159    0.9483    4.0105 H   0  0  0  0  0  0  0  0  0  0  0  0
   -0.7315    0.9748    4.3613 H   0  0  0  0  0  0  0  0  0  0  0  0
    0.1564   -0.5677    4.3577 H   0  0  0  0  0  0  0  0  0  0  0  0
  5  6  2  0  0  0  0
  5  7  1  0  0  0  0
  2  3  1  0  0  0  0
  2  4  1  0  0  0  0
  2  5  1  0  0  0  0
  1  2  1  0  0  0  0
 17 18  2  0  0  0  0
 17 19  1  0  0  0  0
 14 15  1  0  0  0  0
 14 16  2  0  0  0  0
 11 12  1  0  0  0  0
 11 13  1  0  0  0  0
 11 14  1  0  0  0  0
  9 10  1  0  0  0  0
  9 11  1  0  0  0  0
  9 17  1  0  0  0  0
  7  8  1  0  0  0  0
  7  9  1  0  0  0  0
 21 22  1  0  0  0  0
 21 23  1  0  0  0  0
 21 24  1  0  0  0  0
 19 20  1  0  0  0  0
 19 21  1  0  0  0  0
M  CHG  1  15  -1
M  END
$$$$
default_name
  -OEChem-02102213163D

 24 23  0     1  0  0  0  0  0999 V2000
   -2.8347   -3.7166    0.8034 H   0  0  0  0  0  0  0  0  0  0  0  0
   -2.7728   -2.7096    0.3954 C   0  0  0  0  0  0  0  0  0  0  0  0
   -3.4267   -2.0426    0.9524 H   0  0  0  0  0  0  0  0  0  0  0  0
   -3.0538   -2.7186   -0.6556 H   0  0  0  0  0  0  0  0  0  0  0  0
   -1.3498   -2.2206    0.5184 C   0  0  0  0  0  0  0  0  0  0  0  0
   -0.4997   -2.9426    1.0194 O   0  0  0  0  0  0  0  0  0  0  0  0
   -1.1198   -0.9926    0.0674 N   0  0  0  0  0  0  0  0  0  0  0  0
   -1.8978   -0.4486   -0.2716 H   0  0  0  0  0  0  0  0  0  0  0  0
    0.1693   -0.2866    0.0854 C   0  0  1  0  0  0  0  0  0  0  0  0
    0.9043   -0.8713   -0.4705 H   0  0  0  0  0  0  0  0  0  0  0  0
    0.0106    1.0816   -0.6124 C   0  0  0  0  0  0  0  0  0  0  0  0
   -0.9274    1.0836   -1.1704 H   0  0  0  0  0  0  0  0  0  0  0  0
   -0.0543    1.8604    0.1506 H   0  0  0  0  0  0  0  0  0  0  0  0
    1.1377    1.4297   -1.5972 C   0  0  0  0  0  0  0  0  0  0  0  0
    1.9073    0.5149   -1.9745 O   0  5  0  0  0  0  0  0  0  0  0  0
    1.2320    2.6244   -1.9523 O   0  0  0  0  0  0  0  0  0  0  0  0
    0.6664   -0.1450    1.5428 C   0  0  0  0  0  0  0  0  0  0  0  0
    1.8485   -0.3724    1.8265 O   0  0  0  0  0  0  0  0  0  0  0  0
   -0.2161    0.2434    2.4686 N   0  0  0  0  0  0  0  0  0  0  0  0
   -1.1850    0.3219    2.1537 H   0  0  0  0  0  0  0  0  0  0  0  0
    0.0735    0.4128    3.8885 C   0  0  0  0  0  0  0  0  0  0  0  0
    1.0159    0.9483    4.0105 H   0  0  0  0  0  0  0  0  0  0  0  0
   -0.7315    0.9748    4.3613 H   0  0  0  0  0  0  0  0  0  0  0  0
    0.1564   -0.5677    4.3577 H   0  0  0  0  0  0  0  0  0  0  0  0
  5  6  2  0  0  0  0
  5  7  1  0  0  0  0
  2  3  1  0  0  0  0
  2  4  1  0  0  0  0
  2  5  1  0  0  0  0
  1  2  1  0  0  0  0
 17 18  2  0  0  0  0
 17 19  1  0  0  0  0
 14 15  1  0  0  0  0
 14 16  2  0  0  0  0
 11 12  1  0  0  0  0
 11 13  1  0  0  0  0
 11 14  1  0  0  0  0
  9 10  1  0  0  0  0
  9 11  1  0  0  0  0
  9 17  1  0  0  0  0
  7  8  1  0  0  0  0
  7  9  1  0  0  0  0
 21 22  1  0  0  0  0
 21 23  1  0  0  0  0
 21 24  1  0  0  0  0
 19 20  1  0  0  0  0
 19 21  1  0  0  0  0
M  CHG  1  15  -1
M  END
$$$$
default_name
  -OEChem-02102213163D

 24 23  0     1  0  0  0  0  0999 V2000
   -2.8347   -3.7166    0.8034 H   0  0  0  0  0  0  0  0  0  0  0  0
   -2.7728   -2.7096    0.3954 C   0  0  0  0  0  0  0  0  0  0  0  0
   -3.4267   -2.0426    0.9524 H   0  0  0  0  0  0  0  0  0  0  0  0
   -3.0538   -2.7186   -0.6556 H   0  0  0  0  0  0  0  0  0  0  0  0
   -1.3498   -2.2206    0.5184 C   0  0  0  0  0  0  0  0  0  0  0  0
   -0.4997   -2.9426    1.0194 O   0  0  0  0  0  0  0  0  0  0  0  0
   -1.1198   -0.9926    0.0674 N   0  0  0  0  0  0  0  0  0  0  0  0
   -1.8978   -0.4486   -0.2716 H   0  0  0  0  0  0  0  0  0  0  0  0
    0.1693   -0.2866    0.0854 C   0  0  1  0  0  0  0  0  0  0  0  0
    0.9043   -0.8713   -0.4705 H   0  0  0  0  0  0  0  0  0  0  0  0
    0.0106    1.0816   -0.6124 C   0  0  0  0  0  0  0  0  0  0  0  0
   -0.9274    1.0836   -1.1704 H   0  0  0  0  0  0  0  0  0  0  0  0
   -0.0543    1.8604    0.1506 H   0  0  0  0  0  0  0  0  0  0  0  0
    1.1377    1.4297   -1.5972 C   0  0  0  0  0  0  0  0  0  0  0  0
    1.7222    0.4947   -2.1935 O   0  5  0  0  0  0  0  0  0  0  0  0
    1.4202    2.6398   -1.7313 O   0  0  0  0  0  0  0  0  0  0  0  0
    0.6664   -0.1450    1.5428 C   0  0  0  0  0  0  0  0  0  0  0  0
    1.8485   -0.3724    1.8265 O   0  0  0  0  0  0  0  0  0  0  0  0
   -0.2161    0.2434    2.4686 N   0  0  0  0  0  0  0  0  0  0  0  0
   -1.1850    0.3219    2.1537 H   0  0  0  0  0  0  0  0  0  0  0  0
    0.0735    0.4128    3.8885 C   0  0  0  0  0  0  0  0  0  0  0  0
    1.0159    0.9483    4.0105 H   0  0  0  0  0  0  0  0  0  0  0  0
   -0.7315    0.9748    4.3613 H   0  0  0  0  0  0  0  0  0  0  0  0
    0.1564   -0.5677    4.3577 H   0  0  0  0  0  0  0  0  0  0  0  0
  5  6  2  0  0  0  0
  5  7  1  0  0  0  0
  2  3  1  0  0  0  0
  2  4  1  0  0  0  0
  2  5  1  0  0  0  0
  1  2  1  0  0  0  0
 17 18  2  0  0  0  0
 17 19  1  0  0  0  0
 14 15  1  0  0  0  0
 14 16  2  0  0  0  0
 11 12  1  0  0  0  0
 11 13  1  0  0  0  0
 11 14  1  0  0  0  0
  9 10  1  0  0  0  0
  9 11  1  0  0  0  0
  9 17  1  0  0  0  0
  7  8  1  0  0  0  0
  7  9  1  0  0  0  0
 21 22  1  0  0  0  0
 21 23  1  0  0  0  0
 21 24  1  0  0  0  0
 19 20  1  0  0  0  0
 19 21  1  0  0  0  0
M  CHG  1  15  -1
M  END
$$$$
default_name
  -OEChem-02102213163D

 24 23  0     1  0  0  0  0  0999 V2000
   -2.8347   -3.7166    0.8034 H   0  0  0  0  0  0  0  0  0  0  0  0
   -2.7728   -2.7096    0.3954 C   0  0  0  0  0  0  0  0  0  0  0  0
   -3.4267   -2.0426    0.9524 H   0  0  0  0  0  0  0  0  0  0  0  0
   -3.0538   -2.7186   -0.6556 H   0  0  0  0  0  0  0  0  0  0  0  0
   -1.3498   -2.2206    0.5184 C   0  0  0  0  0  0  0  0  0  0  0  0
   -0.4997   -2.9426    1.0194 O   0  0  0  0  0  0  0  0  0  0  0  0
   -1.1198   -0.9926    0.0674 N   0  0  0  0  0  0  0  0  0  0  0  0
   -1.8978   -0.4486   -0.2716 H   0  0  0  0  0  0  0  0  0  0  0  0
    0.1693   -0.2866    0.0854 C   0  0  1  0  0  0  0  0  0  0  0  0
    0.9043   -0.8713   -0.4705 H   0  0  0  0  0  0  0  0  0  0  0  0
    0.0106    1.0816   -0.6124 C   0  0  0  0  0  0  0  0  0  0  0  0
   -0.9274    1.0836   -1.1704 H   0  0  0  0  0  0  0  0  0  0  0  0
   -0.0543    1.8604    0.1506 H   0  0  0  0  0  0  0  0  0  0  0  0
    1.1377    1.4297   -1.5972 C   0  0  0  0  0  0  0  0  0  0  0  0
    1.5272    0.5474   -2.3981 O   0  5  0  0  0  0  0  0  0  0  0  0
    1.6176    2.5816   -1.5260 O   0  0  0  0  0  0  0  0  0  0  0  0
    0.6664   -0.1450    1.5428 C   0  0  0  0  0  0  0  0  0  0  0  0
    1.8485   -0.3724    1.8265 O   0  0  0  0  0  0  0  0  0  0  0  0
   -0.2161    0.2434    2.4686 N   0  0  0  0  0  0  0  0  0  0  0  0
   -1.1850    0.3219    2.1537 H   0  0  0  0  0  0  0  0  0  0  0  0
    0.0735    0.4128    3.8885 C   0  0  0  0  0  0  0  0  0  0  0  0
    1.0159    0.9483    4.0105 H   0  0  0  0  0  0  0  0  0  0  0  0
   -0.7315    0.9748    4.3613 H   0  0  0  0  0  0  0  0  0  0  0  0
    0.1564   -0.5677    4.3577 H   0  0  0  0  0  0  0  0  0  0  0  0
  5  6  2  0  0  0  0
  5  7  1  0  0  0  0
  2  3  1  0  0  0  0
  2  4  1  0  0  0  0
  2  5  1  0  0  0  0
  1  2  1  0  0  0  0
 17 18  2  0  0  0  0
 17 19  1  0  0  0  0
 14 15  1  0  0  0  0
 14 16  2  0  0  0  0
 11 12  1  0  0  0  0
 11 13  1  0  0  0  0
 11 14  1  0  0  0  0
  9 10  1  0  0  0  0
  9 11  1  0  0  0  0
  9 17  1  0  0  0  0
  7  8  1  0  0  0  0
  7  9  1  0  0  0  0
 21 22  1  0  0  0  0
 21 23  1  0  0  0  0
 21 24  1  0  0  0  0
 19 20  1  0  0  0  0
 19 21  1  0  0  0  0
M  CHG  1  15  -1
M  END
$$$$
default_name
  -OEChem-02102213163D

 24 23  0     1  0  0  0  0  0999 V2000
   -2.8347   -3.7166    0.8034 H   0  0  0  0  0  0  0  0  0  0  0  0
   -2.7728   -2.7096    0.3954 C   0  0  0  0  0  0  0  0  0  0  0  0
   -3.4267   -2.0426    0.9524 H   0  0  0  0  0  0  0  0  0  0  0  0
   -3.0538   -2.7186   -0.6556 H   0  0  0  0  0  0  0  0  0  0  0  0
   -1.3498   -2.2206    0.5184 C   0  0  0  0  0  0  0  0  0  0  0  0
   -0.4997   -2.9426    1.0194 O   0  0  0  0  0  0  0  0  0  0  0  0
   -1.1198   -0.9926    0.0674 N   0  0  0  0  0  0  0  0  0  0  0  0
   -1.8978   -0.4486   -0.2716 H   0  0  0  0  0  0  0  0  0  0  0  0
    0.1693   -0.2866    0.0854 C   0  0  1  0  0  0  0  0  0  0  0  0
    0.9043   -0.8713   -0.4705 H   0  0  0  0  0  0  0  0  0  0  0  0
    0.0106    1.0816   -0.6124 C   0  0  0  0  0  0  0  0  0  0  0  0
   -0.9274    1.0836   -1.1704 H   0  0  0  0  0  0  0  0  0  0  0  0
   -0.0543    1.8604    0.1506 H   0  0  0  0  0  0  0  0  0  0  0  0
    1.1377    1.4297   -1.5972 C   0  0  0  0  0  0  0  0  0  0  0  0
    1.3356    0.6696   -2.5742 O   0  5  0  0  0  0  0  0  0  0  0  0
    1.8107    2.4536   -1.3502 O   0  0  0  0  0  0  0  0  0  0  0  0
    0.6664   -0.1450    1.5428 C   0  0  0  0  0  0  0  0  0  0  0  0
    1.8485   -0.3724    1.8265 O   0  0  0  0  0  0  0  0  0  0  0  0
   -0.2161    0.2434    2.4686 N   0  0  0  0  0  0  0  0  0  0  0  0
   -1.1850    0.3219    2.1537 H   0  0  0  0  0  0  0  0  0  0  0  0
    0.0735    0.4128    3.8885 C   0  0  0  0  0  0  0  0  0  0  0  0
    1.0159    0.9483    4.0105 H   0  0  0  0  0  0  0  0  0  0  0  0
   -0.7315    0.9748    4.3613 H   0  0  0  0  0  0  0  0  0  0  0  0
    0.1564   -0.5677    4.3577 H   0  0  0  0  0  0  0  0  0  0  0  0
  5  6  2  0  0  0  0
  5  7  1  0  0  0  0
  2  3  1  0  0  0  0
  2  4  1  0  0  0  0
  2  5  1  0  0  0  0
  1  2  1  0  0  0  0
 17 18  2  0  0  0  0
 17 19  1  0  0  0  0
 14 15  1  0  0  0  0
 14 16  2  0  0  0  0
 11 12  1  0  0  0  0
 11 13  1  0  0  0  0
 11 14  1  0  0  0  0
  9 10  1  0  0  0  0
  9 11  1  0  0  0  0
  9 17  1  0  0  0  0
  7  8  1  0  0  0  0
  7  9  1  0  0  0  0
 21 22  1  0  0  0  0
 21 23  1  0  0  0  0
 21 24  1  0  0  0  0
 19 20  1  0  0  0  0
 19 21  1  0  0  0  0
M  CHG  1  15  -1
M  END
$$$$
default_name
  -OEChem-02102213163D

 24 23  0     1  0  0  0  0  0999 V2000
   -2.8347   -3.7166    0.8034 H   0  0  0  0  0  0  0  0  0  0  0  0
   -2.7728   -2.7096    0.3954 C   0  0  0  0  0  0  0  0  0  0  0  0
   -3.4267   -2.0426    0.9524 H   0  0  0  0  0  0  0  0  0  0  0  0
   -3.0538   -2.7186   -0.6556 H   0  0  0  0  0  0  0  0  0  0  0  0
   -1.3498   -2.2206    0.5184 C   0  0  0  0  0  0  0  0  0  0  0  0
   -0.4997   -2.9426    1.0194 O   0  0  0  0  0  0  0  0  0  0  0  0
   -1.1198   -0.9926    0.0674 N   0  0  0  0  0  0  0  0  0  0  0  0
   -1.8978   -0.4486   -0.2716 H   0  0  0  0  0  0  0  0  0  0  0  0
    0.1693   -0.2866    0.0854 C   0  0  1  0  0  0  0  0  0  0  0  0
    0.9043   -0.8713   -0.4705 H   0  0  0  0  0  0  0  0  0  0  0  0
    0.0106    1.0816   -0.6124 C   0  0  0  0  0  0  0  0  0  0  0  0
   -0.9274    1.0836   -1.1704 H   0  0  0  0  0  0  0  0  0  0  0  0
   -0.0543    1.8604    0.1506 H   0  0  0  0  0  0  0  0  0  0  0  0
    1.1377    1.4297   -1.5972 C   0  0  0  0  0  0  0  0  0  0  0  0
    1.1605    0.8527   -2.7099 O   0  5  0  0  0  0  0  0  0  0  0  0
    1.9862    2.2646   -1.2161 O   0  0  0  0  0  0  0  0  0  0  0  0
    0.6664   -0.1450    1.5428 C   0  0  0  0  0  0  0  0  0  0  0  0
    1.8485   -0.3724    1.8265 O   0  0  0  0  0  0  0  0  0  0  0  0
   -0.2161    0.2434    2.4686 N   0  0  0  0  0  0  0  0  0  0  0  0
   -1.1850    0.3219    2.1537 H   0  0  0  0  0  0  0  0  0  0  0  0
    0.0735    0.4128    3.8885 C   0  0  0  0  0  0  0  0  0  0  0  0
    1.0159    0.9483    4.0105 H   0  0  0  0  0  0  0  0  0  0  0  0
   -0.7315    0.9748    4.3613 H   0  0  0  0  0  0  0  0  0  0  0  0
    0.1564   -0.5677    4.3577 H   0  0  0  0  0  0  0  0  0  0  0  0
  5  6  2  0  0  0  0
  5  7  1  0  0  0  0
  2  3  1  0  0  0  0
  2  4  1  0  0  0  0
  2  5  1  0  0  0  0
  1  2  1  0  0  0  0
 17 18  2  0  0  0  0
 17 19  1  0  0  0  0
 14 15  1  0  0  0  0
 14 16  2  0  0  0  0
 11 12  1  0  0  0  0
 11 13  1  0  0  0  0
 11 14  1  0  0  0  0
  9 10  1  0  0  0  0
  9 11  1  0  0  0  0
  9 17  1  0  0  0  0
  7  8  1  0  0  0  0
  7  9  1  0  0  0  0
 21 22  1  0  0  0  0
 21 23  1  0  0  0  0
 21 24  1  0  0  0  0
 19 20  1  0  0  0  0
 19 21  1  0  0  0  0
M  CHG  1  15  -1
M  END
$$$$
default_name
  -OEChem-02102213163D

 24 23  0     1  0  0  0  0  0999 V2000
   -2.8347   -3.7166    0.8034 H   0  0  0  0  0  0  0  0  0  0  0  0
   -2.7728   -2.7096    0.3954 C   0  0  0  0  0  0  0  0  0  0  0  0
   -3.4267   -2.0426    0.9524 H   0  0  0  0  0  0  0  0  0  0  0  0
   -3.0538   -2.7186   -0.6556 H   0  0  0  0  0  0  0  0  0  0  0  0
   -1.3498   -2.2206    0.5184 C   0  0  0  0  0  0  0  0  0  0  0  0
   -0.4997   -2.9426    1.0194 O   0  0  0  0  0  0  0  0  0  0  0  0
   -1.1198   -0.9926    0.0674 N   0  0  0  0  0  0  0  0  0  0  0  0
   -1.8978   -0.4486   -0.2716 H   0  0  0  0  0  0  0  0  0  0  0  0
    0.1693   -0.2866    0.0854 C   0  0  1  0  0  0  0  0  0  0  0  0
    0.9043   -0.8713   -0.4705 H   0  0  0  0  0  0  0  0  0  0  0  0
    0.0106    1.0816   -0.6124 C   0  0  0  0  0  0  0  0  0  0  0  0
   -0.9274    1.0836   -1.1704 H   0  0  0  0  0  0  0  0  0  0  0  0
   -0.0543    1.8604    0.1506 H   0  0  0  0  0  0  0  0  0  0  0  0
    1.1377    1.4297   -1.5972 C   0  0  0  0  0  0  0  0  0  0  0  0
    1.0138    1.0845   -2.7960 O   0  5  0  0  0  0  0  0  0  0  0  0
    2.1323    2.0275   -1.1327 O   0  0  0  0  0  0  0  0  0  0  0  0
    0.6664   -0.1450    1.5428 C   0  0  0  0  0  0  0  0  0  0  0  0
    1.8485   -0.3724    1.8265 O   0  0  0  0  0  0  0  0  0  0  0  0
   -0.2161    0.2434    2.4686 N   0  0  0  0  0  0  0  0  0  0  0  0
   -1.1850    0.3219    2.1537 H   0  0  0  0  0  0  0  0  0  0  0  0
    0.0735    0.4128    3.8885 C   0  0  0  0  0  0  0  0  0  0  0  0
    1.0159    0.9483    4.0105 H   0  0  0  0  0  0  0  0  0  0  0  0
   -0.7315    0.9748    4.3613 H   0  0  0  0  0  0  0  0  0  0  0  0
    0.1564   -0.5677    4.3577 H   0  0  0  0  0  0  0  0  0  0  0  0
  5  6  2  0  0  0  0
  5  7  1  0  0  0  0
  2  3  1  0  0  0  0
  2  4  1  0  0  0  0
  2  5  1  0  0  0  0
  1  2  1  0  0  0  0
 17 18  2  0  0  0  0
 17 19  1  0  0  0  0
 14 15  1  0  0  0  0
 14 16  2  0  0  0  0
 11 12  1  0  0  0  0
 11 13  1  0  0  0  0
 11 14  1  0  0  0  0
  9 10  1  0  0  0  0
  9 11  1  0  0  0  0
  9 17  1  0  0  0  0
  7  8  1  0  0  0  0
  7  9  1  0  0  0  0
 21 22  1  0  0  0  0
 21 23  1  0  0  0  0
 21 24  1  0  0  0  0
 19 20  1  0  0  0  0
 19 21  1  0  0  0  0
M  CHG  1  15  -1
M  END
$$$$
default_name
  -OEChem-02102213163D

 24 23  0     1  0  0  0  0  0999 V2000
   -2.8347   -3.7166    0.8034 H   0  0  0  0  0  0  0  0  0  0  0  0
   -2.7728   -2.7096    0.3954 C   0  0  0  0  0  0  0  0  0  0  0  0
   -3.4267   -2.0426    0.9524 H   0  0  0  0  0  0  0  0  0  0  0  0
   -3.0538   -2.7186   -0.6556 H   0  0  0  0  0  0  0  0  0  0  0  0
   -1.3498   -2.2206    0.5184 C   0  0  0  0  0  0  0  0  0  0  0  0
   -0.4997   -2.9426    1.0194 O   0  0  0  0  0  0  0  0  0  0  0  0
   -1.1198   -0.9926    0.0674 N   0  0  0  0  0  0  0  0  0  0  0  0
   -1.8978   -0.4486   -0.2716 H   0  0  0  0  0  0  0  0  0  0  0  0
    0.1693   -0.2866    0.0854 C   0  0  1  0  0  0  0  0  0  0  0  0
    0.9043   -0.8713   -0.4705 H   0  0  0  0  0  0  0  0  0  0  0  0
    0.0106    1.0816   -0.6124 C   0  0  0  0  0  0  0  0  0  0  0  0
   -0.9274    1.0836   -1.1704 H   0  0  0  0  0  0  0  0  0  0  0  0
   -0.0543    1.8604    0.1506 H   0  0  0  0  0  0  0  0  0  0  0  0
    1.1377    1.4297   -1.5972 C   0  0  0  0  0  0  0  0  0  0  0  0
    0.9054    1.3490   -2.8265 O   0  5  0  0  0  0  0  0  0  0  0  0
    2.2390    1.7584   -1.1058 O   0  0  0  0  0  0  0  0  0  0  0  0
    0.6664   -0.1450    1.5428 C   0  0  0  0  0  0  0  0  0  0  0  0
    1.8485   -0.3724    1.8265 O   0  0  0  0  0  0  0  0  0  0  0  0
   -0.2161    0.2434    2.4686 N   0  0  0  0  0  0  0  0  0  0  0  0
   -1.1850    0.3219    2.1537 H   0  0  0  0  0  0  0  0  0  0  0  0
    0.0735    0.4128    3.8885 C   0  0  0  0  0  0  0  0  0  0  0  0
    1.0159    0.9483    4.0105 H   0  0  0  0  0  0  0  0  0  0  0  0
   -0.7315    0.9748    4.3613 H   0  0  0  0  0  0  0  0  0  0  0  0
    0.1564   -0.5677    4.3577 H   0  0  0  0  0  0  0  0  0  0  0  0
  5  6  2  0  0  0  0
  5  7  1  0  0  0  0
  2  3  1  0  0  0  0
  2  4  1  0  0  0  0
  2  5  1  0  0  0  0
  1  2  1  0  0  0  0
 17 18  2  0  0  0  0
 17 19  1  0  0  0  0
 14 15  1  0  0  0  0
 14 16  2  0  0  0  0
 11 12  1  0  0  0  0
 11 13  1  0  0  0  0
 11 14  1  0  0  0  0
  9 10  1  0  0  0  0
  9 11  1  0  0  0  0
  9 17  1  0  0  0  0
  7  8  1  0  0  0  0
  7  9  1  0  0  0  0
 21 22  1  0  0  0  0
 21 23  1  0  0  0  0
 21 24  1  0  0  0  0
 19 20  1  0  0  0  0
 19 21  1  0  0  0  0
M  CHG  1  15  -1
M  END
$$$$
default_name
  -OEChem-02102213163D

 24 23  0     1  0  0  0  0  0999 V2000
   -2.8347   -3.7166    0.8034 H   0  0  0  0  0  0  0  0  0  0  0  0
   -2.7728   -2.7096    0.3954 C   0  0  0  0  0  0  0  0  0  0  0  0
   -3.4267   -2.0426    0.9524 H   0  0  0  0  0  0  0  0  0  0  0  0
   -3.0538   -2.7186   -0.6556 H   0  0  0  0  0  0  0  0  0  0  0  0
   -1.3498   -2.2206    0.5184 C   0  0  0  0  0  0  0  0  0  0  0  0
   -0.4997   -2.9426    1.0194 O   0  0  0  0  0  0  0  0  0  0  0  0
   -1.1198   -0.9926    0.0674 N   0  0  0  0  0  0  0  0  0  0  0  0
   -1.8978   -0.4486   -0.2716 H   0  0  0  0  0  0  0  0  0  0  0  0
    0.1693   -0.2866    0.0854 C   0  0  1  0  0  0  0  0  0  0  0  0
    0.9043   -0.8713   -0.4705 H   0  0  0  0  0  0  0  0  0  0  0  0
    0.0106    1.0816   -0.6124 C   0  0  0  0  0  0  0  0  0  0  0  0
   -0.9274    1.0836   -1.1704 H   0  0  0  0  0  0  0  0  0  0  0  0
   -0.0543    1.8604    0.1506 H   0  0  0  0  0  0  0  0  0  0  0  0
    1.1377    1.4297   -1.5972 C   0  0  0  0  0  0  0  0  0  0  0  0
    0.8428    1.6283   -2.7994 O   0  5  0  0  0  0  0  0  0  0  0  0
    2.2989    1.4756   -1.1371 O   0  0  0  0  0  0  0  0  0  0  0  0
    0.6664   -0.1450    1.5428 C   0  0  0  0  0  0  0  0  0  0  0  0
    1.8485   -0.3724    1.8265 O   0  0  0  0  0  0  0  0  0  0  0  0
   -0.2161    0.2434    2.4686 N   0  0  0  0  0  0  0  0  0  0  0  0
   -1.1850    0.3219    2.1537 H   0  0  0  0  0  0  0  0  0  0  0  0
    0.0735    0.4128    3.8885 C   0  0  0  0  0  0  0  0  0  0  0  0
    1.0159    0.9483    4.0105 H   0  0  0  0  0  0  0  0  0  0  0  0
   -0.7315    0.9748    4.3613 H   0  0  0  0  0  0  0  0  0  0  0  0
    0.1564   -0.5677    4.3577 H   0  0  0  0  0  0  0  0  0  0  0  0
  5  6  2  0  0  0  0
  5  7  1  0  0  0  0
  2  3  1  0  0  0  0
  2  4  1  0  0  0  0
  2  5  1  0  0  0  0
  1  2  1  0  0  0  0
 17 18  2  0  0  0  0
 17 19  1  0  0  0  0
 14 15  1  0  0  0  0
 14 16  2  0  0  0  0
 11 12  1  0  0  0  0
 11 13  1  0  0  0  0
 11 14  1  0  0  0  0
  9 10  1  0  0  0  0
  9 11  1  0  0  0  0
  9 17  1  0  0  0  0
  7  8  1  0  0  0  0
  7  9  1  0  0  0  0
 21 22  1  0  0  0  0
 21 23  1  0  0  0  0
 21 24  1  0  0  0  0
 19 20  1  0  0  0  0
 19 21  1  0  0  0  0
M  CHG  1  15  -1
M  END
$$$$
default_name
  -OEChem-02102213163D

 24 23  0     1  0  0  0  0  0999 V2000
   -2.8347   -3.7166    0.8034 H   0  0  0  0  0  0  0  0  0  0  0  0
   -2.7728   -2.7096    0.3954 C   0  0  0  0  0  0  0  0  0  0  0  0
   -3.4267   -2.0426    0.9524 H   0  0  0  0  0  0  0  0  0  0  0  0
   -3.0538   -2.7186   -0.6556 H   0  0  0  0  0  0  0  0  0  0  0  0
   -1.3498   -2.2206    0.5184 C   0  0  0  0  0  0  0  0  0  0  0  0
   -0.4997   -2.9426    1.0194 O   0  0  0  0  0  0  0  0  0  0  0  0
   -1.1198   -0.9926    0.0674 N   0  0  0  0  0  0  0  0  0  0  0  0
   -1.8978   -0.4486   -0.2716 H   0  0  0  0  0  0  0  0  0  0  0  0
    0.1693   -0.2866    0.0854 C   0  0  1  0  0  0  0  0  0  0  0  0
    0.9043   -0.8713   -0.4705 H   0  0  0  0  0  0  0  0  0  0  0  0
    0.0106    1.0816   -0.6124 C   0  0  0  0  0  0  0  0  0  0  0  0
   -0.9274    1.0836   -1.1704 H   0  0  0  0  0  0  0  0  0  0  0  0
   -0.0543    1.8604    0.1506 H   0  0  0  0  0  0  0  0  0  0  0  0
    1.1377    1.4297   -1.5972 C   0  0  0  0  0  0  0  0  0  0  0  0
    0.8303    1.9033   -2.7165 O   0  5  0  0  0  0  0  0  0  0  0  0
    2.3081    1.1985   -1.2245 O   0  0  0  0  0  0  0  0  0  0  0  0
    0.6664   -0.1450    1.5428 C   0  0  0  0  0  0  0  0  0  0  0  0
    1.8485   -0.3724    1.8265 O   0  0  0  0  0  0  0  0  0  0  0  0
   -0.2161    0.2434    2.4686 N   0  0  0  0  0  0  0  0  0  0  0  0
   -1.1850    0.3219    2.1537 H   0  0  0  0  0  0  0  0  0  0  0  0
    0.0735    0.4128    3.8885 C   0  0  0  0  0  0  0  0  0  0  0  0
    1.0159    0.9483    4.0105 H   0  0  0  0  0  0  0  0  0  0  0  0
   -0.7315    0.9748    4.3613 H   0  0  0  0  0  0  0  0  0  0  0  0
    0.1564   -0.5677    4.3577 H   0  0  0  0  0  0  0  0  0  0  0  0
  5  6  2  0  0  0  0
  5  7  1  0  0  0  0
  2  3  1  0  0  0  0
  2  4  1  0  0  0  0
  2  5  1  0  0  0  0
  1  2  1  0  0  0  0
 17 18  2  0  0  0  0
 17 19  1  0  0  0  0
 14 15  1  0  0  0  0
 14 16  2  0  0  0  0
 11 12  1  0  0  0  0
 11 13  1  0  0  0  0
 11 14  1  0  0  0  0
  9 10  1  0  0  0  0
  9 11  1  0  0  0  0
  9 17  1  0  0  0  0
  7  8  1  0  0  0  0
  7  9  1  0  0  0  0
 21 22  1  0  0  0  0
 21 23  1  0  0  0  0
 21 24  1  0  0  0  0
 19 20  1  0  0  0  0
 19 21  1  0  0  0  0
M  CHG  1  15  -1
M  END
$$$$
default_name
  -OEChem-02102213163D

 24 23  0     1  0  0  0  0  0999 V2000
   -2.8347   -3.7166    0.8034 H   0  0  0  0  0  0  0  0  0  0  0  0
   -2.7728   -2.7096    0.3954 C   0  0  0  0  0  0  0  0  0  0  0  0
   -3.4267   -2.0426    0.9524 H   0  0  0  0  0  0  0  0  0  0  0  0
   -3.0538   -2.7186   -0.6556 H   0  0  0  0  0  0  0  0  0  0  0  0
   -1.3498   -2.2206    0.5184 C   0  0  0  0  0  0  0  0  0  0  0  0
   -0.4997   -2.9426    1.0194 O   0  0  0  0  0  0  0  0  0  0  0  0
   -1.1198   -0.9926    0.0674 N   0  0  0  0  0  0  0  0  0  0  0  0
   -1.8978   -0.4486   -0.2716 H   0  0  0  0  0  0  0  0  0  0  0  0
    0.1693   -0.2866    0.0854 C   0  0  1  0  0  0  0  0  0  0  0  0
    0.9043   -0.8713   -0.4705 H   0  0  0  0  0  0  0  0  0  0  0  0
    0.0106    1.0816   -0.6124 C   0  0  0  0  0  0  0  0  0  0  0  0
   -0.9274    1.0836   -1.1704 H   0  0  0  0  0  0  0  0  0  0  0  0
   -0.0543    1.8604    0.1506 H   0  0  0  0  0  0  0  0  0  0  0  0
    1.1377    1.4297   -1.5972 C   0  0  0  0  0  0  0  0  0  0  0  0
    0.8687    2.1553   -2.5835 O   0  5  0  0  0  0  0  0  0  0  0  0
    2.2659    0.9459   -1.3621 O   0  0  0  0  0  0  0  0  0  0  0  0
    0.6664   -0.1450    1.5428 C   0  0  0  0  0  0  0  0  0  0  0  0
    1.8485   -0.3724    1.8265 O   0  0  0  0  0  0  0  0  0  0  0  0
   -0.2161    0.2434    2.4686 N   0  0  0  0  0  0  0  0  0  0  0  0
   -1.1850    0.3219    2.1537 H   0  0  0  0  0  0  0  0  0  0  0  0
    0.0735    0.4128    3.8885 C   0  0  0  0  0  0  0  0  0  0  0  0
    1.0159    0.9483    4.0105 H   0  0  0  0  0  0  0  0  0  0  0  0
   -0.7315    0.9748    4.3613 H   0  0  0  0  0  0  0  0  0  0  0  0
    0.1564   -0.5677    4.3577 H   0  0  0  0  0  0  0  0  0  0  0  0
  5  6  2  0  0  0  0
  5  7  1  0  0  0  0
  2  3  1  0  0  0  0
  2  4  1  0  0  0  0
  2  5  1  0  0  0  0
  1  2  1  0  0  0  0
 17 18  2  0  0  0  0
 17 19  1  0  0  0  0
 14 15  1  0  0  0  0
 14 16  2  0  0  0  0
 11 12  1  0  0  0  0
 11 13  1  0  0  0  0
 11 14  1  0  0  0  0
  9 10  1  0  0  0  0
  9 11  1  0  0  0  0
  9 17  1  0  0  0  0
  7  8  1  0  0  0  0
  7  9  1  0  0  0  0
 21 22  1  0  0  0  0
 21 23  1  0  0  0  0
 21 24  1  0  0  0  0
 19 20  1  0  0  0  0
 19 21  1  0  0  0  0
M  CHG  1  15  -1
M  END
$$$$
default_name
  -OEChem-02102213163D

 24 23  0     1  0  0  0  0  0999 V2000
   -2.8347   -3.7166    0.8034 H   0  0  0  0  0  0  0  0  0  0  0  0
   -2.7728   -2.7096    0.3954 C   0  0  0  0  0  0  0  0  0  0  0  0
   -3.4267   -2.0426    0.9524 H   0  0  0  0  0  0  0  0  0  0  0  0
   -3.0538   -2.7186   -0.6556 H   0  0  0  0  0  0  0  0  0  0  0  0
   -1.3498   -2.2206    0.5184 C   0  0  0  0  0  0  0  0  0  0  0  0
   -0.4997   -2.9426    1.0194 O   0  0  0  0  0  0  0  0  0  0  0  0
   -1.1198   -0.9926    0.0674 N   0  0  0  0  0  0  0  0  0  0  0  0
   -1.8978   -0.4486   -0.2716 H   0  0  0  0  0  0  0  0  0  0  0  0
    0.1693   -0.2866    0.0854 C   0  0  1  0  0  0  0  0  0  0  0  0
    0.9043   -0.8713   -0.4705 H   0  0  0  0  0  0  0  0  0  0  0  0
    0.0106    1.0816   -0.6124 C   0  0  0  0  0  0  0  0  0  0  0  0
   -0.9274    1.0836   -1.1704 H   0  0  0  0  0  0  0  0  0  0  0  0
   -0.0543    1.8604    0.1506 H   0  0  0  0  0  0  0  0  0  0  0  0
    1.1377    1.4297   -1.5972 C   0  0  0  0  0  0  0  0  0  0  0  0
    0.9553    2.3671   -2.4095 O   0  5  0  0  0  0  0  0  0  0  0  0
    2.1752    0.7350   -1.5405 O   0  0  0  0  0  0  0  0  0  0  0  0
    0.6664   -0.1450    1.5428 C   0  0  0  0  0  0  0  0  0  0  0  0
    1.8485   -0.3724    1.8265 O   0  0  0  0  0  0  0  0  0  0  0  0
   -0.2161    0.2434    2.4686 N   0  0  0  0  0  0  0  0  0  0  0  0
   -1.1850    0.3219    2.1537 H   0  0  0  0  0  0  0  0  0  0  0  0
    0.0735    0.4128    3.8885 C   0  0  0  0  0  0  0  0  0  0  0  0
    1.0159    0.9483    4.0105 H   0  0  0  0  0  0  0  0  0  0  0  0
   -0.7315    0.9748    4.3613 H   0  0  0  0  0  0  0  0  0  0  0  0
    0.1564   -0.5677    4.3577 H   0  0  0  0  0  0  0  0  0  0  0  0
  5  6  2  0  0  0  0
  5  7  1  0  0  0  0
  2  3  1  0  0  0  0
  2  4  1  0  0  0  0
  2  5  1  0  0  0  0
  1  2  1  0  0  0  0
 17 18  2  0  0  0  0
 17 19  1  0  0  0  0
 14 15  1  0  0  0  0
 14 16  2  0  0  0  0
 11 12  1  0  0  0  0
 11 13  1  0  0  0  0
 11 14  1  0  0  0  0
  9 10  1  0  0  0  0
  9 11  1  0  0  0  0
  9 17  1  0  0  0  0
  7  8  1  0  0  0  0
  7  9  1  0  0  0  0
 21 22  1  0  0  0  0
 21 23  1  0  0  0  0
 21 24  1  0  0  0  0
 19 20  1  0  0  0  0
 19 21  1  0  0  0  0
M  CHG  1  15  -1
M  END
$$$$
default_name
  -OEChem-02102213163D

 24 23  0     1  0  0  0  0  0999 V2000
   -2.8347   -3.7166    0.8034 H   0  0  0  0  0  0  0  0  0  0  0  0
   -2.7728   -2.7096    0.3954 C   0  0  0  0  0  0  0  0  0  0  0  0
   -3.4267   -2.0426    0.9524 H   0  0  0  0  0  0  0  0  0  0  0  0
   -3.0538   -2.7186   -0.6556 H   0  0  0  0  0  0  0  0  0  0  0  0
   -1.3498   -2.2206    0.5184 C   0  0  0  0  0  0  0  0  0  0  0  0
   -0.4997   -2.9426    1.0194 O   0  0  0  0  0  0  0  0  0  0  0  0
   -1.1198   -0.9926    0.0674 N   0  0  0  0  0  0  0  0  0  0  0  0
   -1.8978   -0.4486   -0.2716 H   0  0  0  0  0  0  0  0  0  0  0  0
    0.1693   -0.2866    0.0854 C   0  0  1  0  0  0  0  0  0  0  0  0
    0.9043   -0.8713   -0.4705 H   0  0  0  0  0  0  0  0  0  0  0  0
    0.0106    1.0816   -0.6124 C   0  0  0  0  0  0  0  0  0  0  0  0
   -1.0244    1.1889   -0.9417 H   0  0  0  0  0  0  0  0  0  0  0  0
    0.2127    1.8724    0.1134 H   0  0  0  0  0  0  0  0  0  0  0  0
    0.9120    1.2791   -1.8412 C   0  0  0  0  0  0  0  0  0  0  0  0
    0.8444    2.3641   -2.4656 O   0  5  0  0  0  0  0  0  0  0  0  0
    1.6544    0.3253   -2.1593 O   0  0  0  0  0  0  0  0  0  0  0  0
    0.6664   -0.1450    1.5428 C   0  0  0  0  0  0  0  0  0  0  0  0
    1.8485   -0.3724    1.8265 O   0  0  0  0  0  0  0  0  0  0  0  0
   -0.2161    0.2434    2.4686 N   0  0  0  0  0  0  0  0  0  0  0  0
   -1.1850    0.3219    2.1537 H   0  0  0  0  0  0  0  0  0  0  0  0
    0.0735    0.4128    3.8885 C   0  0  0  0  0  0  0  0  0  0  0  0
    1.0159    0.9483    4.0105 H   0  0  0  0  0  0  0  0  0  0  0  0
   -0.7315    0.9748    4.3613 H   0  0  0  0  0  0  0  0  0  0  0  0
    0.1564   -0.5677    4.3577 H   0  0  0  0  0  0  0  0  0  0  0  0
  5  6  2  0  0  0  0
  5  7  1  0  0  0  0
  2  3  1  0  0  0  0
  2  4  1  0  0  0  0
  2  5  1  0  0  0  0
  1  2  1  0  0  0  0
 17 18  2  0  0  0  0
 17 19  1  0  0  0  0
 14 15  1  0  0  0  0
 14 16  2  0  0  0  0
 11 12  1  0  0  0  0
 11 13  1  0  0  0  0
 11 14  1  0  0  0  0
  9 10  1  0  0  0  0
  9 11  1  0  0  0  0
  9 17  1  0  0  0  0
  7  8  1  0  0  0  0
  7  9  1  0  0  0  0
 21 22  1  0  0  0  0
 21 23  1  0  0  0  0
 21 24  1  0  0  0  0
 19 20  1  0  0  0  0
 19 21  1  0  0  0  0
M  CHG  1  15  -1
M  END
$$$$
default_name
  -OEChem-02102213163D

 24 23  0     1  0  0  0  0  0999 V2000
   -2.8347   -3.7166    0.8034 H   0  0  0  0  0  0  0  0  0  0  0  0
   -2.7728   -2.7096    0.3954 C   0  0  0  0  0  0  0  0  0  0  0  0
   -3.4267   -2.0426    0.9524 H   0  0  0  0  0  0  0  0  0  0  0  0
   -3.0538   -2.7186   -0.6556 H   0  0  0  0  0  0  0  0  0  0  0  0
   -1.3498   -2.2206    0.5184 C   0  0  0  0  0  0  0  0  0  0  0  0
   -0.4997   -2.9426    1.0194 O   0  0  0  0  0  0  0  0  0  0  0  0
   -1.1198   -0.9926    0.0674 N   0  0  0  0  0  0  0  0  0  0  0  0
   -1.8978   -0.4486   -0.2716 H   0  0  0  0  0  0  0  0  0  0  0  0
    0.1693   -0.2866    0.0854 C   0  0  1  0  0  0  0  0  0  0  0  0
    0.9043   -0.8713   -0.4705 H   0  0  0  0  0  0  0  0  0  0  0  0
    0.0106    1.0816   -0.6124 C   0  0  0  0  0  0  0  0  0  0  0  0
   -1.0244    1.1889   -0.9417 H   0  0  0  0  0  0  0  0  0  0  0  0
    0.2127    1.8724    0.1134 H   0  0  0  0  0  0  0  0  0  0  0  0
    0.9120    1.2791   -1.8412 C   0  0  0  0  0  0  0  0  0  0  0  0
    1.0624    2.4385   -2.2937 O   0  5  0  0  0  0  0  0  0  0  0  0
    1.4325    0.2549   -2.3334 O   0  0  0  0  0  0  0  0  0  0  0  0
    0.6664   -0.1450    1.5428 C   0  0  0  0  0  0  0  0  0  0  0  0
    1.8485   -0.3724    1.8265 O   0  0  0  0  0  0  0  0  0  0  0  0
   -0.2161    0.2434    2.4686 N   0  0  0  0  0  0  0  0  0  0  0  0
   -1.1850    0.3219    2.1537 H   0  0  0  0  0  0  0  0  0  0  0  0
    0.0735    0.4128    3.8885 C   0  0  0  0  0  0  0  0  0  0  0  0
    1.0159    0.9483    4.0105 H   0  0  0  0  0  0  0  0  0  0  0  0
   -0.7315    0.9748    4.3613 H   0  0  0  0  0  0  0  0  0  0  0  0
    0.1564   -0.5677    4.3577 H   0  0  0  0  0  0  0  0  0  0  0  0
  5  6  2  0  0  0  0
  5  7  1  0  0  0  0
  2  3  1  0  0  0  0
  2  4  1  0  0  0  0
  2  5  1  0  0  0  0
  1  2  1  0  0  0  0
 17 18  2  0  0  0  0
 17 19  1  0  0  0  0
 14 15  1  0  0  0  0
 14 16  2  0  0  0  0
 11 12  1  0  0  0  0
 11 13  1  0  0  0  0
 11 14  1  0  0  0  0
  9 10  1  0  0  0  0
  9 11  1  0  0  0  0
  9 17  1  0  0  0  0
  7  8  1  0  0  0  0
  7  9  1  0  0  0  0
 21 22  1  0  0  0  0
 21 23  1  0  0  0  0
 21 24  1  0  0  0  0
 19 20  1  0  0  0  0
 19 21  1  0  0  0  0
M  CHG  1  15  -1
M  END
$$$$
default_name
  -OEChem-02102213163D

 24 23  0     1  0  0  0  0  0999 V2000
   -2.8347   -3.7166    0.8034 H   0  0  0  0  0  0  0  0  0  0  0  0
   -2.7728   -2.7096    0.3954 C   0  0  0  0  0  0  0  0  0  0  0  0
   -3.4267   -2.0426    0.9524 H   0  0  0  0  0  0  0  0  0  0  0  0
   -3.0538   -2.7186   -0.6556 H   0  0  0  0  0  0  0  0  0  0  0  0
   -1.3498   -2.2206    0.5184 C   0  0  0  0  0  0  0  0  0  0  0  0
   -0.4997   -2.9426    1.0194 O   0  0  0  0  0  0  0  0  0  0  0  0
   -1.1198   -0.9926    0.0674 N   0  0  0  0  0  0  0  0  0  0  0  0
   -1.8978   -0.4486   -0.2716 H   0  0  0  0  0  0  0  0  0  0  0  0
    0.1693   -0.2866    0.0854 C   0  0  1  0  0  0  0  0  0  0  0  0
    0.9043   -0.8713   -0.4705 H   0  0  0  0  0  0  0  0  0  0  0  0
    0.0106    1.0816   -0.6124 C   0  0  0  0  0  0  0  0  0  0  0  0
   -1.0244    1.1889   -0.9417 H   0  0  0  0  0  0  0  0  0  0  0  0
    0.2127    1.8724    0.1134 H   0  0  0  0  0  0  0  0  0  0  0  0
    0.9120    1.2791   -1.8412 C   0  0  0  0  0  0  0  0  0  0  0  0
    1.2942    2.4392   -2.1236 O   0  5  0  0  0  0  0  0  0  0  0  0
    1.1977    0.2593   -2.5049 O   0  0  0  0  0  0  0  0  0  0  0  0
    0.6664   -0.1450    1.5428 C   0  0  0  0  0  0  0  0  0  0  0  0
    1.8485   -0.3724    1.8265 O   0  0  0  0  0  0  0  0  0  0  0  0
   -0.2161    0.2434    2.4686 N   0  0  0  0  0  0  0  0  0  0  0  0
   -1.1850    0.3219    2.1537 H   0  0  0  0  0  0  0  0  0  0  0  0
    0.0735    0.4128    3.8885 C   0  0  0  0  0  0  0  0  0  0  0  0
    1.0159    0.9483    4.0105 H   0  0  0  0  0  0  0  0  0  0  0  0
   -0.7315    0.9748    4.3613 H   0  0  0  0  0  0  0  0  0  0  0  0
    0.1564   -0.5677    4.3577 H   0  0  0  0  0  0  0  0  0  0  0  0
  5  6  2  0  0  0  0
  5  7  1  0  0  0  0
  2  3  1  0  0  0  0
  2  4  1  0  0  0  0
  2  5  1  0  0  0  0
  1  2  1  0  0  0  0
 17 18  2  0  0  0  0
 17 19  1  0  0  0  0
 14 15  1  0  0  0  0
 14 16  2  0  0  0  0
 11 12  1  0  0  0  0
 11 13  1  0  0  0  0
 11 14  1  0  0  0  0
  9 10  1  0  0  0  0
  9 11  1  0  0  0  0
  9 17  1  0  0  0  0
  7  8  1  0  0  0  0
  7  9  1  0  0  0  0
 21 22  1  0  0  0  0
 21 23  1  0  0  0  0
 21 24  1  0  0  0  0
 19 20  1  0  0  0  0
 19 21  1  0  0  0  0
M  CHG  1  15  -1
M  END
$$$$
default_name
  -OEChem-02102213163D

 24 23  0     1  0  0  0  0  0999 V2000
   -2.8347   -3.7166    0.8034 H   0  0  0  0  0  0  0  0  0  0  0  0
   -2.7728   -2.7096    0.3954 C   0  0  0  0  0  0  0  0  0  0  0  0
   -3.4267   -2.0426    0.9524 H   0  0  0  0  0  0  0  0  0  0  0  0
   -3.0538   -2.7186   -0.6556 H   0  0  0  0  0  0  0  0  0  0  0  0
   -1.3498   -2.2206    0.5184 C   0  0  0  0  0  0  0  0  0  0  0  0
   -0.4997   -2.9426    1.0194 O   0  0  0  0  0  0  0  0  0  0  0  0
   -1.1198   -0.9926    0.0674 N   0  0  0  0  0  0  0  0  0  0  0  0
   -1.8978   -0.4486   -0.2716 H   0  0  0  0  0  0  0  0  0  0  0  0
    0.1693   -0.2866    0.0854 C   0  0  1  0  0  0  0  0  0  0  0  0
    0.9043   -0.8713   -0.4705 H   0  0  0  0  0  0  0  0  0  0  0  0
    0.0106    1.0816   -0.6124 C   0  0  0  0  0  0  0  0  0  0  0  0
   -1.0244    1.1889   -0.9417 H   0  0  0  0  0  0  0  0  0  0  0  0
    0.2127    1.8724    0.1134 H   0  0  0  0  0  0  0  0  0  0  0  0
    0.9120    1.2791   -1.8412 C   0  0  0  0  0  0  0  0  0  0  0  0
    1.5238    2.3661   -1.9669 O   0  5  0  0  0  0  0  0  0  0  0  0
    0.9662    0.3382   -2.6621 O   0  0  0  0  0  0  0  0  0  0  0  0
    0.6664   -0.1450    1.5428 C   0  0  0  0  0  0  0  0  0  0  0  0
    1.8485   -0.3724    1.8265 O   0  0  0  0  0  0  0  0  0  0  0  0
   -0.2161    0.2434    2.4686 N   0  0  0  0  0  0  0  0  0  0  0  0
   -1.1850    0.3219    2.1537 H   0  0  0  0  0  0  0  0  0  0  0  0
    0.0735    0.4128    3.8885 C   0  0  0  0  0  0  0  0  0  0  0  0
    1.0159    0.9483    4.0105 H   0  0  0  0  0  0  0  0  0  0  0  0
   -0.7315    0.9748    4.3613 H   0  0  0  0  0  0  0  0  0  0  0  0
    0.1564   -0.5677    4.3577 H   0  0  0  0  0  0  0  0  0  0  0  0
  5  6  2  0  0  0  0
  5  7  1  0  0  0  0
  2  3  1  0  0  0  0
  2  4  1  0  0  0  0
  2  5  1  0  0  0  0
  1  2  1  0  0  0  0
 17 18  2  0  0  0  0
 17 19  1  0  0  0  0
 14 15  1  0  0  0  0
 14 16  2  0  0  0  0
 11 12  1  0  0  0  0
 11 13  1  0  0  0  0
 11 14  1  0  0  0  0
  9 10  1  0  0  0  0
  9 11  1  0  0  0  0
  9 17  1  0  0  0  0
  7  8  1  0  0  0  0
  7  9  1  0  0  0  0
 21 22  1  0  0  0  0
 21 23  1  0  0  0  0
 21 24  1  0  0  0  0
 19 20  1  0  0  0  0
 19 21  1  0  0  0  0
M  CHG  1  15  -1
M  END
$$$$
default_name
  -OEChem-02102213163D

 24 23  0     1  0  0  0  0  0999 V2000
   -2.8347   -3.7166    0.8034 H   0  0  0  0  0  0  0  0  0  0  0  0
   -2.7728   -2.7096    0.3954 C   0  0  0  0  0  0  0  0  0  0  0  0
   -3.4267   -2.0426    0.9524 H   0  0  0  0  0  0  0  0  0  0  0  0
   -3.0538   -2.7186   -0.6556 H   0  0  0  0  0  0  0  0  0  0  0  0
   -1.3498   -2.2206    0.5184 C   0  0  0  0  0  0  0  0  0  0  0  0
   -0.4997   -2.9426    1.0194 O   0  0  0  0  0  0  0  0  0  0  0  0
   -1.1198   -0.9926    0.0674 N   0  0  0  0  0  0  0  0  0  0  0  0
   -1.8978   -0.4486   -0.2716 H   0  0  0  0  0  0  0  0  0  0  0  0
    0.1693   -0.2866    0.0854 C   0  0  1  0  0  0  0  0  0  0  0  0
    0.9043   -0.8713   -0.4705 H   0  0  0  0  0  0  0  0  0  0  0  0
    0.0106    1.0816   -0.6124 C   0  0  0  0  0  0  0  0  0  0  0  0
   -1.0244    1.1889   -0.9417 H   0  0  0  0  0  0  0  0  0  0  0  0
    0.2127    1.8724    0.1134 H   0  0  0  0  0  0  0  0  0  0  0  0
    0.9120    1.2791   -1.8412 C   0  0  0  0  0  0  0  0  0  0  0  0
    1.7357    2.2241   -1.8342 O   0  5  0  0  0  0  0  0  0  0  0  0
    0.7537    0.4861   -2.7942 O   0  0  0  0  0  0  0  0  0  0  0  0
    0.6664   -0.1450    1.5428 C   0  0  0  0  0  0  0  0  0  0  0  0
    1.8485   -0.3724    1.8265 O   0  0  0  0  0  0  0  0  0  0  0  0
   -0.2161    0.2434    2.4686 N   0  0  0  0  0  0  0  0  0  0  0  0
   -1.1850    0.3219    2.1537 H   0  0  0  0  0  0  0  0  0  0  0  0
    0.0735    0.4128    3.8885 C   0  0  0  0  0  0  0  0  0  0  0  0
    1.0159    0.9483    4.0105 H   0  0  0  0  0  0  0  0  0  0  0  0
   -0.7315    0.9748    4.3613 H   0  0  0  0  0  0  0  0  0  0  0  0
    0.1564   -0.5677    4.3577 H   0  0  0  0  0  0  0  0  0  0  0  0
  5  6  2  0  0  0  0
  5  7  1  0  0  0  0
  2  3  1  0  0  0  0
  2  4  1  0  0  0  0
  2  5  1  0  0  0  0
  1  2  1  0  0  0  0
 17 18  2  0  0  0  0
 17 19  1  0  0  0  0
 14 15  1  0  0  0  0
 14 16  2  0  0  0  0
 11 12  1  0  0  0  0
 11 13  1  0  0  0  0
 11 14  1  0  0  0  0
  9 10  1  0  0  0  0
  9 11  1  0  0  0  0
  9 17  1  0  0  0  0
  7  8  1  0  0  0  0
  7  9  1  0  0  0  0
 21 22  1  0  0  0  0
 21 23  1  0  0  0  0
 21 24  1  0  0  0  0
 19 20  1  0  0  0  0
 19 21  1  0  0  0  0
M  CHG  1  15  -1
M  END
$$$$
default_name
  -OEChem-02102213163D

 24 23  0     1  0  0  0  0  0999 V2000
   -2.8347   -3.7166    0.8034 H   0  0  0  0  0  0  0  0  0  0  0  0
   -2.7728   -2.7096    0.3954 C   0  0  0  0  0  0  0  0  0  0  0  0
   -3.4267   -2.0426    0.9524 H   0  0  0  0  0  0  0  0  0  0  0  0
   -3.0538   -2.7186   -0.6556 H   0  0  0  0  0  0  0  0  0  0  0  0
   -1.3498   -2.2206    0.5184 C   0  0  0  0  0  0  0  0  0  0  0  0
   -0.4997   -2.9426    1.0194 O   0  0  0  0  0  0  0  0  0  0  0  0
   -1.1198   -0.9926    0.0674 N   0  0  0  0  0  0  0  0  0  0  0  0
   -1.8978   -0.4486   -0.2716 H   0  0  0  0  0  0  0  0  0  0  0  0
    0.1693   -0.2866    0.0854 C   0  0  1  0  0  0  0  0  0  0  0  0
    0.9043   -0.8713   -0.4705 H   0  0  0  0  0  0  0  0  0  0  0  0
    0.0106    1.0816   -0.6124 C   0  0  0  0  0  0  0  0  0  0  0  0
   -1.0244    1.1889   -0.9417 H   0  0  0  0  0  0  0  0  0  0  0  0
    0.2127    1.8724    0.1134 H   0  0  0  0  0  0  0  0  0  0  0  0
    0.9120    1.2791   -1.8412 C   0  0  0  0  0  0  0  0  0  0  0  0
    1.9154    2.0230   -1.7347 O   0  5  0  0  0  0  0  0  0  0  0  0
    0.5746    0.6931   -2.8923 O   0  0  0  0  0  0  0  0  0  0  0  0
    0.6664   -0.1450    1.5428 C   0  0  0  0  0  0  0  0  0  0  0  0
    1.8485   -0.3724    1.8265 O   0  0  0  0  0  0  0  0  0  0  0  0
   -0.2161    0.2434    2.4686 N   0  0  0  0  0  0  0  0  0  0  0  0
   -1.1850    0.3219    2.1537 H   0  0  0  0  0  0  0  0  0  0  0  0
    0.0735    0.4128    3.8885 C   0  0  0  0  0  0  0  0  0  0  0  0
    1.0159    0.9483    4.0105 H   0  0  0  0  0  0  0  0  0  0  0  0
   -0.7315    0.9748    4.3613 H   0  0  0  0  0  0  0  0  0  0  0  0
    0.1564   -0.5677    4.3577 H   0  0  0  0  0  0  0  0  0  0  0  0
  5  6  2  0  0  0  0
  5  7  1  0  0  0  0
  2  3  1  0  0  0  0
  2  4  1  0  0  0  0
  2  5  1  0  0  0  0
  1  2  1  0  0  0  0
 17 18  2  0  0  0  0
 17 19  1  0  0  0  0
 14 15  1  0  0  0  0
 14 16  2  0  0  0  0
 11 12  1  0  0  0  0
 11 13  1  0  0  0  0
 11 14  1  0  0  0  0
  9 10  1  0  0  0  0
  9 11  1  0  0  0  0
  9 17  1  0  0  0  0
  7  8  1  0  0  0  0
  7  9  1  0  0  0  0
 21 22  1  0  0  0  0
 21 23  1  0  0  0  0
 21 24  1  0  0  0  0
 19 20  1  0  0  0  0
 19 21  1  0  0  0  0
M  CHG  1  15  -1
M  END
$$$$
default_name
  -OEChem-02102213163D

 24 23  0     1  0  0  0  0  0999 V2000
   -2.8347   -3.7166    0.8034 H   0  0  0  0  0  0  0  0  0  0  0  0
   -2.7728   -2.7096    0.3954 C   0  0  0  0  0  0  0  0  0  0  0  0
   -3.4267   -2.0426    0.9524 H   0  0  0  0  0  0  0  0  0  0  0  0
   -3.0538   -2.7186   -0.6556 H   0  0  0  0  0  0  0  0  0  0  0  0
   -1.3498   -2.2206    0.5184 C   0  0  0  0  0  0  0  0  0  0  0  0
   -0.4997   -2.9426    1.0194 O   0  0  0  0  0  0  0  0  0  0  0  0
   -1.1198   -0.9926    0.0674 N   0  0  0  0  0  0  0  0  0  0  0  0
   -1.8978   -0.4486   -0.2716 H   0  0  0  0  0  0  0  0  0  0  0  0
    0.1693   -0.2866    0.0854 C   0  0  1  0  0  0  0  0  0  0  0  0
    0.9043   -0.8713   -0.4705 H   0  0  0  0  0  0  0  0  0  0  0  0
    0.0106    1.0816   -0.6124 C   0  0  0  0  0  0  0  0  0  0  0  0
   -1.0244    1.1889   -0.9417 H   0  0  0  0  0  0  0  0  0  0  0  0
    0.2127    1.8724    0.1134 H   0  0  0  0  0  0  0  0  0  0  0  0
    0.9120    1.2791   -1.8412 C   0  0  0  0  0  0  0  0  0  0  0  0
    2.0507    1.7764   -1.6751 O   0  5  0  0  0  0  0  0  0  0  0  0
    0.4412    0.9449   -2.9497 O   0  0  0  0  0  0  0  0  0  0  0  0
    0.6664   -0.1450    1.5428 C   0  0  0  0  0  0  0  0  0  0  0  0
    1.8485   -0.3724    1.8265 O   0  0  0  0  0  0  0  0  0  0  0  0
   -0.2161    0.2434    2.4686 N   0  0  0  0  0  0  0  0  0  0  0  0
   -1.1850    0.3219    2.1537 H   0  0  0  0  0  0  0  0  0  0  0  0
    0.0735    0.4128    3.8885 C   0  0  0  0  0  0  0  0  0  0  0  0
    1.0159    0.9483    4.0105 H   0  0  0  0  0  0  0  0  0  0  0  0
   -0.7315    0.9748    4.3613 H   0  0  0  0  0  0  0  0  0  0  0  0
    0.1564   -0.5677    4.3577 H   0  0  0  0  0  0  0  0  0  0  0  0
  5  6  2  0  0  0  0
  5  7  1  0  0  0  0
  2  3  1  0  0  0  0
  2  4  1  0  0  0  0
  2  5  1  0  0  0  0
  1  2  1  0  0  0  0
 17 18  2  0  0  0  0
 17 19  1  0  0  0  0
 14 15  1  0  0  0  0
 14 16  2  0  0  0  0
 11 12  1  0  0  0  0
 11 13  1  0  0  0  0
 11 14  1  0  0  0  0
  9 10  1  0  0  0  0
  9 11  1  0  0  0  0
  9 17  1  0  0  0  0
  7  8  1  0  0  0  0
  7  9  1  0  0  0  0
 21 22  1  0  0  0  0
 21 23  1  0  0  0  0
 21 24  1  0  0  0  0
 19 20  1  0  0  0  0
 19 21  1  0  0  0  0
M  CHG  1  15  -1
M  END
$$$$
default_name
  -OEChem-02102213163D

 24 23  0     1  0  0  0  0  0999 V2000
   -2.8347   -3.7166    0.8034 H   0  0  0  0  0  0  0  0  0  0  0  0
   -2.7728   -2.7096    0.3954 C   0  0  0  0  0  0  0  0  0  0  0  0
   -3.4267   -2.0426    0.9524 H   0  0  0  0  0  0  0  0  0  0  0  0
   -3.0538   -2.7186   -0.6556 H   0  0  0  0  0  0  0  0  0  0  0  0
   -1.3498   -2.2206    0.5184 C   0  0  0  0  0  0  0  0  0  0  0  0
   -0.4997   -2.9426    1.0194 O   0  0  0  0  0  0  0  0  0  0  0  0
   -1.1198   -0.9926    0.0674 N   0  0  0  0  0  0  0  0  0  0  0  0
   -1.8978   -0.4486   -0.2716 H   0  0  0  0  0  0  0  0  0  0  0  0
    0.1693   -0.2866    0.0854 C   0  0  1  0  0  0  0  0  0  0  0  0
    0.9043   -0.8713   -0.4705 H   0  0  0  0  0  0  0  0  0  0  0  0
    0.0106    1.0816   -0.6124 C   0  0  0  0  0  0  0  0  0  0  0  0
   -1.0244    1.1889   -0.9417 H   0  0  0  0  0  0  0  0  0  0  0  0
    0.2127    1.8724    0.1134 H   0  0  0  0  0  0  0  0  0  0  0  0
    0.9120    1.2791   -1.8412 C   0  0  0  0  0  0  0  0  0  0  0  0
    2.1323    1.5012   -1.6595 O   0  5  0  0  0  0  0  0  0  0  0  0
    0.3625    1.2245   -2.9625 O   0  0  0  0  0  0  0  0  0  0  0  0
    0.6664   -0.1450    1.5428 C   0  0  0  0  0  0  0  0  0  0  0  0
    1.8485   -0.3724    1.8265 O   0  0  0  0  0  0  0  0  0  0  0  0
   -0.2161    0.2434    2.4686 N   0  0  0  0  0  0  0  0  0  0  0  0
   -1.1850    0.3219    2.1537 H   0  0  0  0  0  0  0  0  0  0  0  0
    0.0735    0.4128    3.8885 C   0  0  0  0  0  0  0  0  0  0  0  0
    1.0159    0.9483    4.0105 H   0  0  0  0  0  0  0  0  0  0  0  0
   -0.7315    0.9748    4.3613 H   0  0  0  0  0  0  0  0  0  0  0  0
    0.1564   -0.5677    4.3577 H   0  0  0  0  0  0  0  0  0  0  0  0
  5  6  2  0  0  0  0
  5  7  1  0  0  0  0
  2  3  1  0  0  0  0
  2  4  1  0  0  0  0
  2  5  1  0  0  0  0
  1  2  1  0  0  0  0
 17 18  2  0  0  0  0
 17 19  1  0  0  0  0
 14 15  1  0  0  0  0
 14 16  2  0  0  0  0
 11 12  1  0  0  0  0
 11 13  1  0  0  0  0
 11 14  1  0  0  0  0
  9 10  1  0  0  0  0
  9 11  1  0  0  0  0
  9 17  1  0  0  0  0
  7  8  1  0  0  0  0
  7  9  1  0  0  0  0
 21 22  1  0  0  0  0
 21 23  1  0  0  0  0
 21 24  1  0  0  0  0
 19 20  1  0  0  0  0
 19 21  1  0  0  0  0
M  CHG  1  15  -1
M  END
$$$$
default_name
  -OEChem-02102213163D

 24 23  0     1  0  0  0  0  0999 V2000
   -2.8347   -3.7166    0.8034 H   0  0  0  0  0  0  0  0  0  0  0  0
   -2.7728   -2.7096    0.3954 C   0  0  0  0  0  0  0  0  0  0  0  0
   -3.4267   -2.0426    0.9524 H   0  0  0  0  0  0  0  0  0  0  0  0
   -3.0538   -2.7186   -0.6556 H   0  0  0  0  0  0  0  0  0  0  0  0
   -1.3498   -2.2206    0.5184 C   0  0  0  0  0  0  0  0  0  0  0  0
   -0.4997   -2.9426    1.0194 O   0  0  0  0  0  0  0  0  0  0  0  0
   -1.1198   -0.9926    0.0674 N   0  0  0  0  0  0  0  0  0  0  0  0
   -1.8978   -0.4486   -0.2716 H   0  0  0  0  0  0  0  0  0  0  0  0
    0.1693   -0.2866    0.0854 C   0  0  1  0  0  0  0  0  0  0  0  0
    0.9043   -0.8713   -0.4705 H   0  0  0  0  0  0  0  0  0  0  0  0
    0.0106    1.0816   -0.6124 C   0  0  0  0  0  0  0  0  0  0  0  0
   -1.0244    1.1889   -0.9417 H   0  0  0  0  0  0  0  0  0  0  0  0
    0.2127    1.8724    0.1134 H   0  0  0  0  0  0  0  0  0  0  0  0
    0.9120    1.2791   -1.8412 C   0  0  0  0  0  0  0  0  0  0  0  0
    2.1547    1.2161   -1.6888 O   0  5  0  0  0  0  0  0  0  0  0  0
    0.3440    1.5128   -2.9298 O   0  0  0  0  0  0  0  0  0  0  0  0
    0.6664   -0.1450    1.5428 C   0  0  0  0  0  0  0  0  0  0  0  0
    1.8485   -0.3724    1.8265 O   0  0  0  0  0  0  0  0  0  0  0  0
   -0.2161    0.2434    2.4686 N   0  0  0  0  0  0  0  0  0  0  0  0
   -1.1850    0.3219    2.1537 H   0  0  0  0  0  0  0  0  0  0  0  0
    0.0735    0.4128    3.8885 C   0  0  0  0  0  0  0  0  0  0  0  0
    1.0159    0.9483    4.0105 H   0  0  0  0  0  0  0  0  0  0  0  0
   -0.7315    0.9748    4.3613 H   0  0  0  0  0  0  0  0  0  0  0  0
    0.1564   -0.5677    4.3577 H   0  0  0  0  0  0  0  0  0  0  0  0
  5  6  2  0  0  0  0
  5  7  1  0  0  0  0
  2  3  1  0  0  0  0
  2  4  1  0  0  0  0
  2  5  1  0  0  0  0
  1  2  1  0  0  0  0
 17 18  2  0  0  0  0
 17 19  1  0  0  0  0
 14 15  1  0  0  0  0
 14 16  2  0  0  0  0
 11 12  1  0  0  0  0
 11 13  1  0  0  0  0
 11 14  1  0  0  0  0
  9 10  1  0  0  0  0
  9 11  1  0  0  0  0
  9 17  1  0  0  0  0
  7  8  1  0  0  0  0
  7  9  1  0  0  0  0
 21 22  1  0  0  0  0
 21 23  1  0  0  0  0
 21 24  1  0  0  0  0
 19 20  1  0  0  0  0
 19 21  1  0  0  0  0
M  CHG  1  15  -1
M  END
$$$$
default_name
  -OEChem-02102213163D

 24 23  0     1  0  0  0  0  0999 V2000
   -2.8347   -3.7166    0.8034 H   0  0  0  0  0  0  0  0  0  0  0  0
   -2.7728   -2.7096    0.3954 C   0  0  0  0  0  0  0  0  0  0  0  0
   -3.4267   -2.0426    0.9524 H   0  0  0  0  0  0  0  0  0  0  0  0
   -3.0538   -2.7186   -0.6556 H   0  0  0  0  0  0  0  0  0  0  0  0
   -1.3498   -2.2206    0.5184 C   0  0  0  0  0  0  0  0  0  0  0  0
   -0.4997   -2.9426    1.0194 O   0  0  0  0  0  0  0  0  0  0  0  0
   -1.1198   -0.9926    0.0674 N   0  0  0  0  0  0  0  0  0  0  0  0
   -1.8978   -0.4486   -0.2716 H   0  0  0  0  0  0  0  0  0  0  0  0
    0.1693   -0.2866    0.0854 C   0  0  1  0  0  0  0  0  0  0  0  0
    0.9043   -0.8713   -0.4705 H   0  0  0  0  0  0  0  0  0  0  0  0
    0.0106    1.0816   -0.6124 C   0  0  0  0  0  0  0  0  0  0  0  0
   -1.0244    1.1889   -0.9417 H   0  0  0  0  0  0  0  0  0  0  0  0
    0.2127    1.8724    0.1134 H   0  0  0  0  0  0  0  0  0  0  0  0
    0.9120    1.2791   -1.8412 C   0  0  0  0  0  0  0  0  0  0  0  0
    2.1164    0.9405   -1.7613 O   0  5  0  0  0  0  0  0  0  0  0  0
    0.3869    1.7902   -2.8537 O   0  0  0  0  0  0  0  0  0  0  0  0
    0.6664   -0.1450    1.5428 C   0  0  0  0  0  0  0  0  0  0  0  0
    1.8485   -0.3724    1.8265 O   0  0  0  0  0  0  0  0  0  0  0  0
   -0.2161    0.2434    2.4686 N   0  0  0  0  0  0  0  0  0  0  0  0
   -1.1850    0.3219    2.1537 H   0  0  0  0  0  0  0  0  0  0  0  0
    0.0735    0.4128    3.8885 C   0  0  0  0  0  0  0  0  0  0  0  0
    1.0159    0.9483    4.0105 H   0  0  0  0  0  0  0  0  0  0  0  0
   -0.7315    0.9748    4.3613 H   0  0  0  0  0  0  0  0  0  0  0  0
    0.1564   -0.5677    4.3577 H   0  0  0  0  0  0  0  0  0  0  0  0
  5  6  2  0  0  0  0
  5  7  1  0  0  0  0
  2  3  1  0  0  0  0
  2  4  1  0  0  0  0
  2  5  1  0  0  0  0
  1  2  1  0  0  0  0
 17 18  2  0  0  0  0
 17 19  1  0  0  0  0
 14 15  1  0  0  0  0
 14 16  2  0  0  0  0
 11 12  1  0  0  0  0
 11 13  1  0  0  0  0
 11 14  1  0  0  0  0
  9 10  1  0  0  0  0
  9 11  1  0  0  0  0
  9 17  1  0  0  0  0
  7  8  1  0  0  0  0
  7  9  1  0  0  0  0
 21 22  1  0  0  0  0
 21 23  1  0  0  0  0
 21 24  1  0  0  0  0
 19 20  1  0  0  0  0
 19 21  1  0  0  0  0
M  CHG  1  15  -1
M  END
$$$$
default_name
  -OEChem-02102213163D

 24 23  0     1  0  0  0  0  0999 V2000
   -2.8347   -3.7166    0.8034 H   0  0  0  0  0  0  0  0  0  0  0  0
   -2.7728   -2.7096    0.3954 C   0  0  0  0  0  0  0  0  0  0  0  0
   -3.4267   -2.0426    0.9524 H   0  0  0  0  0  0  0  0  0  0  0  0
   -3.0538   -2.7186   -0.6556 H   0  0  0  0  0  0  0  0  0  0  0  0
   -1.3498   -2.2206    0.5184 C   0  0  0  0  0  0  0  0  0  0  0  0
   -0.4997   -2.9426    1.0194 O   0  0  0  0  0  0  0  0  0  0  0  0
   -1.1198   -0.9926    0.0674 N   0  0  0  0  0  0  0  0  0  0  0  0
   -1.8978   -0.4486   -0.2716 H   0  0  0  0  0  0  0  0  0  0  0  0
    0.1693   -0.2866    0.0854 C   0  0  1  0  0  0  0  0  0  0  0  0
    0.9043   -0.8713   -0.4705 H   0  0  0  0  0  0  0  0  0  0  0  0
    0.0106    1.0816   -0.6124 C   0  0  0  0  0  0  0  0  0  0  0  0
   -1.0244    1.1889   -0.9417 H   0  0  0  0  0  0  0  0  0  0  0  0
    0.2127    1.8724    0.1134 H   0  0  0  0  0  0  0  0  0  0  0  0
    0.9120    1.2791   -1.8412 C   0  0  0  0  0  0  0  0  0  0  0  0
    2.0199    0.6933   -1.8718 O   0  5  0  0  0  0  0  0  0  0  0  0
    0.4882    2.0376   -2.7397 O   0  0  0  0  0  0  0  0  0  0  0  0
    0.6664   -0.1450    1.5428 C   0  0  0  0  0  0  0  0  0  0  0  0
    1.8485   -0.3724    1.8265 O   0  0  0  0  0  0  0  0  0  0  0  0
   -0.2161    0.2434    2.4686 N   0  0  0  0  0  0  0  0  0  0  0  0
   -1.1850    0.3219    2.1537 H   0  0  0  0  0  0  0  0  0  0  0  0
    0.0735    0.4128    3.8885 C   0  0  0  0  0  0  0  0  0  0  0  0
    1.0159    0.9483    4.0105 H   0  0  0  0  0  0  0  0  0  0  0  0
   -0.7315    0.9748    4.3613 H   0  0  0  0  0  0  0  0  0  0  0  0
    0.1564   -0.5677    4.3577 H   0  0  0  0  0  0  0  0  0  0  0  0
  5  6  2  0  0  0  0
  5  7  1  0  0  0  0
  2  3  1  0  0  0  0
  2  4  1  0  0  0  0
  2  5  1  0  0  0  0
  1  2  1  0  0  0  0
 17 18  2  0  0  0  0
 17 19  1  0  0  0  0
 14 15  1  0  0  0  0
 14 16  2  0  0  0  0
 11 12  1  0  0  0  0
 11 13  1  0  0  0  0
 11 14  1  0  0  0  0
  9 10  1  0  0  0  0
  9 11  1  0  0  0  0
  9 17  1  0  0  0  0
  7  8  1  0  0  0  0
  7  9  1  0  0  0  0
 21 22  1  0  0  0  0
 21 23  1  0  0  0  0
 21 24  1  0  0  0  0
 19 20  1  0  0  0  0
 19 21  1  0  0  0  0
M  CHG  1  15  -1
M  END
$$$$
default_name
  -OEChem-02102213163D

 24 23  0     1  0  0  0  0  0999 V2000
   -2.8347   -3.7166    0.8034 H   0  0  0  0  0  0  0  0  0  0  0  0
   -2.7728   -2.7096    0.3954 C   0  0  0  0  0  0  0  0  0  0  0  0
   -3.4267   -2.0426    0.9524 H   0  0  0  0  0  0  0  0  0  0  0  0
   -3.0538   -2.7186   -0.6556 H   0  0  0  0  0  0  0  0  0  0  0  0
   -1.3498   -2.2206    0.5184 C   0  0  0  0  0  0  0  0  0  0  0  0
   -0.4997   -2.9426    1.0194 O   0  0  0  0  0  0  0  0  0  0  0  0
   -1.1198   -0.9926    0.0674 N   0  0  0  0  0  0  0  0  0  0  0  0
   -1.8978   -0.4486   -0.2716 H   0  0  0  0  0  0  0  0  0  0  0  0
    0.1693   -0.2866    0.0854 C   0  0  1  0  0  0  0  0  0  0  0  0
    0.9043   -0.8713   -0.4705 H   0  0  0  0  0  0  0  0  0  0  0  0
    0.0106    1.0816   -0.6124 C   0  0  0  0  0  0  0  0  0  0  0  0
   -1.0244    1.1889   -0.9417 H   0  0  0  0  0  0  0  0  0  0  0  0
    0.2127    1.8724    0.1134 H   0  0  0  0  0  0  0  0  0  0  0  0
    0.9120    1.2791   -1.8412 C   0  0  0  0  0  0  0  0  0  0  0  0
    1.8719    0.4912   -2.0128 O   0  5  0  0  0  0  0  0  0  0  0  0
    0.6411    2.2384   -2.5952 O   0  0  0  0  0  0  0  0  0  0  0  0
    0.6664   -0.1450    1.5428 C   0  0  0  0  0  0  0  0  0  0  0  0
    1.8485   -0.3724    1.8265 O   0  0  0  0  0  0  0  0  0  0  0  0
   -0.2161    0.2434    2.4686 N   0  0  0  0  0  0  0  0  0  0  0  0
   -1.1850    0.3219    2.1537 H   0  0  0  0  0  0  0  0  0  0  0  0
    0.0735    0.4128    3.8885 C   0  0  0  0  0  0  0  0  0  0  0  0
    1.0159    0.9483    4.0105 H   0  0  0  0  0  0  0  0  0  0  0  0
   -0.7315    0.9748    4.3613 H   0  0  0  0  0  0  0  0  0  0  0  0
    0.1564   -0.5677    4.3577 H   0  0  0  0  0  0  0  0  0  0  0  0
  5  6  2  0  0  0  0
  5  7  1  0  0  0  0
  2  3  1  0  0  0  0
  2  4  1  0  0  0  0
  2  5  1  0  0  0  0
  1  2  1  0  0  0  0
 17 18  2  0  0  0  0
 17 19  1  0  0  0  0
 14 15  1  0  0  0  0
 14 16  2  0  0  0  0
 11 12  1  0  0  0  0
 11 13  1  0  0  0  0
 11 14  1  0  0  0  0
  9 10  1  0  0  0  0
  9 11  1  0  0  0  0
  9 17  1  0  0  0  0
  7  8  1  0  0  0  0
  7  9  1  0  0  0  0
 21 22  1  0  0  0  0
 21 23  1  0  0  0  0
 21 24  1  0  0  0  0
 19 20  1  0  0  0  0
 19 21  1  0  0  0  0
M  CHG  1  15  -1
M  END
$$$$
default_name
  -OEChem-02102213163D

 24 23  0     1  0  0  0  0  0999 V2000
   -2.8347   -3.7166    0.8034 H   0  0  0  0  0  0  0  0  0  0  0  0
   -2.7728   -2.7096    0.3954 C   0  0  0  0  0  0  0  0  0  0  0  0
   -3.4267   -2.0426    0.9524 H   0  0  0  0  0  0  0  0  0  0  0  0
   -3.0538   -2.7186   -0.6556 H   0  0  0  0  0  0  0  0  0  0  0  0
   -1.3498   -2.2206    0.5184 C   0  0  0  0  0  0  0  0  0  0  0  0
   -0.4997   -2.9426    1.0194 O   0  0  0  0  0  0  0  0  0  0  0  0
   -1.1198   -0.9926    0.0674 N   0  0  0  0  0  0  0  0  0  0  0  0
   -1.8978   -0.4486   -0.2716 H   0  0  0  0  0  0  0  0  0  0  0  0
    0.1693   -0.2866    0.0854 C   0  0  1  0  0  0  0  0  0  0  0  0
    0.9043   -0.8713   -0.4705 H   0  0  0  0  0  0  0  0  0  0  0  0
    0.0106    1.0816   -0.6124 C   0  0  0  0  0  0  0  0  0  0  0  0
   -1.0244    1.1889   -0.9417 H   0  0  0  0  0  0  0  0  0  0  0  0
    0.2127    1.8724    0.1134 H   0  0  0  0  0  0  0  0  0  0  0  0
    0.9120    1.2791   -1.8412 C   0  0  0  0  0  0  0  0  0  0  0  0
    1.6824    0.3481   -2.1748 O   0  5  0  0  0  0  0  0  0  0  0  0
    0.8351    2.3787   -2.4304 O   0  0  0  0  0  0  0  0  0  0  0  0
    0.6664   -0.1450    1.5428 C   0  0  0  0  0  0  0  0  0  0  0  0
    1.8485   -0.3724    1.8265 O   0  0  0  0  0  0  0  0  0  0  0  0
   -0.2161    0.2434    2.4686 N   0  0  0  0  0  0  0  0  0  0  0  0
   -1.1850    0.3219    2.1537 H   0  0  0  0  0  0  0  0  0  0  0  0
    0.0735    0.4128    3.8885 C   0  0  0  0  0  0  0  0  0  0  0  0
    1.0159    0.9483    4.0105 H   0  0  0  0  0  0  0  0  0  0  0  0
   -0.7315    0.9748    4.3613 H   0  0  0  0  0  0  0  0  0  0  0  0
    0.1564   -0.5677    4.3577 H   0  0  0  0  0  0  0  0  0  0  0  0
  5  6  2  0  0  0  0
  5  7  1  0  0  0  0
  2  3  1  0  0  0  0
  2  4  1  0  0  0  0
  2  5  1  0  0  0  0
  1  2  1  0  0  0  0
 17 18  2  0  0  0  0
 17 19  1  0  0  0  0
 14 15  1  0  0  0  0
 14 16  2  0  0  0  0
 11 12  1  0  0  0  0
 11 13  1  0  0  0  0
 11 14  1  0  0  0  0
  9 10  1  0  0  0  0
  9 11  1  0  0  0  0
  9 17  1  0  0  0  0
  7  8  1  0  0  0  0
  7  9  1  0  0  0  0
 21 22  1  0  0  0  0
 21 23  1  0  0  0  0
 21 24  1  0  0  0  0
 19 20  1  0  0  0  0
 19 21  1  0  0  0  0
M  CHG  1  15  -1
M  END
$$$$
default_name
  -OEChem-02102213163D

 24 23  0     1  0  0  0  0  0999 V2000
   -2.8347   -3.7166    0.8034 H   0  0  0  0  0  0  0  0  0  0  0  0
   -2.7728   -2.7096    0.3954 C   0  0  0  0  0  0  0  0  0  0  0  0
   -3.4267   -2.0426    0.9524 H   0  0  0  0  0  0  0  0  0  0  0  0
   -3.0538   -2.7186   -0.6556 H   0  0  0  0  0  0  0  0  0  0  0  0
   -1.3498   -2.2206    0.5184 C   0  0  0  0  0  0  0  0  0  0  0  0
   -0.4997   -2.9426    1.0194 O   0  0  0  0  0  0  0  0  0  0  0  0
   -1.1198   -0.9926    0.0674 N   0  0  0  0  0  0  0  0  0  0  0  0
   -1.8978   -0.4486   -0.2716 H   0  0  0  0  0  0  0  0  0  0  0  0
    0.1693   -0.2866    0.0854 C   0  0  1  0  0  0  0  0  0  0  0  0
    0.9043   -0.8713   -0.4705 H   0  0  0  0  0  0  0  0  0  0  0  0
    0.0106    1.0816   -0.6124 C   0  0  0  0  0  0  0  0  0  0  0  0
   -1.0244    1.1889   -0.9417 H   0  0  0  0  0  0  0  0  0  0  0  0
    0.2127    1.8724    0.1134 H   0  0  0  0  0  0  0  0  0  0  0  0
    0.9120    1.2791   -1.8412 C   0  0  0  0  0  0  0  0  0  0  0  0
    1.4643    0.2736   -2.3468 O   0  5  0  0  0  0  0  0  0  0  0  0
    1.0570    2.4491   -2.2562 O   0  0  0  0  0  0  0  0  0  0  0  0
    0.6664   -0.1450    1.5428 C   0  0  0  0  0  0  0  0  0  0  0  0
    1.8485   -0.3724    1.8265 O   0  0  0  0  0  0  0  0  0  0  0  0
   -0.2161    0.2434    2.4686 N   0  0  0  0  0  0  0  0  0  0  0  0
   -1.1850    0.3219    2.1537 H   0  0  0  0  0  0  0  0  0  0  0  0
    0.0735    0.4128    3.8885 C   0  0  0  0  0  0  0  0  0  0  0  0
    1.0159    0.9483    4.0105 H   0  0  0  0  0  0  0  0  0  0  0  0
   -0.7315    0.9748    4.3613 H   0  0  0  0  0  0  0  0  0  0  0  0
    0.1564   -0.5677    4.3577 H   0  0  0  0  0  0  0  0  0  0  0  0
  5  6  2  0  0  0  0
  5  7  1  0  0  0  0
  2  3  1  0  0  0  0
  2  4  1  0  0  0  0
  2  5  1  0  0  0  0
  1  2  1  0  0  0  0
 17 18  2  0  0  0  0
 17 19  1  0  0  0  0
 14 15  1  0  0  0  0
 14 16  2  0  0  0  0
 11 12  1  0  0  0  0
 11 13  1  0  0  0  0
 11 14  1  0  0  0  0
  9 10  1  0  0  0  0
  9 11  1  0  0  0  0
  9 17  1  0  0  0  0
  7  8  1  0  0  0  0
  7  9  1  0  0  0  0
 21 22  1  0  0  0  0
 21 23  1  0  0  0  0
 21 24  1  0  0  0  0
 19 20  1  0  0  0  0
 19 21  1  0  0  0  0
M  CHG  1  15  -1
M  END
$$$$
default_name
  -OEChem-02102213163D

 24 23  0     1  0  0  0  0  0999 V2000
   -2.8347   -3.7166    0.8034 H   0  0  0  0  0  0  0  0  0  0  0  0
   -2.7728   -2.7096    0.3954 C   0  0  0  0  0  0  0  0  0  0  0  0
   -3.4267   -2.0426    0.9524 H   0  0  0  0  0  0  0  0  0  0  0  0
   -3.0538   -2.7186   -0.6556 H   0  0  0  0  0  0  0  0  0  0  0  0
   -1.3498   -2.2206    0.5184 C   0  0  0  0  0  0  0  0  0  0  0  0
   -0.4997   -2.9426    1.0194 O   0  0  0  0  0  0  0  0  0  0  0  0
   -1.1198   -0.9926    0.0674 N   0  0  0  0  0  0  0  0  0  0  0  0
   -1.8978   -0.4486   -0.2716 H   0  0  0  0  0  0  0  0  0  0  0  0
    0.1693   -0.2866    0.0854 C   0  0  1  0  0  0  0  0  0  0  0  0
    0.9043   -0.8713   -0.4705 H   0  0  0  0  0  0  0  0  0  0  0  0
    0.0106    1.0816   -0.6124 C   0  0  0  0  0  0  0  0  0  0  0  0
   -1.0244    1.1889   -0.9417 H   0  0  0  0  0  0  0  0  0  0  0  0
    0.2127    1.8724    0.1134 H   0  0  0  0  0  0  0  0  0  0  0  0
    0.9120    1.2791   -1.8412 C   0  0  0  0  0  0  0  0  0  0  0  0
    1.2326    0.2730   -2.5169 O   0  5  0  0  0  0  0  0  0  0  0  0
    1.2918    2.4447   -2.0848 O   0  0  0  0  0  0  0  0  0  0  0  0
    0.6664   -0.1450    1.5428 C   0  0  0  0  0  0  0  0  0  0  0  0
    1.8485   -0.3724    1.8265 O   0  0  0  0  0  0  0  0  0  0  0  0
   -0.2161    0.2434    2.4686 N   0  0  0  0  0  0  0  0  0  0  0  0
   -1.1850    0.3219    2.1537 H   0  0  0  0  0  0  0  0  0  0  0  0
    0.0735    0.4128    3.8885 C   0  0  0  0  0  0  0  0  0  0  0  0
    1.0159    0.9483    4.0105 H   0  0  0  0  0  0  0  0  0  0  0  0
   -0.7315    0.9748    4.3613 H   0  0  0  0  0  0  0  0  0  0  0  0
    0.1564   -0.5677    4.3577 H   0  0  0  0  0  0  0  0  0  0  0  0
  5  6  2  0  0  0  0
  5  7  1  0  0  0  0
  2  3  1  0  0  0  0
  2  4  1  0  0  0  0
  2  5  1  0  0  0  0
  1  2  1  0  0  0  0
 17 18  2  0  0  0  0
 17 19  1  0  0  0  0
 14 15  1  0  0  0  0
 14 16  2  0  0  0  0
 11 12  1  0  0  0  0
 11 13  1  0  0  0  0
 11 14  1  0  0  0  0
  9 10  1  0  0  0  0
  9 11  1  0  0  0  0
  9 17  1  0  0  0  0
  7  8  1  0  0  0  0
  7  9  1  0  0  0  0
 21 22  1  0  0  0  0
 21 23  1  0  0  0  0
 21 24  1  0  0  0  0
 19 20  1  0  0  0  0
 19 21  1  0  0  0  0
M  CHG  1  15  -1
M  END
$$$$
default_name
  -OEChem-02102213163D

 24 23  0     1  0  0  0  0  0999 V2000
   -2.8347   -3.7166    0.8034 H   0  0  0  0  0  0  0  0  0  0  0  0
   -2.7728   -2.7096    0.3954 C   0  0  0  0  0  0  0  0  0  0  0  0
   -3.4267   -2.0426    0.9524 H   0  0  0  0  0  0  0  0  0  0  0  0
   -3.0538   -2.7186   -0.6556 H   0  0  0  0  0  0  0  0  0  0  0  0
   -1.3498   -2.2206    0.5184 C   0  0  0  0  0  0  0  0  0  0  0  0
   -0.4997   -2.9426    1.0194 O   0  0  0  0  0  0  0  0  0  0  0  0
   -1.1198   -0.9926    0.0674 N   0  0  0  0  0  0  0  0  0  0  0  0
   -1.8978   -0.4486   -0.2716 H   0  0  0  0  0  0  0  0  0  0  0  0
    0.1693   -0.2866    0.0854 C   0  0  1  0  0  0  0  0  0  0  0  0
    0.9043   -0.8713   -0.4705 H   0  0  0  0  0  0  0  0  0  0  0  0
    0.0106    1.0816   -0.6124 C   0  0  0  0  0  0  0  0  0  0  0  0
   -1.0244    1.1889   -0.9417 H   0  0  0  0  0  0  0  0  0  0  0  0
    0.2127    1.8724    0.1134 H   0  0  0  0  0  0  0  0  0  0  0  0
    0.9120    1.2791   -1.8412 C   0  0  0  0  0  0  0  0  0  0  0  0
    1.0029    0.3461   -2.6736 O   0  5  0  0  0  0  0  0  0  0  0  0
    1.5233    2.3658   -1.9276 O   0  0  0  0  0  0  0  0  0  0  0  0
    0.6664   -0.1450    1.5428 C   0  0  0  0  0  0  0  0  0  0  0  0
    1.8485   -0.3724    1.8265 O   0  0  0  0  0  0  0  0  0  0  0  0
   -0.2161    0.2434    2.4686 N   0  0  0  0  0  0  0  0  0  0  0  0
   -1.1850    0.3219    2.1537 H   0  0  0  0  0  0  0  0  0  0  0  0
    0.0735    0.4128    3.8885 C   0  0  0  0  0  0  0  0  0  0  0  0
    1.0159    0.9483    4.0105 H   0  0  0  0  0  0  0  0  0  0  0  0
   -0.7315    0.9748    4.3613 H   0  0  0  0  0  0  0  0  0  0  0  0
    0.1564   -0.5677    4.3577 H   0  0  0  0  0  0  0  0  0  0  0  0
  5  6  2  0  0  0  0
  5  7  1  0  0  0  0
  2  3  1  0  0  0  0
  2  4  1  0  0  0  0
  2  5  1  0  0  0  0
  1  2  1  0  0  0  0
 17 18  2  0  0  0  0
 17 19  1  0  0  0  0
 14 15  1  0  0  0  0
 14 16  2  0  0  0  0
 11 12  1  0  0  0  0
 11 13  1  0  0  0  0
 11 14  1  0  0  0  0
  9 10  1  0  0  0  0
  9 11  1  0  0  0  0
  9 17  1  0  0  0  0
  7  8  1  0  0  0  0
  7  9  1  0  0  0  0
 21 22  1  0  0  0  0
 21 23  1  0  0  0  0
 21 24  1  0  0  0  0
 19 20  1  0  0  0  0
 19 21  1  0  0  0  0
M  CHG  1  15  -1
M  END
$$$$
default_name
  -OEChem-02102213163D

 24 23  0     1  0  0  0  0  0999 V2000
   -2.8347   -3.7166    0.8034 H   0  0  0  0  0  0  0  0  0  0  0  0
   -2.7728   -2.7096    0.3954 C   0  0  0  0  0  0  0  0  0  0  0  0
   -3.4267   -2.0426    0.9524 H   0  0  0  0  0  0  0  0  0  0  0  0
   -3.0538   -2.7186   -0.6556 H   0  0  0  0  0  0  0  0  0  0  0  0
   -1.3498   -2.2206    0.5184 C   0  0  0  0  0  0  0  0  0  0  0  0
   -0.4997   -2.9426    1.0194 O   0  0  0  0  0  0  0  0  0  0  0  0
   -1.1198   -0.9926    0.0674 N   0  0  0  0  0  0  0  0  0  0  0  0
   -1.8978   -0.4486   -0.2716 H   0  0  0  0  0  0  0  0  0  0  0  0
    0.1693   -0.2866    0.0854 C   0  0  1  0  0  0  0  0  0  0  0  0
    0.9043   -0.8713   -0.4705 H   0  0  0  0  0  0  0  0  0  0  0  0
    0.0106    1.0816   -0.6124 C   0  0  0  0  0  0  0  0  0  0  0  0
   -1.0244    1.1889   -0.9417 H   0  0  0  0  0  0  0  0  0  0  0  0
    0.2127    1.8724    0.1134 H   0  0  0  0  0  0  0  0  0  0  0  0
    0.9120    1.2791   -1.8412 C   0  0  0  0  0  0  0  0  0  0  0  0
    0.7910    0.4881   -2.8062 O   0  5  0  0  0  0  0  0  0  0  0  0
    1.7358    2.2179   -1.7955 O   0  0  0  0  0  0  0  0  0  0  0  0
    0.6664   -0.1450    1.5428 C   0  0  0  0  0  0  0  0  0  0  0  0
    1.8485   -0.3724    1.8265 O   0  0  0  0  0  0  0  0  0  0  0  0
   -0.2161    0.2434    2.4686 N   0  0  0  0  0  0  0  0  0  0  0  0
   -1.1850    0.3219    2.1537 H   0  0  0  0  0  0  0  0  0  0  0  0
    0.0735    0.4128    3.8885 C   0  0  0  0  0  0  0  0  0  0  0  0
    1.0159    0.9483    4.0105 H   0  0  0  0  0  0  0  0  0  0  0  0
   -0.7315    0.9748    4.3613 H   0  0  0  0  0  0  0  0  0  0  0  0
    0.1564   -0.5677    4.3577 H   0  0  0  0  0  0  0  0  0  0  0  0
  5  6  2  0  0  0  0
  5  7  1  0  0  0  0
  2  3  1  0  0  0  0
  2  4  1  0  0  0  0
  2  5  1  0  0  0  0
  1  2  1  0  0  0  0
 17 18  2  0  0  0  0
 17 19  1  0  0  0  0
 14 15  1  0  0  0  0
 14 16  2  0  0  0  0
 11 12  1  0  0  0  0
 11 13  1  0  0  0  0
 11 14  1  0  0  0  0
  9 10  1  0  0  0  0
  9 11  1  0  0  0  0
  9 17  1  0  0  0  0
  7  8  1  0  0  0  0
  7  9  1  0  0  0  0
 21 22  1  0  0  0  0
 21 23  1  0  0  0  0
 21 24  1  0  0  0  0
 19 20  1  0  0  0  0
 19 21  1  0  0  0  0
M  CHG  1  15  -1
M  END
$$$$
default_name
  -OEChem-02102213163D

 24 23  0     1  0  0  0  0  0999 V2000
   -2.8347   -3.7166    0.8034 H   0  0  0  0  0  0  0  0  0  0  0  0
   -2.7728   -2.7096    0.3954 C   0  0  0  0  0  0  0  0  0  0  0  0
   -3.4267   -2.0426    0.9524 H   0  0  0  0  0  0  0  0  0  0  0  0
   -3.0538   -2.7186   -0.6556 H   0  0  0  0  0  0  0  0  0  0  0  0
   -1.3498   -2.2206    0.5184 C   0  0  0  0  0  0  0  0  0  0  0  0
   -0.4997   -2.9426    1.0194 O   0  0  0  0  0  0  0  0  0  0  0  0
   -1.1198   -0.9926    0.0674 N   0  0  0  0  0  0  0  0  0  0  0  0
   -1.8978   -0.4486   -0.2716 H   0  0  0  0  0  0  0  0  0  0  0  0
    0.1693   -0.2866    0.0854 C   0  0  1  0  0  0  0  0  0  0  0  0
    0.9043   -0.8713   -0.4705 H   0  0  0  0  0  0  0  0  0  0  0  0
    0.0106    1.0816   -0.6124 C   0  0  0  0  0  0  0  0  0  0  0  0
   -1.0244    1.1889   -0.9417 H   0  0  0  0  0  0  0  0  0  0  0  0
    0.2127    1.8724    0.1134 H   0  0  0  0  0  0  0  0  0  0  0  0
    0.9120    1.2791   -1.8412 C   0  0  0  0  0  0  0  0  0  0  0  0
    0.6113    0.6892   -2.9057 O   0  5  0  0  0  0  0  0  0  0  0  0
    1.9149    2.0109   -1.6973 O   0  0  0  0  0  0  0  0  0  0  0  0
    0.6664   -0.1450    1.5428 C   0  0  0  0  0  0  0  0  0  0  0  0
    1.8485   -0.3724    1.8265 O   0  0  0  0  0  0  0  0  0  0  0  0
   -0.2161    0.2434    2.4686 N   0  0  0  0  0  0  0  0  0  0  0  0
   -1.1850    0.3219    2.1537 H   0  0  0  0  0  0  0  0  0  0  0  0
    0.0735    0.4128    3.8885 C   0  0  0  0  0  0  0  0  0  0  0  0
    1.0159    0.9483    4.0105 H   0  0  0  0  0  0  0  0  0  0  0  0
   -0.7315    0.9748    4.3613 H   0  0  0  0  0  0  0  0  0  0  0  0
    0.1564   -0.5677    4.3577 H   0  0  0  0  0  0  0  0  0  0  0  0
  5  6  2  0  0  0  0
  5  7  1  0  0  0  0
  2  3  1  0  0  0  0
  2  4  1  0  0  0  0
  2  5  1  0  0  0  0
  1  2  1  0  0  0  0
 17 18  2  0  0  0  0
 17 19  1  0  0  0  0
 14 15  1  0  0  0  0
 14 16  2  0  0  0  0
 11 12  1  0  0  0  0
 11 13  1  0  0  0  0
 11 14  1  0  0  0  0
  9 10  1  0  0  0  0
  9 11  1  0  0  0  0
  9 17  1  0  0  0  0
  7  8  1  0  0  0  0
  7  9  1  0  0  0  0
 21 22  1  0  0  0  0
 21 23  1  0  0  0  0
 21 24  1  0  0  0  0
 19 20  1  0  0  0  0
 19 21  1  0  0  0  0
M  CHG  1  15  -1
M  END
$$$$
default_name
  -OEChem-02102213163D

 24 23  0     1  0  0  0  0  0999 V2000
   -2.8347   -3.7166    0.8034 H   0  0  0  0  0  0  0  0  0  0  0  0
   -2.7728   -2.7096    0.3954 C   0  0  0  0  0  0  0  0  0  0  0  0
   -3.4267   -2.0426    0.9524 H   0  0  0  0  0  0  0  0  0  0  0  0
   -3.0538   -2.7186   -0.6556 H   0  0  0  0  0  0  0  0  0  0  0  0
   -1.3498   -2.2206    0.5184 C   0  0  0  0  0  0  0  0  0  0  0  0
   -0.4997   -2.9426    1.0194 O   0  0  0  0  0  0  0  0  0  0  0  0
   -1.1198   -0.9926    0.0674 N   0  0  0  0  0  0  0  0  0  0  0  0
   -1.8978   -0.4486   -0.2716 H   0  0  0  0  0  0  0  0  0  0  0  0
    0.1693   -0.2866    0.0854 C   0  0  1  0  0  0  0  0  0  0  0  0
    0.9043   -0.8713   -0.4705 H   0  0  0  0  0  0  0  0  0  0  0  0
    0.0106    1.0816   -0.6124 C   0  0  0  0  0  0  0  0  0  0  0  0
   -1.0244    1.1889   -0.9417 H   0  0  0  0  0  0  0  0  0  0  0  0
    0.2127    1.8724    0.1134 H   0  0  0  0  0  0  0  0  0  0  0  0
    0.9120    1.2791   -1.8412 C   0  0  0  0  0  0  0  0  0  0  0  0
    0.4760    0.9357   -2.9653 O   0  5  0  0  0  0  0  0  0  0  0  0
    2.0483    1.7591   -1.6400 O   0  0  0  0  0  0  0  0  0  0  0  0
    0.6664   -0.1450    1.5428 C   0  0  0  0  0  0  0  0  0  0  0  0
    1.8485   -0.3724    1.8265 O   0  0  0  0  0  0  0  0  0  0  0  0
   -0.2161    0.2434    2.4686 N   0  0  0  0  0  0  0  0  0  0  0  0
   -1.1850    0.3219    2.1537 H   0  0  0  0  0  0  0  0  0  0  0  0
    0.0735    0.4128    3.8885 C   0  0  0  0  0  0  0  0  0  0  0  0
    1.0159    0.9483    4.0105 H   0  0  0  0  0  0  0  0  0  0  0  0
   -0.7315    0.9748    4.3613 H   0  0  0  0  0  0  0  0  0  0  0  0
    0.1564   -0.5677    4.3577 H   0  0  0  0  0  0  0  0  0  0  0  0
  5  6  2  0  0  0  0
  5  7  1  0  0  0  0
  2  3  1  0  0  0  0
  2  4  1  0  0  0  0
  2  5  1  0  0  0  0
  1  2  1  0  0  0  0
 17 18  2  0  0  0  0
 17 19  1  0  0  0  0
 14 15  1  0  0  0  0
 14 16  2  0  0  0  0
 11 12  1  0  0  0  0
 11 13  1  0  0  0  0
 11 14  1  0  0  0  0
  9 10  1  0  0  0  0
  9 11  1  0  0  0  0
  9 17  1  0  0  0  0
  7  8  1  0  0  0  0
  7  9  1  0  0  0  0
 21 22  1  0  0  0  0
 21 23  1  0  0  0  0
 21 24  1  0  0  0  0
 19 20  1  0  0  0  0
 19 21  1  0  0  0  0
M  CHG  1  15  -1
M  END
$$$$
default_name
  -OEChem-02102213163D

 24 23  0     1  0  0  0  0  0999 V2000
   -2.8347   -3.7166    0.8034 H   0  0  0  0  0  0  0  0  0  0  0  0
   -2.7728   -2.7096    0.3954 C   0  0  0  0  0  0  0  0  0  0  0  0
   -3.4267   -2.0426    0.9524 H   0  0  0  0  0  0  0  0  0  0  0  0
   -3.0538   -2.7186   -0.6556 H   0  0  0  0  0  0  0  0  0  0  0  0
   -1.3498   -2.2206    0.5184 C   0  0  0  0  0  0  0  0  0  0  0  0
   -0.4997   -2.9426    1.0194 O   0  0  0  0  0  0  0  0  0  0  0  0
   -1.1198   -0.9926    0.0674 N   0  0  0  0  0  0  0  0  0  0  0  0
   -1.8978   -0.4486   -0.2716 H   0  0  0  0  0  0  0  0  0  0  0  0
    0.1693   -0.2866    0.0854 C   0  0  1  0  0  0  0  0  0  0  0  0
    0.9043   -0.8713   -0.4705 H   0  0  0  0  0  0  0  0  0  0  0  0
    0.0106    1.0816   -0.6124 C   0  0  0  0  0  0  0  0  0  0  0  0
   -1.0244    1.1889   -0.9417 H   0  0  0  0  0  0  0  0  0  0  0  0
    0.2127    1.8724    0.1134 H   0  0  0  0  0  0  0  0  0  0  0  0
    0.9120    1.2791   -1.8412 C   0  0  0  0  0  0  0  0  0  0  0  0
    0.3944    1.2109   -2.9810 O   0  5  0  0  0  0  0  0  0  0  0  0
    2.1270    1.4795   -1.6272 O   0  0  0  0  0  0  0  0  0  0  0  0
    0.6664   -0.1450    1.5428 C   0  0  0  0  0  0  0  0  0  0  0  0
    1.8485   -0.3724    1.8265 O   0  0  0  0  0  0  0  0  0  0  0  0
   -0.2161    0.2434    2.4686 N   0  0  0  0  0  0  0  0  0  0  0  0
   -1.1850    0.3219    2.1537 H   0  0  0  0  0  0  0  0  0  0  0  0
    0.0735    0.4128    3.8885 C   0  0  0  0  0  0  0  0  0  0  0  0
    1.0159    0.9483    4.0105 H   0  0  0  0  0  0  0  0  0  0  0  0
   -0.7315    0.9748    4.3613 H   0  0  0  0  0  0  0  0  0  0  0  0
    0.1564   -0.5677    4.3577 H   0  0  0  0  0  0  0  0  0  0  0  0
  5  6  2  0  0  0  0
  5  7  1  0  0  0  0
  2  3  1  0  0  0  0
  2  4  1  0  0  0  0
  2  5  1  0  0  0  0
  1  2  1  0  0  0  0
 17 18  2  0  0  0  0
 17 19  1  0  0  0  0
 14 15  1  0  0  0  0
 14 16  2  0  0  0  0
 11 12  1  0  0  0  0
 11 13  1  0  0  0  0
 11 14  1  0  0  0  0
  9 10  1  0  0  0  0
  9 11  1  0  0  0  0
  9 17  1  0  0  0  0
  7  8  1  0  0  0  0
  7  9  1  0  0  0  0
 21 22  1  0  0  0  0
 21 23  1  0  0  0  0
 21 24  1  0  0  0  0
 19 20  1  0  0  0  0
 19 21  1  0  0  0  0
M  CHG  1  15  -1
M  END
$$$$
default_name
  -OEChem-02102213163D

 24 23  0     1  0  0  0  0  0999 V2000
   -2.8347   -3.7166    0.8034 H   0  0  0  0  0  0  0  0  0  0  0  0
   -2.7728   -2.7096    0.3954 C   0  0  0  0  0  0  0  0  0  0  0  0
   -3.4267   -2.0426    0.9524 H   0  0  0  0  0  0  0  0  0  0  0  0
   -3.0538   -2.7186   -0.6556 H   0  0  0  0  0  0  0  0  0  0  0  0
   -1.3498   -2.2206    0.5184 C   0  0  0  0  0  0  0  0  0  0  0  0
   -0.4997   -2.9426    1.0194 O   0  0  0  0  0  0  0  0  0  0  0  0
   -1.1198   -0.9926    0.0674 N   0  0  0  0  0  0  0  0  0  0  0  0
   -1.8978   -0.4486   -0.2716 H   0  0  0  0  0  0  0  0  0  0  0  0
    0.1693   -0.2866    0.0854 C   0  0  1  0  0  0  0  0  0  0  0  0
    0.9043   -0.8713   -0.4705 H   0  0  0  0  0  0  0  0  0  0  0  0
    0.0106    1.0816   -0.6124 C   0  0  0  0  0  0  0  0  0  0  0  0
   -1.0244    1.1889   -0.9417 H   0  0  0  0  0  0  0  0  0  0  0  0
    0.2127    1.8724    0.1134 H   0  0  0  0  0  0  0  0  0  0  0  0
    0.9120    1.2791   -1.8412 C   0  0  0  0  0  0  0  0  0  0  0  0
    0.3720    1.4961   -2.9516 O   0  5  0  0  0  0  0  0  0  0  0  0
    2.1455    1.1912   -1.6599 O   0  0  0  0  0  0  0  0  0  0  0  0
    0.6664   -0.1450    1.5428 C   0  0  0  0  0  0  0  0  0  0  0  0
    1.8485   -0.3724    1.8265 O   0  0  0  0  0  0  0  0  0  0  0  0
   -0.2161    0.2434    2.4686 N   0  0  0  0  0  0  0  0  0  0  0  0
   -1.1850    0.3219    2.1537 H   0  0  0  0  0  0  0  0  0  0  0  0
    0.0735    0.4128    3.8885 C   0  0  0  0  0  0  0  0  0  0  0  0
    1.0159    0.9483    4.0105 H   0  0  0  0  0  0  0  0  0  0  0  0
   -0.7315    0.9748    4.3613 H   0  0  0  0  0  0  0  0  0  0  0  0
    0.1564   -0.5677    4.3577 H   0  0  0  0  0  0  0  0  0  0  0  0
  5  6  2  0  0  0  0
  5  7  1  0  0  0  0
  2  3  1  0  0  0  0
  2  4  1  0  0  0  0
  2  5  1  0  0  0  0
  1  2  1  0  0  0  0
 17 18  2  0  0  0  0
 17 19  1  0  0  0  0
 14 15  1  0  0  0  0
 14 16  2  0  0  0  0
 11 12  1  0  0  0  0
 11 13  1  0  0  0  0
 11 14  1  0  0  0  0
  9 10  1  0  0  0  0
  9 11  1  0  0  0  0
  9 17  1  0  0  0  0
  7  8  1  0  0  0  0
  7  9  1  0  0  0  0
 21 22  1  0  0  0  0
 21 23  1  0  0  0  0
 21 24  1  0  0  0  0
 19 20  1  0  0  0  0
 19 21  1  0  0  0  0
M  CHG  1  15  -1
M  END
$$$$
default_name
  -OEChem-02102213163D

 24 23  0     1  0  0  0  0  0999 V2000
   -2.8347   -3.7166    0.8034 H   0  0  0  0  0  0  0  0  0  0  0  0
   -2.7728   -2.7096    0.3954 C   0  0  0  0  0  0  0  0  0  0  0  0
   -3.4267   -2.0426    0.9524 H   0  0  0  0  0  0  0  0  0  0  0  0
   -3.0538   -2.7186   -0.6556 H   0  0  0  0  0  0  0  0  0  0  0  0
   -1.3498   -2.2206    0.5184 C   0  0  0  0  0  0  0  0  0  0  0  0
   -0.4997   -2.9426    1.0194 O   0  0  0  0  0  0  0  0  0  0  0  0
   -1.1198   -0.9926    0.0674 N   0  0  0  0  0  0  0  0  0  0  0  0
   -1.8978   -0.4486   -0.2716 H   0  0  0  0  0  0  0  0  0  0  0  0
    0.1693   -0.2866    0.0854 C   0  0  1  0  0  0  0  0  0  0  0  0
    0.9043   -0.8713   -0.4705 H   0  0  0  0  0  0  0  0  0  0  0  0
    0.0106    1.0816   -0.6124 C   0  0  0  0  0  0  0  0  0  0  0  0
   -1.0244    1.1889   -0.9417 H   0  0  0  0  0  0  0  0  0  0  0  0
    0.2127    1.8724    0.1134 H   0  0  0  0  0  0  0  0  0  0  0  0
    0.9120    1.2791   -1.8412 C   0  0  0  0  0  0  0  0  0  0  0  0
    0.4103    1.7716   -2.8792 O   0  5  0  0  0  0  0  0  0  0  0  0
    2.1026    0.9138   -1.7359 O   0  0  0  0  0  0  0  0  0  0  0  0
    0.6664   -0.1450    1.5428 C   0  0  0  0  0  0  0  0  0  0  0  0
    1.8485   -0.3724    1.8265 O   0  0  0  0  0  0  0  0  0  0  0  0
   -0.2161    0.2434    2.4686 N   0  0  0  0  0  0  0  0  0  0  0  0
   -1.1850    0.3219    2.1537 H   0  0  0  0  0  0  0  0  0  0  0  0
    0.0735    0.4128    3.8885 C   0  0  0  0  0  0  0  0  0  0  0  0
    1.0159    0.9483    4.0105 H   0  0  0  0  0  0  0  0  0  0  0  0
   -0.7315    0.9748    4.3613 H   0  0  0  0  0  0  0  0  0  0  0  0
    0.1564   -0.5677    4.3577 H   0  0  0  0  0  0  0  0  0  0  0  0
  5  6  2  0  0  0  0
  5  7  1  0  0  0  0
  2  3  1  0  0  0  0
  2  4  1  0  0  0  0
  2  5  1  0  0  0  0
  1  2  1  0  0  0  0
 17 18  2  0  0  0  0
 17 19  1  0  0  0  0
 14 15  1  0  0  0  0
 14 16  2  0  0  0  0
 11 12  1  0  0  0  0
 11 13  1  0  0  0  0
 11 14  1  0  0  0  0
  9 10  1  0  0  0  0
  9 11  1  0  0  0  0
  9 17  1  0  0  0  0
  7  8  1  0  0  0  0
  7  9  1  0  0  0  0
 21 22  1  0  0  0  0
 21 23  1  0  0  0  0
 21 24  1  0  0  0  0
 19 20  1  0  0  0  0
 19 21  1  0  0  0  0
M  CHG  1  15  -1
M  END
$$$$
default_name
  -OEChem-02102213163D

 24 23  0     1  0  0  0  0  0999 V2000
   -2.8347   -3.7166    0.8034 H   0  0  0  0  0  0  0  0  0  0  0  0
   -2.7728   -2.7096    0.3954 C   0  0  0  0  0  0  0  0  0  0  0  0
   -3.4267   -2.0426    0.9524 H   0  0  0  0  0  0  0  0  0  0  0  0
   -3.0538   -2.7186   -0.6556 H   0  0  0  0  0  0  0  0  0  0  0  0
   -1.3498   -2.2206    0.5184 C   0  0  0  0  0  0  0  0  0  0  0  0
   -0.4997   -2.9426    1.0194 O   0  0  0  0  0  0  0  0  0  0  0  0
   -1.1198   -0.9926    0.0674 N   0  0  0  0  0  0  0  0  0  0  0  0
   -1.8978   -0.4486   -0.2716 H   0  0  0  0  0  0  0  0  0  0  0  0
    0.1693   -0.2866    0.0854 C   0  0  1  0  0  0  0  0  0  0  0  0
    0.9043   -0.8713   -0.4705 H   0  0  0  0  0  0  0  0  0  0  0  0
    0.0106    1.0816   -0.6124 C   0  0  0  0  0  0  0  0  0  0  0  0
   -1.0244    1.1889   -0.9417 H   0  0  0  0  0  0  0  0  0  0  0  0
    0.2127    1.8724    0.1134 H   0  0  0  0  0  0  0  0  0  0  0  0
    0.9120    1.2791   -1.8412 C   0  0  0  0  0  0  0  0  0  0  0  0
    0.5068    2.0189   -2.7687 O   0  5  0  0  0  0  0  0  0  0  0  0
    2.0013    0.6664   -1.8500 O   0  0  0  0  0  0  0  0  0  0  0  0
    0.6664   -0.1450    1.5428 C   0  0  0  0  0  0  0  0  0  0  0  0
    1.8485   -0.3724    1.8265 O   0  0  0  0  0  0  0  0  0  0  0  0
   -0.2161    0.2434    2.4686 N   0  0  0  0  0  0  0  0  0  0  0  0
   -1.1850    0.3219    2.1537 H   0  0  0  0  0  0  0  0  0  0  0  0
    0.0735    0.4128    3.8885 C   0  0  0  0  0  0  0  0  0  0  0  0
    1.0159    0.9483    4.0105 H   0  0  0  0  0  0  0  0  0  0  0  0
   -0.7315    0.9748    4.3613 H   0  0  0  0  0  0  0  0  0  0  0  0
    0.1564   -0.5677    4.3577 H   0  0  0  0  0  0  0  0  0  0  0  0
  5  6  2  0  0  0  0
  5  7  1  0  0  0  0
  2  3  1  0  0  0  0
  2  4  1  0  0  0  0
  2  5  1  0  0  0  0
  1  2  1  0  0  0  0
 17 18  2  0  0  0  0
 17 19  1  0  0  0  0
 14 15  1  0  0  0  0
 14 16  2  0  0  0  0
 11 12  1  0  0  0  0
 11 13  1  0  0  0  0
 11 14  1  0  0  0  0
  9 10  1  0  0  0  0
  9 11  1  0  0  0  0
  9 17  1  0  0  0  0
  7  8  1  0  0  0  0
  7  9  1  0  0  0  0
 21 22  1  0  0  0  0
 21 23  1  0  0  0  0
 21 24  1  0  0  0  0
 19 20  1  0  0  0  0
 19 21  1  0  0  0  0
M  CHG  1  15  -1
M  END
$$$$
default_name
  -OEChem-02102213163D

 24 23  0     1  0  0  0  0  0999 V2000
   -2.8347   -3.7166    0.8034 H   0  0  0  0  0  0  0  0  0  0  0  0
   -2.7728   -2.7096    0.3954 C   0  0  0  0  0  0  0  0  0  0  0  0
   -3.4267   -2.0426    0.9524 H   0  0  0  0  0  0  0  0  0  0  0  0
   -3.0538   -2.7186   -0.6556 H   0  0  0  0  0  0  0  0  0  0  0  0
   -1.3498   -2.2206    0.5184 C   0  0  0  0  0  0  0  0  0  0  0  0
   -0.4997   -2.9426    1.0194 O   0  0  0  0  0  0  0  0  0  0  0  0
   -1.1198   -0.9926    0.0674 N   0  0  0  0  0  0  0  0  0  0  0  0
   -1.8978   -0.4486   -0.2716 H   0  0  0  0  0  0  0  0  0  0  0  0
    0.1693   -0.2866    0.0854 C   0  0  1  0  0  0  0  0  0  0  0  0
    0.9043   -0.8713   -0.4705 H   0  0  0  0  0  0  0  0  0  0  0  0
    0.0106    1.0816   -0.6124 C   0  0  0  0  0  0  0  0  0  0  0  0
   -1.0244    1.1889   -0.9417 H   0  0  0  0  0  0  0  0  0  0  0  0
    0.2127    1.8724    0.1134 H   0  0  0  0  0  0  0  0  0  0  0  0
    0.9120    1.2791   -1.8412 C   0  0  0  0  0  0  0  0  0  0  0  0
    0.6549    2.2209   -2.6276 O   0  5  0  0  0  0  0  0  0  0  0  0
    1.8484    0.4656   -1.9944 O   0  0  0  0  0  0  0  0  0  0  0  0
    0.6664   -0.1450    1.5428 C   0  0  0  0  0  0  0  0  0  0  0  0
    1.8485   -0.3724    1.8265 O   0  0  0  0  0  0  0  0  0  0  0  0
   -0.2161    0.2434    2.4686 N   0  0  0  0  0  0  0  0  0  0  0  0
   -1.1850    0.3219    2.1537 H   0  0  0  0  0  0  0  0  0  0  0  0
    0.0735    0.4128    3.8885 C   0  0  0  0  0  0  0  0  0  0  0  0
    1.0159    0.9483    4.0105 H   0  0  0  0  0  0  0  0  0  0  0  0
   -0.7315    0.9748    4.3613 H   0  0  0  0  0  0  0  0  0  0  0  0
    0.1564   -0.5677    4.3577 H   0  0  0  0  0  0  0  0  0  0  0  0
  5  6  2  0  0  0  0
  5  7  1  0  0  0  0
  2  3  1  0  0  0  0
  2  4  1  0  0  0  0
  2  5  1  0  0  0  0
  1  2  1  0  0  0  0
 17 18  2  0  0  0  0
 17 19  1  0  0  0  0
 14 15  1  0  0  0  0
 14 16  2  0  0  0  0
 11 12  1  0  0  0  0
 11 13  1  0  0  0  0
 11 14  1  0  0  0  0
  9 10  1  0  0  0  0
  9 11  1  0  0  0  0
  9 17  1  0  0  0  0
  7  8  1  0  0  0  0
  7  9  1  0  0  0  0
 21 22  1  0  0  0  0
 21 23  1  0  0  0  0
 21 24  1  0  0  0  0
 19 20  1  0  0  0  0
 19 21  1  0  0  0  0
M  CHG  1  15  -1
M  END
$$$$
default_name
  -OEChem-02102213163D

 24 23  0     1  0  0  0  0  0999 V2000
   -2.8347   -3.7166    0.8034 H   0  0  0  0  0  0  0  0  0  0  0  0
   -2.7728   -2.7096    0.3954 C   0  0  0  0  0  0  0  0  0  0  0  0
   -3.4267   -2.0426    0.9524 H   0  0  0  0  0  0  0  0  0  0  0  0
   -3.0538   -2.7186   -0.6556 H   0  0  0  0  0  0  0  0  0  0  0  0
   -1.3498   -2.2206    0.5184 C   0  0  0  0  0  0  0  0  0  0  0  0
   -0.4997   -2.9426    1.0194 O   0  0  0  0  0  0  0  0  0  0  0  0
   -1.1198   -0.9926    0.0674 N   0  0  0  0  0  0  0  0  0  0  0  0
   -1.8978   -0.4486   -0.2716 H   0  0  0  0  0  0  0  0  0  0  0  0
    0.1693   -0.2866    0.0854 C   0  0  1  0  0  0  0  0  0  0  0  0
    0.9043   -0.8713   -0.4705 H   0  0  0  0  0  0  0  0  0  0  0  0
    0.0106    1.0816   -0.6124 C   0  0  0  0  0  0  0  0  0  0  0  0
   -1.0534    1.3082   -0.7014 H   0  0  0  0  0  0  0  0  0  0  0  0
    0.4636    1.8517    0.0158 H   0  0  0  0  0  0  0  0  0  0  0  0
    0.6203    1.1535   -2.0211 C   0  0  0  0  0  0  0  0  0  0  0  0
    0.5343    2.2306   -2.6569 O   0  5  0  0  0  0  0  0  0  0  0  0
    1.1556    0.1134   -2.4613 O   0  0  0  0  0  0  0  0  0  0  0  0
    0.6664   -0.1450    1.5428 C   0  0  0  0  0  0  0  0  0  0  0  0
    1.8485   -0.3724    1.8265 O   0  0  0  0  0  0  0  0  0  0  0  0
   -0.2161    0.2434    2.4686 N   0  0  0  0  0  0  0  0  0  0  0  0
   -1.1850    0.3219    2.1537 H   0  0  0  0  0  0  0  0  0  0  0  0
    0.0735    0.4128    3.8885 C   0  0  0  0  0  0  0  0  0  0  0  0
    1.0159    0.9483    4.0105 H   0  0  0  0  0  0  0  0  0  0  0  0
   -0.7315    0.9748    4.3613 H   0  0  0  0  0  0  0  0  0  0  0  0
    0.1564   -0.5677    4.3577 H   0  0  0  0  0  0  0  0  0  0  0  0
  5  6  2  0  0  0  0
  5  7  1  0  0  0  0
  2  3  1  0  0  0  0
  2  4  1  0  0  0  0
  2  5  1  0  0  0  0
  1  2  1  0  0  0  0
 17 18  2  0  0  0  0
 17 19  1  0  0  0  0
 14 15  1  0  0  0  0
 14 16  2  0  0  0  0
 11 12  1  0  0  0  0
 11 13  1  0  0  0  0
 11 14  1  0  0  0  0
  9 10  1  0  0  0  0
  9 11  1  0  0  0  0
  9 17  1  0  0  0  0
  7  8  1  0  0  0  0
  7  9  1  0  0  0  0
 21 22  1  0  0  0  0
 21 23  1  0  0  0  0
 21 24  1  0  0  0  0
 19 20  1  0  0  0  0
 19 21  1  0  0  0  0
M  CHG  1  15  -1
M  END
$$$$
default_name
  -OEChem-02102213163D

 24 23  0     1  0  0  0  0  0999 V2000
   -2.8347   -3.7166    0.8034 H   0  0  0  0  0  0  0  0  0  0  0  0
   -2.7728   -2.7096    0.3954 C   0  0  0  0  0  0  0  0  0  0  0  0
   -3.4267   -2.0426    0.9524 H   0  0  0  0  0  0  0  0  0  0  0  0
   -3.0538   -2.7186   -0.6556 H   0  0  0  0  0  0  0  0  0  0  0  0
   -1.3498   -2.2206    0.5184 C   0  0  0  0  0  0  0  0  0  0  0  0
   -0.4997   -2.9426    1.0194 O   0  0  0  0  0  0  0  0  0  0  0  0
   -1.1198   -0.9926    0.0674 N   0  0  0  0  0  0  0  0  0  0  0  0
   -1.8978   -0.4486   -0.2716 H   0  0  0  0  0  0  0  0  0  0  0  0
    0.1693   -0.2866    0.0854 C   0  0  1  0  0  0  0  0  0  0  0  0
    0.9043   -0.8713   -0.4705 H   0  0  0  0  0  0  0  0  0  0  0  0
    0.0106    1.0816   -0.6124 C   0  0  0  0  0  0  0  0  0  0  0  0
   -1.0534    1.3082   -0.7014 H   0  0  0  0  0  0  0  0  0  0  0  0
    0.4636    1.8517    0.0158 H   0  0  0  0  0  0  0  0  0  0  0  0
    0.6203    1.1535   -2.0211 C   0  0  0  0  0  0  0  0  0  0  0  0
    0.7932    2.2805   -2.5423 O   0  5  0  0  0  0  0  0  0  0  0  0
    0.8930    0.0679   -2.5774 O   0  0  0  0  0  0  0  0  0  0  0  0
    0.6664   -0.1450    1.5428 C   0  0  0  0  0  0  0  0  0  0  0  0
    1.8485   -0.3724    1.8265 O   0  0  0  0  0  0  0  0  0  0  0  0
   -0.2161    0.2434    2.4686 N   0  0  0  0  0  0  0  0  0  0  0  0
   -1.1850    0.3219    2.1537 H   0  0  0  0  0  0  0  0  0  0  0  0
    0.0735    0.4128    3.8885 C   0  0  0  0  0  0  0  0  0  0  0  0
    1.0159    0.9483    4.0105 H   0  0  0  0  0  0  0  0  0  0  0  0
   -0.7315    0.9748    4.3613 H   0  0  0  0  0  0  0  0  0  0  0  0
    0.1564   -0.5677    4.3577 H   0  0  0  0  0  0  0  0  0  0  0  0
  5  6  2  0  0  0  0
  5  7  1  0  0  0  0
  2  3  1  0  0  0  0
  2  4  1  0  0  0  0
  2  5  1  0  0  0  0
  1  2  1  0  0  0  0
 17 18  2  0  0  0  0
 17 19  1  0  0  0  0
 14 15  1  0  0  0  0
 14 16  2  0  0  0  0
 11 12  1  0  0  0  0
 11 13  1  0  0  0  0
 11 14  1  0  0  0  0
  9 10  1  0  0  0  0
  9 11  1  0  0  0  0
  9 17  1  0  0  0  0
  7  8  1  0  0  0  0
  7  9  1  0  0  0  0
 21 22  1  0  0  0  0
 21 23  1  0  0  0  0
 21 24  1  0  0  0  0
 19 20  1  0  0  0  0
 19 21  1  0  0  0  0
M  CHG  1  15  -1
M  END
$$$$
default_name
  -OEChem-02102213163D

 24 23  0     1  0  0  0  0  0999 V2000
   -2.8347   -3.7166    0.8034 H   0  0  0  0  0  0  0  0  0  0  0  0
   -2.7728   -2.7096    0.3954 C   0  0  0  0  0  0  0  0  0  0  0  0
   -3.4267   -2.0426    0.9524 H   0  0  0  0  0  0  0  0  0  0  0  0
   -3.0538   -2.7186   -0.6556 H   0  0  0  0  0  0  0  0  0  0  0  0
   -1.3498   -2.2206    0.5184 C   0  0  0  0  0  0  0  0  0  0  0  0
   -0.4997   -2.9426    1.0194 O   0  0  0  0  0  0  0  0  0  0  0  0
   -1.1198   -0.9926    0.0674 N   0  0  0  0  0  0  0  0  0  0  0  0
   -1.8978   -0.4486   -0.2716 H   0  0  0  0  0  0  0  0  0  0  0  0
    0.1693   -0.2866    0.0854 C   0  0  1  0  0  0  0  0  0  0  0  0
    0.9043   -0.8713   -0.4705 H   0  0  0  0  0  0  0  0  0  0  0  0
    0.0106    1.0816   -0.6124 C   0  0  0  0  0  0  0  0  0  0  0  0
   -1.0534    1.3082   -0.7014 H   0  0  0  0  0  0  0  0  0  0  0  0
    0.4636    1.8517    0.0158 H   0  0  0  0  0  0  0  0  0  0  0  0
    0.6203    1.1535   -2.0211 C   0  0  0  0  0  0  0  0  0  0  0  0
    1.0565    2.2556   -2.4296 O   0  5  0  0  0  0  0  0  0  0  0  0
    0.6270    0.0983   -2.6909 O   0  0  0  0  0  0  0  0  0  0  0  0
    0.6664   -0.1450    1.5428 C   0  0  0  0  0  0  0  0  0  0  0  0
    1.8485   -0.3724    1.8265 O   0  0  0  0  0  0  0  0  0  0  0  0
   -0.2161    0.2434    2.4686 N   0  0  0  0  0  0  0  0  0  0  0  0
   -1.1850    0.3219    2.1537 H   0  0  0  0  0  0  0  0  0  0  0  0
    0.0735    0.4128    3.8885 C   0  0  0  0  0  0  0  0  0  0  0  0
    1.0159    0.9483    4.0105 H   0  0  0  0  0  0  0  0  0  0  0  0
   -0.7315    0.9748    4.3613 H   0  0  0  0  0  0  0  0  0  0  0  0
    0.1564   -0.5677    4.3577 H   0  0  0  0  0  0  0  0  0  0  0  0
  5  6  2  0  0  0  0
  5  7  1  0  0  0  0
  2  3  1  0  0  0  0
  2  4  1  0  0  0  0
  2  5  1  0  0  0  0
  1  2  1  0  0  0  0
 17 18  2  0  0  0  0
 17 19  1  0  0  0  0
 14 15  1  0  0  0  0
 14 16  2  0  0  0  0
 11 12  1  0  0  0  0
 11 13  1  0  0  0  0
 11 14  1  0  0  0  0
  9 10  1  0  0  0  0
  9 11  1  0  0  0  0
  9 17  1  0  0  0  0
  7  8  1  0  0  0  0
  7  9  1  0  0  0  0
 21 22  1  0  0  0  0
 21 23  1  0  0  0  0
 21 24  1  0  0  0  0
 19 20  1  0  0  0  0
 19 21  1  0  0  0  0
M  CHG  1  15  -1
M  END
$$$$
default_name
  -OEChem-02102213163D

 24 23  0     1  0  0  0  0  0999 V2000
   -2.8347   -3.7166    0.8034 H   0  0  0  0  0  0  0  0  0  0  0  0
   -2.7728   -2.7096    0.3954 C   0  0  0  0  0  0  0  0  0  0  0  0
   -3.4267   -2.0426    0.9524 H   0  0  0  0  0  0  0  0  0  0  0  0
   -3.0538   -2.7186   -0.6556 H   0  0  0  0  0  0  0  0  0  0  0  0
   -1.3498   -2.2206    0.5184 C   0  0  0  0  0  0  0  0  0  0  0  0
   -0.4997   -2.9426    1.0194 O   0  0  0  0  0  0  0  0  0  0  0  0
   -1.1198   -0.9926    0.0674 N   0  0  0  0  0  0  0  0  0  0  0  0
   -1.8978   -0.4486   -0.2716 H   0  0  0  0  0  0  0  0  0  0  0  0
    0.1693   -0.2866    0.0854 C   0  0  1  0  0  0  0  0  0  0  0  0
    0.9043   -0.8713   -0.4705 H   0  0  0  0  0  0  0  0  0  0  0  0
    0.0106    1.0816   -0.6124 C   0  0  0  0  0  0  0  0  0  0  0  0
   -1.0534    1.3082   -0.7014 H   0  0  0  0  0  0  0  0  0  0  0  0
    0.4636    1.8517    0.0158 H   0  0  0  0  0  0  0  0  0  0  0  0
    0.6203    1.1535   -2.0211 C   0  0  0  0  0  0  0  0  0  0  0  0
    1.3063    2.1574   -2.3265 O   0  5  0  0  0  0  0  0  0  0  0  0
    0.3760    0.2023   -2.7943 O   0  0  0  0  0  0  0  0  0  0  0  0
    0.6664   -0.1450    1.5428 C   0  0  0  0  0  0  0  0  0  0  0  0
    1.8485   -0.3724    1.8265 O   0  0  0  0  0  0  0  0  0  0  0  0
   -0.2161    0.2434    2.4686 N   0  0  0  0  0  0  0  0  0  0  0  0
   -1.1850    0.3219    2.1537 H   0  0  0  0  0  0  0  0  0  0  0  0
    0.0735    0.4128    3.8885 C   0  0  0  0  0  0  0  0  0  0  0  0
    1.0159    0.9483    4.0105 H   0  0  0  0  0  0  0  0  0  0  0  0
   -0.7315    0.9748    4.3613 H   0  0  0  0  0  0  0  0  0  0  0  0
    0.1564   -0.5677    4.3577 H   0  0  0  0  0  0  0  0  0  0  0  0
  5  6  2  0  0  0  0
  5  7  1  0  0  0  0
  2  3  1  0  0  0  0
  2  4  1  0  0  0  0
  2  5  1  0  0  0  0
  1  2  1  0  0  0  0
 17 18  2  0  0  0  0
 17 19  1  0  0  0  0
 14 15  1  0  0  0  0
 14 16  2  0  0  0  0
 11 12  1  0  0  0  0
 11 13  1  0  0  0  0
 11 14  1  0  0  0  0
  9 10  1  0  0  0  0
  9 11  1  0  0  0  0
  9 17  1  0  0  0  0
  7  8  1  0  0  0  0
  7  9  1  0  0  0  0
 21 22  1  0  0  0  0
 21 23  1  0  0  0  0
 21 24  1  0  0  0  0
 19 20  1  0  0  0  0
 19 21  1  0  0  0  0
M  CHG  1  15  -1
M  END
$$$$
default_name
  -OEChem-02102213163D

 24 23  0     1  0  0  0  0  0999 V2000
   -2.8347   -3.7166    0.8034 H   0  0  0  0  0  0  0  0  0  0  0  0
   -2.7728   -2.7096    0.3954 C   0  0  0  0  0  0  0  0  0  0  0  0
   -3.4267   -2.0426    0.9524 H   0  0  0  0  0  0  0  0  0  0  0  0
   -3.0538   -2.7186   -0.6556 H   0  0  0  0  0  0  0  0  0  0  0  0
   -1.3498   -2.2206    0.5184 C   0  0  0  0  0  0  0  0  0  0  0  0
   -0.4997   -2.9426    1.0194 O   0  0  0  0  0  0  0  0  0  0  0  0
   -1.1198   -0.9926    0.0674 N   0  0  0  0  0  0  0  0  0  0  0  0
   -1.8978   -0.4486   -0.2716 H   0  0  0  0  0  0  0  0  0  0  0  0
    0.1693   -0.2866    0.0854 C   0  0  1  0  0  0  0  0  0  0  0  0
    0.9043   -0.8713   -0.4705 H   0  0  0  0  0  0  0  0  0  0  0  0
    0.0106    1.0816   -0.6124 C   0  0  0  0  0  0  0  0  0  0  0  0
   -1.0534    1.3082   -0.7014 H   0  0  0  0  0  0  0  0  0  0  0  0
    0.4636    1.8517    0.0158 H   0  0  0  0  0  0  0  0  0  0  0  0
    0.6203    1.1535   -2.0211 C   0  0  0  0  0  0  0  0  0  0  0  0
    1.5255    1.9928   -2.2400 O   0  5  0  0  0  0  0  0  0  0  0  0
    0.1570    0.3730   -2.8804 O   0  0  0  0  0  0  0  0  0  0  0  0
    0.6664   -0.1450    1.5428 C   0  0  0  0  0  0  0  0  0  0  0  0
    1.8485   -0.3724    1.8265 O   0  0  0  0  0  0  0  0  0  0  0  0
   -0.2161    0.2434    2.4686 N   0  0  0  0  0  0  0  0  0  0  0  0
   -1.1850    0.3219    2.1537 H   0  0  0  0  0  0  0  0  0  0  0  0
    0.0735    0.4128    3.8885 C   0  0  0  0  0  0  0  0  0  0  0  0
    1.0159    0.9483    4.0105 H   0  0  0  0  0  0  0  0  0  0  0  0
   -0.7315    0.9748    4.3613 H   0  0  0  0  0  0  0  0  0  0  0  0
    0.1564   -0.5677    4.3577 H   0  0  0  0  0  0  0  0  0  0  0  0
  5  6  2  0  0  0  0
  5  7  1  0  0  0  0
  2  3  1  0  0  0  0
  2  4  1  0  0  0  0
  2  5  1  0  0  0  0
  1  2  1  0  0  0  0
 17 18  2  0  0  0  0
 17 19  1  0  0  0  0
 14 15  1  0  0  0  0
 14 16  2  0  0  0  0
 11 12  1  0  0  0  0
 11 13  1  0  0  0  0
 11 14  1  0  0  0  0
  9 10  1  0  0  0  0
  9 11  1  0  0  0  0
  9 17  1  0  0  0  0
  7  8  1  0  0  0  0
  7  9  1  0  0  0  0
 21 22  1  0  0  0  0
 21 23  1  0  0  0  0
 21 24  1  0  0  0  0
 19 20  1  0  0  0  0
 19 21  1  0  0  0  0
M  CHG  1  15  -1
M  END
$$$$
default_name
  -OEChem-02102213163D

 24 23  0     1  0  0  0  0  0999 V2000
   -2.8347   -3.7166    0.8034 H   0  0  0  0  0  0  0  0  0  0  0  0
   -2.7728   -2.7096    0.3954 C   0  0  0  0  0  0  0  0  0  0  0  0
   -3.4267   -2.0426    0.9524 H   0  0  0  0  0  0  0  0  0  0  0  0
   -3.0538   -2.7186   -0.6556 H   0  0  0  0  0  0  0  0  0  0  0  0
   -1.3498   -2.2206    0.5184 C   0  0  0  0  0  0  0  0  0  0  0  0
   -0.4997   -2.9426    1.0194 O   0  0  0  0  0  0  0  0  0  0  0  0
   -1.1198   -0.9926    0.0674 N   0  0  0  0  0  0  0  0  0  0  0  0
   -1.8978   -0.4486   -0.2716 H   0  0  0  0  0  0  0  0  0  0  0  0
    0.1693   -0.2866    0.0854 C   0  0  1  0  0  0  0  0  0  0  0  0
    0.9043   -0.8713   -0.4705 H   0  0  0  0  0  0  0  0  0  0  0  0
    0.0106    1.0816   -0.6124 C   0  0  0  0  0  0  0  0  0  0  0  0
   -1.0534    1.3082   -0.7014 H   0  0  0  0  0  0  0  0  0  0  0  0
    0.4636    1.8517    0.0158 H   0  0  0  0  0  0  0  0  0  0  0  0
    0.6203    1.1535   -2.0211 C   0  0  0  0  0  0  0  0  0  0  0  0
    1.6992    1.7728   -2.1760 O   0  5  0  0  0  0  0  0  0  0  0  0
   -0.0152    0.5987   -2.9433 O   0  0  0  0  0  0  0  0  0  0  0  0
    0.6664   -0.1450    1.5428 C   0  0  0  0  0  0  0  0  0  0  0  0
    1.8485   -0.3724    1.8265 O   0  0  0  0  0  0  0  0  0  0  0  0
   -0.2161    0.2434    2.4686 N   0  0  0  0  0  0  0  0  0  0  0  0
   -1.1850    0.3219    2.1537 H   0  0  0  0  0  0  0  0  0  0  0  0
    0.0735    0.4128    3.8885 C   0  0  0  0  0  0  0  0  0  0  0  0
    1.0159    0.9483    4.0105 H   0  0  0  0  0  0  0  0  0  0  0  0
   -0.7315    0.9748    4.3613 H   0  0  0  0  0  0  0  0  0  0  0  0
    0.1564   -0.5677    4.3577 H   0  0  0  0  0  0  0  0  0  0  0  0
  5  6  2  0  0  0  0
  5  7  1  0  0  0  0
  2  3  1  0  0  0  0
  2  4  1  0  0  0  0
  2  5  1  0  0  0  0
  1  2  1  0  0  0  0
 17 18  2  0  0  0  0
 17 19  1  0  0  0  0
 14 15  1  0  0  0  0
 14 16  2  0  0  0  0
 11 12  1  0  0  0  0
 11 13  1  0  0  0  0
 11 14  1  0  0  0  0
  9 10  1  0  0  0  0
  9 11  1  0  0  0  0
  9 17  1  0  0  0  0
  7  8  1  0  0  0  0
  7  9  1  0  0  0  0
 21 22  1  0  0  0  0
 21 23  1  0  0  0  0
 21 24  1  0  0  0  0
 19 20  1  0  0  0  0
 19 21  1  0  0  0  0
M  CHG  1  15  -1
M  END
$$$$
default_name
  -OEChem-02102213163D

 24 23  0     1  0  0  0  0  0999 V2000
   -2.8347   -3.7166    0.8034 H   0  0  0  0  0  0  0  0  0  0  0  0
   -2.7728   -2.7096    0.3954 C   0  0  0  0  0  0  0  0  0  0  0  0
   -3.4267   -2.0426    0.9524 H   0  0  0  0  0  0  0  0  0  0  0  0
   -3.0538   -2.7186   -0.6556 H   0  0  0  0  0  0  0  0  0  0  0  0
   -1.3498   -2.2206    0.5184 C   0  0  0  0  0  0  0  0  0  0  0  0
   -0.4997   -2.9426    1.0194 O   0  0  0  0  0  0  0  0  0  0  0  0
   -1.1198   -0.9926    0.0674 N   0  0  0  0  0  0  0  0  0  0  0  0
   -1.8978   -0.4486   -0.2716 H   0  0  0  0  0  0  0  0  0  0  0  0
    0.1693   -0.2866    0.0854 C   0  0  1  0  0  0  0  0  0  0  0  0
    0.9043   -0.8713   -0.4705 H   0  0  0  0  0  0  0  0  0  0  0  0
    0.0106    1.0816   -0.6124 C   0  0  0  0  0  0  0  0  0  0  0  0
   -1.0534    1.3082   -0.7014 H   0  0  0  0  0  0  0  0  0  0  0  0
    0.4636    1.8517    0.0158 H   0  0  0  0  0  0  0  0  0  0  0  0
    0.6203    1.1535   -2.0211 C   0  0  0  0  0  0  0  0  0  0  0  0
    1.8156    1.5126   -2.1389 O   0  5  0  0  0  0  0  0  0  0  0  0
   -0.1287    0.8640   -2.9789 O   0  0  0  0  0  0  0  0  0  0  0  0
    0.6664   -0.1450    1.5428 C   0  0  0  0  0  0  0  0  0  0  0  0
    1.8485   -0.3724    1.8265 O   0  0  0  0  0  0  0  0  0  0  0  0
   -0.2161    0.2434    2.4686 N   0  0  0  0  0  0  0  0  0  0  0  0
   -1.1850    0.3219    2.1537 H   0  0  0  0  0  0  0  0  0  0  0  0
    0.0735    0.4128    3.8885 C   0  0  0  0  0  0  0  0  0  0  0  0
    1.0159    0.9483    4.0105 H   0  0  0  0  0  0  0  0  0  0  0  0
   -0.7315    0.9748    4.3613 H   0  0  0  0  0  0  0  0  0  0  0  0
    0.1564   -0.5677    4.3577 H   0  0  0  0  0  0  0  0  0  0  0  0
  5  6  2  0  0  0  0
  5  7  1  0  0  0  0
  2  3  1  0  0  0  0
  2  4  1  0  0  0  0
  2  5  1  0  0  0  0
  1  2  1  0  0  0  0
 17 18  2  0  0  0  0
 17 19  1  0  0  0  0
 14 15  1  0  0  0  0
 14 16  2  0  0  0  0
 11 12  1  0  0  0  0
 11 13  1  0  0  0  0
 11 14  1  0  0  0  0
  9 10  1  0  0  0  0
  9 11  1  0  0  0  0
  9 17  1  0  0  0  0
  7  8  1  0  0  0  0
  7  9  1  0  0  0  0
 21 22  1  0  0  0  0
 21 23  1  0  0  0  0
 21 24  1  0  0  0  0
 19 20  1  0  0  0  0
 19 21  1  0  0  0  0
M  CHG  1  15  -1
M  END
$$$$
default_name
  -OEChem-02102213163D

 24 23  0     1  0  0  0  0  0999 V2000
   -2.8347   -3.7166    0.8034 H   0  0  0  0  0  0  0  0  0  0  0  0
   -2.7728   -2.7096    0.3954 C   0  0  0  0  0  0  0  0  0  0  0  0
   -3.4267   -2.0426    0.9524 H   0  0  0  0  0  0  0  0  0  0  0  0
   -3.0538   -2.7186   -0.6556 H   0  0  0  0  0  0  0  0  0  0  0  0
   -1.3498   -2.2206    0.5184 C   0  0  0  0  0  0  0  0  0  0  0  0
   -0.4997   -2.9426    1.0194 O   0  0  0  0  0  0  0  0  0  0  0  0
   -1.1198   -0.9926    0.0674 N   0  0  0  0  0  0  0  0  0  0  0  0
   -1.8978   -0.4486   -0.2716 H   0  0  0  0  0  0  0  0  0  0  0  0
    0.1693   -0.2866    0.0854 C   0  0  1  0  0  0  0  0  0  0  0  0
    0.9043   -0.8713   -0.4705 H   0  0  0  0  0  0  0  0  0  0  0  0
    0.0106    1.0816   -0.6124 C   0  0  0  0  0  0  0  0  0  0  0  0
   -1.0534    1.3082   -0.7014 H   0  0  0  0  0  0  0  0  0  0  0  0
    0.4636    1.8517    0.0158 H   0  0  0  0  0  0  0  0  0  0  0  0
    0.6203    1.1535   -2.0211 C   0  0  0  0  0  0  0  0  0  0  0  0
    1.8668    1.2298   -2.1312 O   0  5  0  0  0  0  0  0  0  0  0  0
   -0.1758    1.1508   -2.9847 O   0  0  0  0  0  0  0  0  0  0  0  0
    0.6664   -0.1450    1.5428 C   0  0  0  0  0  0  0  0  0  0  0  0
    1.8485   -0.3724    1.8265 O   0  0  0  0  0  0  0  0  0  0  0  0
   -0.2161    0.2434    2.4686 N   0  0  0  0  0  0  0  0  0  0  0  0
   -1.1850    0.3219    2.1537 H   0  0  0  0  0  0  0  0  0  0  0  0
    0.0735    0.4128    3.8885 C   0  0  0  0  0  0  0  0  0  0  0  0
    1.0159    0.9483    4.0105 H   0  0  0  0  0  0  0  0  0  0  0  0
   -0.7315    0.9748    4.3613 H   0  0  0  0  0  0  0  0  0  0  0  0
    0.1564   -0.5677    4.3577 H   0  0  0  0  0  0  0  0  0  0  0  0
  5  6  2  0  0  0  0
  5  7  1  0  0  0  0
  2  3  1  0  0  0  0
  2  4  1  0  0  0  0
  2  5  1  0  0  0  0
  1  2  1  0  0  0  0
 17 18  2  0  0  0  0
 17 19  1  0  0  0  0
 14 15  1  0  0  0  0
 14 16  2  0  0  0  0
 11 12  1  0  0  0  0
 11 13  1  0  0  0  0
 11 14  1  0  0  0  0
  9 10  1  0  0  0  0
  9 11  1  0  0  0  0
  9 17  1  0  0  0  0
  7  8  1  0  0  0  0
  7  9  1  0  0  0  0
 21 22  1  0  0  0  0
 21 23  1  0  0  0  0
 21 24  1  0  0  0  0
 19 20  1  0  0  0  0
 19 21  1  0  0  0  0
M  CHG  1  15  -1
M  END
$$$$
default_name
  -OEChem-02102213163D

 24 23  0     1  0  0  0  0  0999 V2000
   -2.8347   -3.7166    0.8034 H   0  0  0  0  0  0  0  0  0  0  0  0
   -2.7728   -2.7096    0.3954 C   0  0  0  0  0  0  0  0  0  0  0  0
   -3.4267   -2.0426    0.9524 H   0  0  0  0  0  0  0  0  0  0  0  0
   -3.0538   -2.7186   -0.6556 H   0  0  0  0  0  0  0  0  0  0  0  0
   -1.3498   -2.2206    0.5184 C   0  0  0  0  0  0  0  0  0  0  0  0
   -0.4997   -2.9426    1.0194 O   0  0  0  0  0  0  0  0  0  0  0  0
   -1.1198   -0.9926    0.0674 N   0  0  0  0  0  0  0  0  0  0  0  0
   -1.8978   -0.4486   -0.2716 H   0  0  0  0  0  0  0  0  0  0  0  0
    0.1693   -0.2866    0.0854 C   0  0  1  0  0  0  0  0  0  0  0  0
    0.9043   -0.8713   -0.4705 H   0  0  0  0  0  0  0  0  0  0  0  0
    0.0106    1.0816   -0.6124 C   0  0  0  0  0  0  0  0  0  0  0  0
   -1.0534    1.3082   -0.7014 H   0  0  0  0  0  0  0  0  0  0  0  0
    0.4636    1.8517    0.0158 H   0  0  0  0  0  0  0  0  0  0  0  0
    0.6203    1.1535   -2.0211 C   0  0  0  0  0  0  0  0  0  0  0  0
    1.8492    0.9437   -2.1534 O   0  5  0  0  0  0  0  0  0  0  0  0
   -0.1533    1.4396   -2.9602 O   0  0  0  0  0  0  0  0  0  0  0  0
    0.6664   -0.1450    1.5428 C   0  0  0  0  0  0  0  0  0  0  0  0
    1.8485   -0.3724    1.8265 O   0  0  0  0  0  0  0  0  0  0  0  0
   -0.2161    0.2434    2.4686 N   0  0  0  0  0  0  0  0  0  0  0  0
   -1.1850    0.3219    2.1537 H   0  0  0  0  0  0  0  0  0  0  0  0
    0.0735    0.4128    3.8885 C   0  0  0  0  0  0  0  0  0  0  0  0
    1.0159    0.9483    4.0105 H   0  0  0  0  0  0  0  0  0  0  0  0
   -0.7315    0.9748    4.3613 H   0  0  0  0  0  0  0  0  0  0  0  0
    0.1564   -0.5677    4.3577 H   0  0  0  0  0  0  0  0  0  0  0  0
  5  6  2  0  0  0  0
  5  7  1  0  0  0  0
  2  3  1  0  0  0  0
  2  4  1  0  0  0  0
  2  5  1  0  0  0  0
  1  2  1  0  0  0  0
 17 18  2  0  0  0  0
 17 19  1  0  0  0  0
 14 15  1  0  0  0  0
 14 16  2  0  0  0  0
 11 12  1  0  0  0  0
 11 13  1  0  0  0  0
 11 14  1  0  0  0  0
  9 10  1  0  0  0  0
  9 11  1  0  0  0  0
  9 17  1  0  0  0  0
  7  8  1  0  0  0  0
  7  9  1  0  0  0  0
 21 22  1  0  0  0  0
 21 23  1  0  0  0  0
 21 24  1  0  0  0  0
 19 20  1  0  0  0  0
 19 21  1  0  0  0  0
M  CHG  1  15  -1
M  END
$$$$
default_name
  -OEChem-02102213163D

 24 23  0     1  0  0  0  0  0999 V2000
   -2.8347   -3.7166    0.8034 H   0  0  0  0  0  0  0  0  0  0  0  0
   -2.7728   -2.7096    0.3954 C   0  0  0  0  0  0  0  0  0  0  0  0
   -3.4267   -2.0426    0.9524 H   0  0  0  0  0  0  0  0  0  0  0  0
   -3.0538   -2.7186   -0.6556 H   0  0  0  0  0  0  0  0  0  0  0  0
   -1.3498   -2.2206    0.5184 C   0  0  0  0  0  0  0  0  0  0  0  0
   -0.4997   -2.9426    1.0194 O   0  0  0  0  0  0  0  0  0  0  0  0
   -1.1198   -0.9926    0.0674 N   0  0  0  0  0  0  0  0  0  0  0  0
   -1.8978   -0.4486   -0.2716 H   0  0  0  0  0  0  0  0  0  0  0  0
    0.1693   -0.2866    0.0854 C   0  0  1  0  0  0  0  0  0  0  0  0
    0.9043   -0.8713   -0.4705 H   0  0  0  0  0  0  0  0  0  0  0  0
    0.0106    1.0816   -0.6124 C   0  0  0  0  0  0  0  0  0  0  0  0
   -1.0534    1.3082   -0.7014 H   0  0  0  0  0  0  0  0  0  0  0  0
    0.4636    1.8517    0.0158 H   0  0  0  0  0  0  0  0  0  0  0  0
    0.6203    1.1535   -2.0211 C   0  0  0  0  0  0  0  0  0  0  0  0
    1.7640    0.6738   -2.2040 O   0  5  0  0  0  0  0  0  0  0  0  0
   -0.0627    1.7107   -2.9072 O   0  0  0  0  0  0  0  0  0  0  0  0
    0.6664   -0.1450    1.5428 C   0  0  0  0  0  0  0  0  0  0  0  0
    1.8485   -0.3724    1.8265 O   0  0  0  0  0  0  0  0  0  0  0  0
   -0.2161    0.2434    2.4686 N   0  0  0  0  0  0  0  0  0  0  0  0
   -1.1850    0.3219    2.1537 H   0  0  0  0  0  0  0  0  0  0  0  0
    0.0735    0.4128    3.8885 C   0  0  0  0  0  0  0  0  0  0  0  0
    1.0159    0.9483    4.0105 H   0  0  0  0  0  0  0  0  0  0  0  0
   -0.7315    0.9748    4.3613 H   0  0  0  0  0  0  0  0  0  0  0  0
    0.1564   -0.5677    4.3577 H   0  0  0  0  0  0  0  0  0  0  0  0
  5  6  2  0  0  0  0
  5  7  1  0  0  0  0
  2  3  1  0  0  0  0
  2  4  1  0  0  0  0
  2  5  1  0  0  0  0
  1  2  1  0  0  0  0
 17 18  2  0  0  0  0
 17 19  1  0  0  0  0
 14 15  1  0  0  0  0
 14 16  2  0  0  0  0
 11 12  1  0  0  0  0
 11 13  1  0  0  0  0
 11 14  1  0  0  0  0
  9 10  1  0  0  0  0
  9 11  1  0  0  0  0
  9 17  1  0  0  0  0
  7  8  1  0  0  0  0
  7  9  1  0  0  0  0
 21 22  1  0  0  0  0
 21 23  1  0  0  0  0
 21 24  1  0  0  0  0
 19 20  1  0  0  0  0
 19 21  1  0  0  0  0
M  CHG  1  15  -1
M  END
$$$$
default_name
  -OEChem-02102213163D

 24 23  0     1  0  0  0  0  0999 V2000
   -2.8347   -3.7166    0.8034 H   0  0  0  0  0  0  0  0  0  0  0  0
   -2.7728   -2.7096    0.3954 C   0  0  0  0  0  0  0  0  0  0  0  0
   -3.4267   -2.0426    0.9524 H   0  0  0  0  0  0  0  0  0  0  0  0
   -3.0538   -2.7186   -0.6556 H   0  0  0  0  0  0  0  0  0  0  0  0
   -1.3498   -2.2206    0.5184 C   0  0  0  0  0  0  0  0  0  0  0  0
   -0.4997   -2.9426    1.0194 O   0  0  0  0  0  0  0  0  0  0  0  0
   -1.1198   -0.9926    0.0674 N   0  0  0  0  0  0  0  0  0  0  0  0
   -1.8978   -0.4486   -0.2716 H   0  0  0  0  0  0  0  0  0  0  0  0
    0.1693   -0.2866    0.0854 C   0  0  1  0  0  0  0  0  0  0  0  0
    0.9043   -0.8713   -0.4705 H   0  0  0  0  0  0  0  0  0  0  0  0
    0.0106    1.0816   -0.6124 C   0  0  0  0  0  0  0  0  0  0  0  0
   -1.0534    1.3082   -0.7014 H   0  0  0  0  0  0  0  0  0  0  0  0
    0.4636    1.8517    0.0158 H   0  0  0  0  0  0  0  0  0  0  0  0
    0.6203    1.1535   -2.0211 C   0  0  0  0  0  0  0  0  0  0  0  0
    1.6171    0.4386   -2.2796 O   0  5  0  0  0  0  0  0  0  0  0  0
    0.0897    1.9457   -2.8292 O   0  0  0  0  0  0  0  0  0  0  0  0
    0.6664   -0.1450    1.5428 C   0  0  0  0  0  0  0  0  0  0  0  0
    1.8485   -0.3724    1.8265 O   0  0  0  0  0  0  0  0  0  0  0  0
   -0.2161    0.2434    2.4686 N   0  0  0  0  0  0  0  0  0  0  0  0
   -1.1850    0.3219    2.1537 H   0  0  0  0  0  0  0  0  0  0  0  0
    0.0735    0.4128    3.8885 C   0  0  0  0  0  0  0  0  0  0  0  0
    1.0159    0.9483    4.0105 H   0  0  0  0  0  0  0  0  0  0  0  0
   -0.7315    0.9748    4.3613 H   0  0  0  0  0  0  0  0  0  0  0  0
    0.1564   -0.5677    4.3577 H   0  0  0  0  0  0  0  0  0  0  0  0
  5  6  2  0  0  0  0
  5  7  1  0  0  0  0
  2  3  1  0  0  0  0
  2  4  1  0  0  0  0
  2  5  1  0  0  0  0
  1  2  1  0  0  0  0
 17 18  2  0  0  0  0
 17 19  1  0  0  0  0
 14 15  1  0  0  0  0
 14 16  2  0  0  0  0
 11 12  1  0  0  0  0
 11 13  1  0  0  0  0
 11 14  1  0  0  0  0
  9 10  1  0  0  0  0
  9 11  1  0  0  0  0
  9 17  1  0  0  0  0
  7  8  1  0  0  0  0
  7  9  1  0  0  0  0
 21 22  1  0  0  0  0
 21 23  1  0  0  0  0
 21 24  1  0  0  0  0
 19 20  1  0  0  0  0
 19 21  1  0  0  0  0
M  CHG  1  15  -1
M  END
$$$$
default_name
  -OEChem-02102213163D

 24 23  0     1  0  0  0  0  0999 V2000
   -2.8347   -3.7166    0.8034 H   0  0  0  0  0  0  0  0  0  0  0  0
   -2.7728   -2.7096    0.3954 C   0  0  0  0  0  0  0  0  0  0  0  0
   -3.4267   -2.0426    0.9524 H   0  0  0  0  0  0  0  0  0  0  0  0
   -3.0538   -2.7186   -0.6556 H   0  0  0  0  0  0  0  0  0  0  0  0
   -1.3498   -2.2206    0.5184 C   0  0  0  0  0  0  0  0  0  0  0  0
   -0.4997   -2.9426    1.0194 O   0  0  0  0  0  0  0  0  0  0  0  0
   -1.1198   -0.9926    0.0674 N   0  0  0  0  0  0  0  0  0  0  0  0
   -1.8978   -0.4486   -0.2716 H   0  0  0  0  0  0  0  0  0  0  0  0
    0.1693   -0.2866    0.0854 C   0  0  1  0  0  0  0  0  0  0  0  0
    0.9043   -0.8713   -0.4705 H   0  0  0  0  0  0  0  0  0  0  0  0
    0.0106    1.0816   -0.6124 C   0  0  0  0  0  0  0  0  0  0  0  0
   -1.0534    1.3082   -0.7014 H   0  0  0  0  0  0  0  0  0  0  0  0
    0.4636    1.8517    0.0158 H   0  0  0  0  0  0  0  0  0  0  0  0
    0.6203    1.1535   -2.0211 C   0  0  0  0  0  0  0  0  0  0  0  0
    1.4185    0.2539   -2.3750 O   0  5  0  0  0  0  0  0  0  0  0  0
    0.2936    2.1285   -2.7316 O   0  0  0  0  0  0  0  0  0  0  0  0
    0.6664   -0.1450    1.5428 C   0  0  0  0  0  0  0  0  0  0  0  0
    1.8485   -0.3724    1.8265 O   0  0  0  0  0  0  0  0  0  0  0  0
   -0.2161    0.2434    2.4686 N   0  0  0  0  0  0  0  0  0  0  0  0
   -1.1850    0.3219    2.1537 H   0  0  0  0  0  0  0  0  0  0  0  0
    0.0735    0.4128    3.8885 C   0  0  0  0  0  0  0  0  0  0  0  0
    1.0159    0.9483    4.0105 H   0  0  0  0  0  0  0  0  0  0  0  0
   -0.7315    0.9748    4.3613 H   0  0  0  0  0  0  0  0  0  0  0  0
    0.1564   -0.5677    4.3577 H   0  0  0  0  0  0  0  0  0  0  0  0
  5  6  2  0  0  0  0
  5  7  1  0  0  0  0
  2  3  1  0  0  0  0
  2  4  1  0  0  0  0
  2  5  1  0  0  0  0
  1  2  1  0  0  0  0
 17 18  2  0  0  0  0
 17 19  1  0  0  0  0
 14 15  1  0  0  0  0
 14 16  2  0  0  0  0
 11 12  1  0  0  0  0
 11 13  1  0  0  0  0
 11 14  1  0  0  0  0
  9 10  1  0  0  0  0
  9 11  1  0  0  0  0
  9 17  1  0  0  0  0
  7  8  1  0  0  0  0
  7  9  1  0  0  0  0
 21 22  1  0  0  0  0
 21 23  1  0  0  0  0
 21 24  1  0  0  0  0
 19 20  1  0  0  0  0
 19 21  1  0  0  0  0
M  CHG  1  15  -1
M  END
$$$$
default_name
  -OEChem-02102213163D

 24 23  0     1  0  0  0  0  0999 V2000
   -2.8347   -3.7166    0.8034 H   0  0  0  0  0  0  0  0  0  0  0  0
   -2.7728   -2.7096    0.3954 C   0  0  0  0  0  0  0  0  0  0  0  0
   -3.4267   -2.0426    0.9524 H   0  0  0  0  0  0  0  0  0  0  0  0
   -3.0538   -2.7186   -0.6556 H   0  0  0  0  0  0  0  0  0  0  0  0
   -1.3498   -2.2206    0.5184 C   0  0  0  0  0  0  0  0  0  0  0  0
   -0.4997   -2.9426    1.0194 O   0  0  0  0  0  0  0  0  0  0  0  0
   -1.1198   -0.9926    0.0674 N   0  0  0  0  0  0  0  0  0  0  0  0
   -1.8978   -0.4486   -0.2716 H   0  0  0  0  0  0  0  0  0  0  0  0
    0.1693   -0.2866    0.0854 C   0  0  1  0  0  0  0  0  0  0  0  0
    0.9043   -0.8713   -0.4705 H   0  0  0  0  0  0  0  0  0  0  0  0
    0.0106    1.0816   -0.6124 C   0  0  0  0  0  0  0  0  0  0  0  0
   -1.0534    1.3082   -0.7014 H   0  0  0  0  0  0  0  0  0  0  0  0
    0.4636    1.8517    0.0158 H   0  0  0  0  0  0  0  0  0  0  0  0
    0.6203    1.1535   -2.0211 C   0  0  0  0  0  0  0  0  0  0  0  0
    1.1817    0.1325   -2.4837 O   0  5  0  0  0  0  0  0  0  0  0  0
    0.5352    2.2467   -2.6211 O   0  0  0  0  0  0  0  0  0  0  0  0
    0.6664   -0.1450    1.5428 C   0  0  0  0  0  0  0  0  0  0  0  0
    1.8485   -0.3724    1.8265 O   0  0  0  0  0  0  0  0  0  0  0  0
   -0.2161    0.2434    2.4686 N   0  0  0  0  0  0  0  0  0  0  0  0
   -1.1850    0.3219    2.1537 H   0  0  0  0  0  0  0  0  0  0  0  0
    0.0735    0.4128    3.8885 C   0  0  0  0  0  0  0  0  0  0  0  0
    1.0159    0.9483    4.0105 H   0  0  0  0  0  0  0  0  0  0  0  0
   -0.7315    0.9748    4.3613 H   0  0  0  0  0  0  0  0  0  0  0  0
    0.1564   -0.5677    4.3577 H   0  0  0  0  0  0  0  0  0  0  0  0
  5  6  2  0  0  0  0
  5  7  1  0  0  0  0
  2  3  1  0  0  0  0
  2  4  1  0  0  0  0
  2  5  1  0  0  0  0
  1  2  1  0  0  0  0
 17 18  2  0  0  0  0
 17 19  1  0  0  0  0
 14 15  1  0  0  0  0
 14 16  2  0  0  0  0
 11 12  1  0  0  0  0
 11 13  1  0  0  0  0
 11 14  1  0  0  0  0
  9 10  1  0  0  0  0
  9 11  1  0  0  0  0
  9 17  1  0  0  0  0
  7  8  1  0  0  0  0
  7  9  1  0  0  0  0
 21 22  1  0  0  0  0
 21 23  1  0  0  0  0
 21 24  1  0  0  0  0
 19 20  1  0  0  0  0
 19 21  1  0  0  0  0
M  CHG  1  15  -1
M  END
$$$$
default_name
  -OEChem-02102213163D

 24 23  0     1  0  0  0  0  0999 V2000
   -2.8347   -3.7166    0.8034 H   0  0  0  0  0  0  0  0  0  0  0  0
   -2.7728   -2.7096    0.3954 C   0  0  0  0  0  0  0  0  0  0  0  0
   -3.4267   -2.0426    0.9524 H   0  0  0  0  0  0  0  0  0  0  0  0
   -3.0538   -2.7186   -0.6556 H   0  0  0  0  0  0  0  0  0  0  0  0
   -1.3498   -2.2206    0.5184 C   0  0  0  0  0  0  0  0  0  0  0  0
   -0.4997   -2.9426    1.0194 O   0  0  0  0  0  0  0  0  0  0  0  0
   -1.1198   -0.9926    0.0674 N   0  0  0  0  0  0  0  0  0  0  0  0
   -1.8978   -0.4486   -0.2716 H   0  0  0  0  0  0  0  0  0  0  0  0
    0.1693   -0.2866    0.0854 C   0  0  1  0  0  0  0  0  0  0  0  0
    0.9043   -0.8713   -0.4705 H   0  0  0  0  0  0  0  0  0  0  0  0
    0.0106    1.0816   -0.6124 C   0  0  0  0  0  0  0  0  0  0  0  0
   -1.0534    1.3082   -0.7014 H   0  0  0  0  0  0  0  0  0  0  0  0
    0.4636    1.8517    0.0158 H   0  0  0  0  0  0  0  0  0  0  0  0
    0.6203    1.1535   -2.0211 C   0  0  0  0  0  0  0  0  0  0  0  0
    0.9228    0.0825   -2.5983 O   0  5  0  0  0  0  0  0  0  0  0  0
    0.7978    2.2921   -2.5051 O   0  0  0  0  0  0  0  0  0  0  0  0
    0.6664   -0.1450    1.5428 C   0  0  0  0  0  0  0  0  0  0  0  0
    1.8485   -0.3724    1.8265 O   0  0  0  0  0  0  0  0  0  0  0  0
   -0.2161    0.2434    2.4686 N   0  0  0  0  0  0  0  0  0  0  0  0
   -1.1850    0.3219    2.1537 H   0  0  0  0  0  0  0  0  0  0  0  0
    0.0735    0.4128    3.8885 C   0  0  0  0  0  0  0  0  0  0  0  0
    1.0159    0.9483    4.0105 H   0  0  0  0  0  0  0  0  0  0  0  0
   -0.7315    0.9748    4.3613 H   0  0  0  0  0  0  0  0  0  0  0  0
    0.1564   -0.5677    4.3577 H   0  0  0  0  0  0  0  0  0  0  0  0
  5  6  2  0  0  0  0
  5  7  1  0  0  0  0
  2  3  1  0  0  0  0
  2  4  1  0  0  0  0
  2  5  1  0  0  0  0
  1  2  1  0  0  0  0
 17 18  2  0  0  0  0
 17 19  1  0  0  0  0
 14 15  1  0  0  0  0
 14 16  2  0  0  0  0
 11 12  1  0  0  0  0
 11 13  1  0  0  0  0
 11 14  1  0  0  0  0
  9 10  1  0  0  0  0
  9 11  1  0  0  0  0
  9 17  1  0  0  0  0
  7  8  1  0  0  0  0
  7  9  1  0  0  0  0
 21 22  1  0  0  0  0
 21 23  1  0  0  0  0
 21 24  1  0  0  0  0
 19 20  1  0  0  0  0
 19 21  1  0  0  0  0
M  CHG  1  15  -1
M  END
$$$$
default_name
  -OEChem-02102213163D

 24 23  0     1  0  0  0  0  0999 V2000
   -2.8347   -3.7166    0.8034 H   0  0  0  0  0  0  0  0  0  0  0  0
   -2.7728   -2.7096    0.3954 C   0  0  0  0  0  0  0  0  0  0  0  0
   -3.4267   -2.0426    0.9524 H   0  0  0  0  0  0  0  0  0  0  0  0
   -3.0538   -2.7186   -0.6556 H   0  0  0  0  0  0  0  0  0  0  0  0
   -1.3498   -2.2206    0.5184 C   0  0  0  0  0  0  0  0  0  0  0  0
   -0.4997   -2.9426    1.0194 O   0  0  0  0  0  0  0  0  0  0  0  0
   -1.1198   -0.9926    0.0674 N   0  0  0  0  0  0  0  0  0  0  0  0
   -1.8978   -0.4486   -0.2716 H   0  0  0  0  0  0  0  0  0  0  0  0
    0.1693   -0.2866    0.0854 C   0  0  1  0  0  0  0  0  0  0  0  0
    0.9043   -0.8713   -0.4705 H   0  0  0  0  0  0  0  0  0  0  0  0
    0.0106    1.0816   -0.6124 C   0  0  0  0  0  0  0  0  0  0  0  0
   -1.0534    1.3082   -0.7014 H   0  0  0  0  0  0  0  0  0  0  0  0
    0.4636    1.8517    0.0158 H   0  0  0  0  0  0  0  0  0  0  0  0
    0.6203    1.1535   -2.0211 C   0  0  0  0  0  0  0  0  0  0  0  0
    0.6595    0.1075   -2.7110 O   0  5  0  0  0  0  0  0  0  0  0  0
    1.0638    2.2618   -2.3915 O   0  0  0  0  0  0  0  0  0  0  0  0
    0.6664   -0.1450    1.5428 C   0  0  0  0  0  0  0  0  0  0  0  0
    1.8485   -0.3724    1.8265 O   0  0  0  0  0  0  0  0  0  0  0  0
   -0.2161    0.2434    2.4686 N   0  0  0  0  0  0  0  0  0  0  0  0
   -1.1850    0.3219    2.1537 H   0  0  0  0  0  0  0  0  0  0  0  0
    0.0735    0.4128    3.8885 C   0  0  0  0  0  0  0  0  0  0  0  0
    1.0159    0.9483    4.0105 H   0  0  0  0  0  0  0  0  0  0  0  0
   -0.7315    0.9748    4.3613 H   0  0  0  0  0  0  0  0  0  0  0  0
    0.1564   -0.5677    4.3577 H   0  0  0  0  0  0  0  0  0  0  0  0
  5  6  2  0  0  0  0
  5  7  1  0  0  0  0
  2  3  1  0  0  0  0
  2  4  1  0  0  0  0
  2  5  1  0  0  0  0
  1  2  1  0  0  0  0
 17 18  2  0  0  0  0
 17 19  1  0  0  0  0
 14 15  1  0  0  0  0
 14 16  2  0  0  0  0
 11 12  1  0  0  0  0
 11 13  1  0  0  0  0
 11 14  1  0  0  0  0
  9 10  1  0  0  0  0
  9 11  1  0  0  0  0
  9 17  1  0  0  0  0
  7  8  1  0  0  0  0
  7  9  1  0  0  0  0
 21 22  1  0  0  0  0
 21 23  1  0  0  0  0
 21 24  1  0  0  0  0
 19 20  1  0  0  0  0
 19 21  1  0  0  0  0
M  CHG  1  15  -1
M  END
$$$$
default_name
  -OEChem-02102213163D

 24 23  0     1  0  0  0  0  0999 V2000
   -2.8347   -3.7166    0.8034 H   0  0  0  0  0  0  0  0  0  0  0  0
   -2.7728   -2.7096    0.3954 C   0  0  0  0  0  0  0  0  0  0  0  0
   -3.4267   -2.0426    0.9524 H   0  0  0  0  0  0  0  0  0  0  0  0
   -3.0538   -2.7186   -0.6556 H   0  0  0  0  0  0  0  0  0  0  0  0
   -1.3498   -2.2206    0.5184 C   0  0  0  0  0  0  0  0  0  0  0  0
   -0.4997   -2.9426    1.0194 O   0  0  0  0  0  0  0  0  0  0  0  0
   -1.1198   -0.9926    0.0674 N   0  0  0  0  0  0  0  0  0  0  0  0
   -1.8978   -0.4486   -0.2716 H   0  0  0  0  0  0  0  0  0  0  0  0
    0.1693   -0.2866    0.0854 C   0  0  1  0  0  0  0  0  0  0  0  0
    0.9043   -0.8713   -0.4705 H   0  0  0  0  0  0  0  0  0  0  0  0
    0.0106    1.0816   -0.6124 C   0  0  0  0  0  0  0  0  0  0  0  0
   -1.0534    1.3082   -0.7014 H   0  0  0  0  0  0  0  0  0  0  0  0
    0.4636    1.8517    0.0158 H   0  0  0  0  0  0  0  0  0  0  0  0
    0.6203    1.1535   -2.0211 C   0  0  0  0  0  0  0  0  0  0  0  0
    0.4097    0.2056   -2.8141 O   0  5  0  0  0  0  0  0  0  0  0  0
    1.3148    2.1578   -2.2882 O   0  0  0  0  0  0  0  0  0  0  0  0
    0.6664   -0.1450    1.5428 C   0  0  0  0  0  0  0  0  0  0  0  0
    1.8485   -0.3724    1.8265 O   0  0  0  0  0  0  0  0  0  0  0  0
   -0.2161    0.2434    2.4686 N   0  0  0  0  0  0  0  0  0  0  0  0
   -1.1850    0.3219    2.1537 H   0  0  0  0  0  0  0  0  0  0  0  0
    0.0735    0.4128    3.8885 C   0  0  0  0  0  0  0  0  0  0  0  0
    1.0159    0.9483    4.0105 H   0  0  0  0  0  0  0  0  0  0  0  0
   -0.7315    0.9748    4.3613 H   0  0  0  0  0  0  0  0  0  0  0  0
    0.1564   -0.5677    4.3577 H   0  0  0  0  0  0  0  0  0  0  0  0
  5  6  2  0  0  0  0
  5  7  1  0  0  0  0
  2  3  1  0  0  0  0
  2  4  1  0  0  0  0
  2  5  1  0  0  0  0
  1  2  1  0  0  0  0
 17 18  2  0  0  0  0
 17 19  1  0  0  0  0
 14 15  1  0  0  0  0
 14 16  2  0  0  0  0
 11 12  1  0  0  0  0
 11 13  1  0  0  0  0
 11 14  1  0  0  0  0
  9 10  1  0  0  0  0
  9 11  1  0  0  0  0
  9 17  1  0  0  0  0
  7  8  1  0  0  0  0
  7  9  1  0  0  0  0
 21 22  1  0  0  0  0
 21 23  1  0  0  0  0
 21 24  1  0  0  0  0
 19 20  1  0  0  0  0
 19 21  1  0  0  0  0
M  CHG  1  15  -1
M  END
$$$$
default_name
  -OEChem-02102213163D

 24 23  0     1  0  0  0  0  0999 V2000
   -2.8347   -3.7166    0.8034 H   0  0  0  0  0  0  0  0  0  0  0  0
   -2.7728   -2.7096    0.3954 C   0  0  0  0  0  0  0  0  0  0  0  0
   -3.4267   -2.0426    0.9524 H   0  0  0  0  0  0  0  0  0  0  0  0
   -3.0538   -2.7186   -0.6556 H   0  0  0  0  0  0  0  0  0  0  0  0
   -1.3498   -2.2206    0.5184 C   0  0  0  0  0  0  0  0  0  0  0  0
   -0.4997   -2.9426    1.0194 O   0  0  0  0  0  0  0  0  0  0  0  0
   -1.1198   -0.9926    0.0674 N   0  0  0  0  0  0  0  0  0  0  0  0
   -1.8978   -0.4486   -0.2716 H   0  0  0  0  0  0  0  0  0  0  0  0
    0.1693   -0.2866    0.0854 C   0  0  1  0  0  0  0  0  0  0  0  0
    0.9043   -0.8713   -0.4705 H   0  0  0  0  0  0  0  0  0  0  0  0
    0.0106    1.0816   -0.6124 C   0  0  0  0  0  0  0  0  0  0  0  0
   -1.0534    1.3082   -0.7014 H   0  0  0  0  0  0  0  0  0  0  0  0
    0.4636    1.8517    0.0158 H   0  0  0  0  0  0  0  0  0  0  0  0
    0.6203    1.1535   -2.0211 C   0  0  0  0  0  0  0  0  0  0  0  0
    0.1905    0.3703   -2.9006 O   0  5  0  0  0  0  0  0  0  0  0  0
    1.5338    1.9871   -2.2021 O   0  0  0  0  0  0  0  0  0  0  0  0
    0.6664   -0.1450    1.5428 C   0  0  0  0  0  0  0  0  0  0  0  0
    1.8485   -0.3724    1.8265 O   0  0  0  0  0  0  0  0  0  0  0  0
   -0.2161    0.2434    2.4686 N   0  0  0  0  0  0  0  0  0  0  0  0
   -1.1850    0.3219    2.1537 H   0  0  0  0  0  0  0  0  0  0  0  0
    0.0735    0.4128    3.8885 C   0  0  0  0  0  0  0  0  0  0  0  0
    1.0159    0.9483    4.0105 H   0  0  0  0  0  0  0  0  0  0  0  0
   -0.7315    0.9748    4.3613 H   0  0  0  0  0  0  0  0  0  0  0  0
    0.1564   -0.5677    4.3577 H   0  0  0  0  0  0  0  0  0  0  0  0
  5  6  2  0  0  0  0
  5  7  1  0  0  0  0
  2  3  1  0  0  0  0
  2  4  1  0  0  0  0
  2  5  1  0  0  0  0
  1  2  1  0  0  0  0
 17 18  2  0  0  0  0
 17 19  1  0  0  0  0
 14 15  1  0  0  0  0
 14 16  2  0  0  0  0
 11 12  1  0  0  0  0
 11 13  1  0  0  0  0
 11 14  1  0  0  0  0
  9 10  1  0  0  0  0
  9 11  1  0  0  0  0
  9 17  1  0  0  0  0
  7  8  1  0  0  0  0
  7  9  1  0  0  0  0
 21 22  1  0  0  0  0
 21 23  1  0  0  0  0
 21 24  1  0  0  0  0
 19 20  1  0  0  0  0
 19 21  1  0  0  0  0
M  CHG  1  15  -1
M  END
$$$$
default_name
  -OEChem-02102213163D

 24 23  0     1  0  0  0  0  0999 V2000
   -2.8347   -3.7166    0.8034 H   0  0  0  0  0  0  0  0  0  0  0  0
   -2.7728   -2.7096    0.3954 C   0  0  0  0  0  0  0  0  0  0  0  0
   -3.4267   -2.0426    0.9524 H   0  0  0  0  0  0  0  0  0  0  0  0
   -3.0538   -2.7186   -0.6556 H   0  0  0  0  0  0  0  0  0  0  0  0
   -1.3498   -2.2206    0.5184 C   0  0  0  0  0  0  0  0  0  0  0  0
   -0.4997   -2.9426    1.0194 O   0  0  0  0  0  0  0  0  0  0  0  0
   -1.1198   -0.9926    0.0674 N   0  0  0  0  0  0  0  0  0  0  0  0
   -1.8978   -0.4486   -0.2716 H   0  0  0  0  0  0  0  0  0  0  0  0
    0.1693   -0.2866    0.0854 C   0  0  1  0  0  0  0  0  0  0  0  0
    0.9043   -0.8713   -0.4705 H   0  0  0  0  0  0  0  0  0  0  0  0
    0.0106    1.0816   -0.6124 C   0  0  0  0  0  0  0  0  0  0  0  0
   -1.0534    1.3082   -0.7014 H   0  0  0  0  0  0  0  0  0  0  0  0
    0.4636    1.8517    0.0158 H   0  0  0  0  0  0  0  0  0  0  0  0
    0.6203    1.1535   -2.0211 C   0  0  0  0  0  0  0  0  0  0  0  0
    0.0168    0.5902   -2.9646 O   0  5  0  0  0  0  0  0  0  0  0  0
    1.7060    1.7614   -2.1391 O   0  0  0  0  0  0  0  0  0  0  0  0
    0.6664   -0.1450    1.5428 C   0  0  0  0  0  0  0  0  0  0  0  0
    1.8485   -0.3724    1.8265 O   0  0  0  0  0  0  0  0  0  0  0  0
   -0.2161    0.2434    2.4686 N   0  0  0  0  0  0  0  0  0  0  0  0
   -1.1850    0.3219    2.1537 H   0  0  0  0  0  0  0  0  0  0  0  0
    0.0735    0.4128    3.8885 C   0  0  0  0  0  0  0  0  0  0  0  0
    1.0159    0.9483    4.0105 H   0  0  0  0  0  0  0  0  0  0  0  0
   -0.7315    0.9748    4.3613 H   0  0  0  0  0  0  0  0  0  0  0  0
    0.1564   -0.5677    4.3577 H   0  0  0  0  0  0  0  0  0  0  0  0
  5  6  2  0  0  0  0
  5  7  1  0  0  0  0
  2  3  1  0  0  0  0
  2  4  1  0  0  0  0
  2  5  1  0  0  0  0
  1  2  1  0  0  0  0
 17 18  2  0  0  0  0
 17 19  1  0  0  0  0
 14 15  1  0  0  0  0
 14 16  2  0  0  0  0
 11 12  1  0  0  0  0
 11 13  1  0  0  0  0
 11 14  1  0  0  0  0
  9 10  1  0  0  0  0
  9 11  1  0  0  0  0
  9 17  1  0  0  0  0
  7  8  1  0  0  0  0
  7  9  1  0  0  0  0
 21 22  1  0  0  0  0
 21 23  1  0  0  0  0
 21 24  1  0  0  0  0
 19 20  1  0  0  0  0
 19 21  1  0  0  0  0
M  CHG  1  15  -1
M  END
$$$$
default_name
  -OEChem-02102213163D

 24 23  0     1  0  0  0  0  0999 V2000
   -2.8347   -3.7166    0.8034 H   0  0  0  0  0  0  0  0  0  0  0  0
   -2.7728   -2.7096    0.3954 C   0  0  0  0  0  0  0  0  0  0  0  0
   -3.4267   -2.0426    0.9524 H   0  0  0  0  0  0  0  0  0  0  0  0
   -3.0538   -2.7186   -0.6556 H   0  0  0  0  0  0  0  0  0  0  0  0
   -1.3498   -2.2206    0.5184 C   0  0  0  0  0  0  0  0  0  0  0  0
   -0.4997   -2.9426    1.0194 O   0  0  0  0  0  0  0  0  0  0  0  0
   -1.1198   -0.9926    0.0674 N   0  0  0  0  0  0  0  0  0  0  0  0
   -1.8978   -0.4486   -0.2716 H   0  0  0  0  0  0  0  0  0  0  0  0
    0.1693   -0.2866    0.0854 C   0  0  1  0  0  0  0  0  0  0  0  0
    0.9043   -0.8713   -0.4705 H   0  0  0  0  0  0  0  0  0  0  0  0
    0.0106    1.0816   -0.6124 C   0  0  0  0  0  0  0  0  0  0  0  0
   -1.0534    1.3082   -0.7014 H   0  0  0  0  0  0  0  0  0  0  0  0
    0.4636    1.8517    0.0158 H   0  0  0  0  0  0  0  0  0  0  0  0
    0.6203    1.1535   -2.0211 C   0  0  0  0  0  0  0  0  0  0  0  0
   -0.0996    0.8504   -3.0017 O   0  5  0  0  0  0  0  0  0  0  0  0
    1.8195    1.4961   -2.1035 O   0  0  0  0  0  0  0  0  0  0  0  0
    0.6664   -0.1450    1.5428 C   0  0  0  0  0  0  0  0  0  0  0  0
    1.8485   -0.3724    1.8265 O   0  0  0  0  0  0  0  0  0  0  0  0
   -0.2161    0.2434    2.4686 N   0  0  0  0  0  0  0  0  0  0  0  0
   -1.1850    0.3219    2.1537 H   0  0  0  0  0  0  0  0  0  0  0  0
    0.0735    0.4128    3.8885 C   0  0  0  0  0  0  0  0  0  0  0  0
    1.0159    0.9483    4.0105 H   0  0  0  0  0  0  0  0  0  0  0  0
   -0.7315    0.9748    4.3613 H   0  0  0  0  0  0  0  0  0  0  0  0
    0.1564   -0.5677    4.3577 H   0  0  0  0  0  0  0  0  0  0  0  0
  5  6  2  0  0  0  0
  5  7  1  0  0  0  0
  2  3  1  0  0  0  0
  2  4  1  0  0  0  0
  2  5  1  0  0  0  0
  1  2  1  0  0  0  0
 17 18  2  0  0  0  0
 17 19  1  0  0  0  0
 14 15  1  0  0  0  0
 14 16  2  0  0  0  0
 11 12  1  0  0  0  0
 11 13  1  0  0  0  0
 11 14  1  0  0  0  0
  9 10  1  0  0  0  0
  9 11  1  0  0  0  0
  9 17  1  0  0  0  0
  7  8  1  0  0  0  0
  7  9  1  0  0  0  0
 21 22  1  0  0  0  0
 21 23  1  0  0  0  0
 21 24  1  0  0  0  0
 19 20  1  0  0  0  0
 19 21  1  0  0  0  0
M  CHG  1  15  -1
M  END
$$$$
default_name
  -OEChem-02102213163D

 24 23  0     1  0  0  0  0  0999 V2000
   -2.8347   -3.7166    0.8034 H   0  0  0  0  0  0  0  0  0  0  0  0
   -2.7728   -2.7096    0.3954 C   0  0  0  0  0  0  0  0  0  0  0  0
   -3.4267   -2.0426    0.9524 H   0  0  0  0  0  0  0  0  0  0  0  0
   -3.0538   -2.7186   -0.6556 H   0  0  0  0  0  0  0  0  0  0  0  0
   -1.3498   -2.2206    0.5184 C   0  0  0  0  0  0  0  0  0  0  0  0
   -0.4997   -2.9426    1.0194 O   0  0  0  0  0  0  0  0  0  0  0  0
   -1.1198   -0.9926    0.0674 N   0  0  0  0  0  0  0  0  0  0  0  0
   -1.8978   -0.4486   -0.2716 H   0  0  0  0  0  0  0  0  0  0  0  0
    0.1693   -0.2866    0.0854 C   0  0  1  0  0  0  0  0  0  0  0  0
    0.9043   -0.8713   -0.4705 H   0  0  0  0  0  0  0  0  0  0  0  0
    0.0106    1.0816   -0.6124 C   0  0  0  0  0  0  0  0  0  0  0  0
   -1.0534    1.3082   -0.7014 H   0  0  0  0  0  0  0  0  0  0  0  0
    0.4636    1.8517    0.0158 H   0  0  0  0  0  0  0  0  0  0  0  0
    0.6203    1.1535   -2.0211 C   0  0  0  0  0  0  0  0  0  0  0  0
   -0.1508    1.1332   -3.0094 O   0  5  0  0  0  0  0  0  0  0  0  0
    1.8666    1.2093   -2.0977 O   0  0  0  0  0  0  0  0  0  0  0  0
    0.6664   -0.1450    1.5428 C   0  0  0  0  0  0  0  0  0  0  0  0
    1.8485   -0.3724    1.8265 O   0  0  0  0  0  0  0  0  0  0  0  0
   -0.2161    0.2434    2.4686 N   0  0  0  0  0  0  0  0  0  0  0  0
   -1.1850    0.3219    2.1537 H   0  0  0  0  0  0  0  0  0  0  0  0
    0.0735    0.4128    3.8885 C   0  0  0  0  0  0  0  0  0  0  0  0
    1.0159    0.9483    4.0105 H   0  0  0  0  0  0  0  0  0  0  0  0
   -0.7315    0.9748    4.3613 H   0  0  0  0  0  0  0  0  0  0  0  0
    0.1564   -0.5677    4.3577 H   0  0  0  0  0  0  0  0  0  0  0  0
  5  6  2  0  0  0  0
  5  7  1  0  0  0  0
  2  3  1  0  0  0  0
  2  4  1  0  0  0  0
  2  5  1  0  0  0  0
  1  2  1  0  0  0  0
 17 18  2  0  0  0  0
 17 19  1  0  0  0  0
 14 15  1  0  0  0  0
 14 16  2  0  0  0  0
 11 12  1  0  0  0  0
 11 13  1  0  0  0  0
 11 14  1  0  0  0  0
  9 10  1  0  0  0  0
  9 11  1  0  0  0  0
  9 17  1  0  0  0  0
  7  8  1  0  0  0  0
  7  9  1  0  0  0  0
 21 22  1  0  0  0  0
 21 23  1  0  0  0  0
 21 24  1  0  0  0  0
 19 20  1  0  0  0  0
 19 21  1  0  0  0  0
M  CHG  1  15  -1
M  END
$$$$
default_name
  -OEChem-02102213163D

 24 23  0     1  0  0  0  0  0999 V2000
   -2.8347   -3.7166    0.8034 H   0  0  0  0  0  0  0  0  0  0  0  0
   -2.7728   -2.7096    0.3954 C   0  0  0  0  0  0  0  0  0  0  0  0
   -3.4267   -2.0426    0.9524 H   0  0  0  0  0  0  0  0  0  0  0  0
   -3.0538   -2.7186   -0.6556 H   0  0  0  0  0  0  0  0  0  0  0  0
   -1.3498   -2.2206    0.5184 C   0  0  0  0  0  0  0  0  0  0  0  0
   -0.4997   -2.9426    1.0194 O   0  0  0  0  0  0  0  0  0  0  0  0
   -1.1198   -0.9926    0.0674 N   0  0  0  0  0  0  0  0  0  0  0  0
   -1.8978   -0.4486   -0.2716 H   0  0  0  0  0  0  0  0  0  0  0  0
    0.1693   -0.2866    0.0854 C   0  0  1  0  0  0  0  0  0  0  0  0
    0.9043   -0.8713   -0.4705 H   0  0  0  0  0  0  0  0  0  0  0  0
    0.0106    1.0816   -0.6124 C   0  0  0  0  0  0  0  0  0  0  0  0
   -1.0534    1.3082   -0.7014 H   0  0  0  0  0  0  0  0  0  0  0  0
    0.4636    1.8517    0.0158 H   0  0  0  0  0  0  0  0  0  0  0  0
    0.6203    1.1535   -2.0211 C   0  0  0  0  0  0  0  0  0  0  0  0
   -0.1332    1.4193   -2.9872 O   0  5  0  0  0  0  0  0  0  0  0  0
    1.8441    0.9205   -2.1222 O   0  0  0  0  0  0  0  0  0  0  0  0
    0.6664   -0.1450    1.5428 C   0  0  0  0  0  0  0  0  0  0  0  0
    1.8485   -0.3724    1.8265 O   0  0  0  0  0  0  0  0  0  0  0  0
   -0.2161    0.2434    2.4686 N   0  0  0  0  0  0  0  0  0  0  0  0
   -1.1850    0.3219    2.1537 H   0  0  0  0  0  0  0  0  0  0  0  0
    0.0735    0.4128    3.8885 C   0  0  0  0  0  0  0  0  0  0  0  0
    1.0159    0.9483    4.0105 H   0  0  0  0  0  0  0  0  0  0  0  0
   -0.7315    0.9748    4.3613 H   0  0  0  0  0  0  0  0  0  0  0  0
    0.1564   -0.5677    4.3577 H   0  0  0  0  0  0  0  0  0  0  0  0
  5  6  2  0  0  0  0
  5  7  1  0  0  0  0
  2  3  1  0  0  0  0
  2  4  1  0  0  0  0
  2  5  1  0  0  0  0
  1  2  1  0  0  0  0
 17 18  2  0  0  0  0
 17 19  1  0  0  0  0
 14 15  1  0  0  0  0
 14 16  2  0  0  0  0
 11 12  1  0  0  0  0
 11 13  1  0  0  0  0
 11 14  1  0  0  0  0
  9 10  1  0  0  0  0
  9 11  1  0  0  0  0
  9 17  1  0  0  0  0
  7  8  1  0  0  0  0
  7  9  1  0  0  0  0
 21 22  1  0  0  0  0
 21 23  1  0  0  0  0
 21 24  1  0  0  0  0
 19 20  1  0  0  0  0
 19 21  1  0  0  0  0
M  CHG  1  15  -1
M  END
$$$$
default_name
  -OEChem-02102213163D

 24 23  0     1  0  0  0  0  0999 V2000
   -2.8347   -3.7166    0.8034 H   0  0  0  0  0  0  0  0  0  0  0  0
   -2.7728   -2.7096    0.3954 C   0  0  0  0  0  0  0  0  0  0  0  0
   -3.4267   -2.0426    0.9524 H   0  0  0  0  0  0  0  0  0  0  0  0
   -3.0538   -2.7186   -0.6556 H   0  0  0  0  0  0  0  0  0  0  0  0
   -1.3498   -2.2206    0.5184 C   0  0  0  0  0  0  0  0  0  0  0  0
   -0.4997   -2.9426    1.0194 O   0  0  0  0  0  0  0  0  0  0  0  0
   -1.1198   -0.9926    0.0674 N   0  0  0  0  0  0  0  0  0  0  0  0
   -1.8978   -0.4486   -0.2716 H   0  0  0  0  0  0  0  0  0  0  0  0
    0.1693   -0.2866    0.0854 C   0  0  1  0  0  0  0  0  0  0  0  0
    0.9043   -0.8713   -0.4705 H   0  0  0  0  0  0  0  0  0  0  0  0
    0.0106    1.0816   -0.6124 C   0  0  0  0  0  0  0  0  0  0  0  0
   -1.0534    1.3082   -0.7014 H   0  0  0  0  0  0  0  0  0  0  0  0
    0.4636    1.8517    0.0158 H   0  0  0  0  0  0  0  0  0  0  0  0
    0.6203    1.1535   -2.0211 C   0  0  0  0  0  0  0  0  0  0  0  0
   -0.0480    1.6892   -2.9366 O   0  5  0  0  0  0  0  0  0  0  0  0
    1.7535    0.6493   -2.1752 O   0  0  0  0  0  0  0  0  0  0  0  0
    0.6664   -0.1450    1.5428 C   0  0  0  0  0  0  0  0  0  0  0  0
    1.8485   -0.3724    1.8265 O   0  0  0  0  0  0  0  0  0  0  0  0
   -0.2161    0.2434    2.4686 N   0  0  0  0  0  0  0  0  0  0  0  0
   -1.1850    0.3219    2.1537 H   0  0  0  0  0  0  0  0  0  0  0  0
    0.0735    0.4128    3.8885 C   0  0  0  0  0  0  0  0  0  0  0  0
    1.0159    0.9483    4.0105 H   0  0  0  0  0  0  0  0  0  0  0  0
   -0.7315    0.9748    4.3613 H   0  0  0  0  0  0  0  0  0  0  0  0
    0.1564   -0.5677    4.3577 H   0  0  0  0  0  0  0  0  0  0  0  0
  5  6  2  0  0  0  0
  5  7  1  0  0  0  0
  2  3  1  0  0  0  0
  2  4  1  0  0  0  0
  2  5  1  0  0  0  0
  1  2  1  0  0  0  0
 17 18  2  0  0  0  0
 17 19  1  0  0  0  0
 14 15  1  0  0  0  0
 14 16  2  0  0  0  0
 11 12  1  0  0  0  0
 11 13  1  0  0  0  0
 11 14  1  0  0  0  0
  9 10  1  0  0  0  0
  9 11  1  0  0  0  0
  9 17  1  0  0  0  0
  7  8  1  0  0  0  0
  7  9  1  0  0  0  0
 21 22  1  0  0  0  0
 21 23  1  0  0  0  0
 21 24  1  0  0  0  0
 19 20  1  0  0  0  0
 19 21  1  0  0  0  0
M  CHG  1  15  -1
M  END
$$$$
default_name
  -OEChem-02102213163D

 24 23  0     1  0  0  0  0  0999 V2000
   -2.8347   -3.7166    0.8034 H   0  0  0  0  0  0  0  0  0  0  0  0
   -2.7728   -2.7096    0.3954 C   0  0  0  0  0  0  0  0  0  0  0  0
   -3.4267   -2.0426    0.9524 H   0  0  0  0  0  0  0  0  0  0  0  0
   -3.0538   -2.7186   -0.6556 H   0  0  0  0  0  0  0  0  0  0  0  0
   -1.3498   -2.2206    0.5184 C   0  0  0  0  0  0  0  0  0  0  0  0
   -0.4997   -2.9426    1.0194 O   0  0  0  0  0  0  0  0  0  0  0  0
   -1.1198   -0.9926    0.0674 N   0  0  0  0  0  0  0  0  0  0  0  0
   -1.8978   -0.4486   -0.2716 H   0  0  0  0  0  0  0  0  0  0  0  0
    0.1693   -0.2866    0.0854 C   0  0  1  0  0  0  0  0  0  0  0  0
    0.9043   -0.8713   -0.4705 H   0  0  0  0  0  0  0  0  0  0  0  0
    0.0106    1.0816   -0.6124 C   0  0  0  0  0  0  0  0  0  0  0  0
   -1.0534    1.3082   -0.7014 H   0  0  0  0  0  0  0  0  0  0  0  0
    0.4636    1.8517    0.0158 H   0  0  0  0  0  0  0  0  0  0  0  0
    0.6203    1.1535   -2.0211 C   0  0  0  0  0  0  0  0  0  0  0  0
    0.0989    1.9245   -2.8610 O   0  5  0  0  0  0  0  0  0  0  0  0
    1.6011    0.4144   -2.2532 O   0  0  0  0  0  0  0  0  0  0  0  0
    0.6664   -0.1450    1.5428 C   0  0  0  0  0  0  0  0  0  0  0  0
    1.8485   -0.3724    1.8265 O   0  0  0  0  0  0  0  0  0  0  0  0
   -0.2161    0.2434    2.4686 N   0  0  0  0  0  0  0  0  0  0  0  0
   -1.1850    0.3219    2.1537 H   0  0  0  0  0  0  0  0  0  0  0  0
    0.0735    0.4128    3.8885 C   0  0  0  0  0  0  0  0  0  0  0  0
    1.0159    0.9483    4.0105 H   0  0  0  0  0  0  0  0  0  0  0  0
   -0.7315    0.9748    4.3613 H   0  0  0  0  0  0  0  0  0  0  0  0
    0.1564   -0.5677    4.3577 H   0  0  0  0  0  0  0  0  0  0  0  0
  5  6  2  0  0  0  0
  5  7  1  0  0  0  0
  2  3  1  0  0  0  0
  2  4  1  0  0  0  0
  2  5  1  0  0  0  0
  1  2  1  0  0  0  0
 17 18  2  0  0  0  0
 17 19  1  0  0  0  0
 14 15  1  0  0  0  0
 14 16  2  0  0  0  0
 11 12  1  0  0  0  0
 11 13  1  0  0  0  0
 11 14  1  0  0  0  0
  9 10  1  0  0  0  0
  9 11  1  0  0  0  0
  9 17  1  0  0  0  0
  7  8  1  0  0  0  0
  7  9  1  0  0  0  0
 21 22  1  0  0  0  0
 21 23  1  0  0  0  0
 21 24  1  0  0  0  0
 19 20  1  0  0  0  0
 19 21  1  0  0  0  0
M  CHG  1  15  -1
M  END
$$$$
default_name
  -OEChem-02102213163D

 24 23  0     1  0  0  0  0  0999 V2000
   -2.8347   -3.7166    0.8034 H   0  0  0  0  0  0  0  0  0  0  0  0
   -2.7728   -2.7096    0.3954 C   0  0  0  0  0  0  0  0  0  0  0  0
   -3.4267   -2.0426    0.9524 H   0  0  0  0  0  0  0  0  0  0  0  0
   -3.0538   -2.7186   -0.6556 H   0  0  0  0  0  0  0  0  0  0  0  0
   -1.3498   -2.2206    0.5184 C   0  0  0  0  0  0  0  0  0  0  0  0
   -0.4997   -2.9426    1.0194 O   0  0  0  0  0  0  0  0  0  0  0  0
   -1.1198   -0.9926    0.0674 N   0  0  0  0  0  0  0  0  0  0  0  0
   -1.8978   -0.4486   -0.2716 H   0  0  0  0  0  0  0  0  0  0  0  0
    0.1693   -0.2866    0.0854 C   0  0  1  0  0  0  0  0  0  0  0  0
    0.9043   -0.8713   -0.4705 H   0  0  0  0  0  0  0  0  0  0  0  0
    0.0106    1.0816   -0.6124 C   0  0  0  0  0  0  0  0  0  0  0  0
   -1.0534    1.3082   -0.7014 H   0  0  0  0  0  0  0  0  0  0  0  0
    0.4636    1.8517    0.0158 H   0  0  0  0  0  0  0  0  0  0  0  0
    0.6203    1.1535   -2.0211 C   0  0  0  0  0  0  0  0  0  0  0  0
    0.2975    2.1091   -2.7656 O   0  5  0  0  0  0  0  0  0  0  0  0
    1.3972    0.2316   -2.3508 O   0  0  0  0  0  0  0  0  0  0  0  0
    0.6664   -0.1450    1.5428 C   0  0  0  0  0  0  0  0  0  0  0  0
    1.8485   -0.3724    1.8265 O   0  0  0  0  0  0  0  0  0  0  0  0
   -0.2161    0.2434    2.4686 N   0  0  0  0  0  0  0  0  0  0  0  0
   -1.1850    0.3219    2.1537 H   0  0  0  0  0  0  0  0  0  0  0  0
    0.0735    0.4128    3.8885 C   0  0  0  0  0  0  0  0  0  0  0  0
    1.0159    0.9483    4.0105 H   0  0  0  0  0  0  0  0  0  0  0  0
   -0.7315    0.9748    4.3613 H   0  0  0  0  0  0  0  0  0  0  0  0
    0.1564   -0.5677    4.3577 H   0  0  0  0  0  0  0  0  0  0  0  0
  5  6  2  0  0  0  0
  5  7  1  0  0  0  0
  2  3  1  0  0  0  0
  2  4  1  0  0  0  0
  2  5  1  0  0  0  0
  1  2  1  0  0  0  0
 17 18  2  0  0  0  0
 17 19  1  0  0  0  0
 14 15  1  0  0  0  0
 14 16  2  0  0  0  0
 11 12  1  0  0  0  0
 11 13  1  0  0  0  0
 11 14  1  0  0  0  0
  9 10  1  0  0  0  0
  9 11  1  0  0  0  0
  9 17  1  0  0  0  0
  7  8  1  0  0  0  0
  7  9  1  0  0  0  0
 21 22  1  0  0  0  0
 21 23  1  0  0  0  0
 21 24  1  0  0  0  0
 19 20  1  0  0  0  0
 19 21  1  0  0  0  0
M  CHG  1  15  -1
M  END
$$$$
default_name
  -OEChem-02102213163D

 24 23  0     1  0  0  0  0  0999 V2000
   -2.8347   -3.7166    0.8034 H   0  0  0  0  0  0  0  0  0  0  0  0
   -2.7728   -2.7096    0.3954 C   0  0  0  0  0  0  0  0  0  0  0  0
   -3.4267   -2.0426    0.9524 H   0  0  0  0  0  0  0  0  0  0  0  0
   -3.0538   -2.7186   -0.6556 H   0  0  0  0  0  0  0  0  0  0  0  0
   -1.3498   -2.2206    0.5184 C   0  0  0  0  0  0  0  0  0  0  0  0
   -0.4997   -2.9426    1.0194 O   0  0  0  0  0  0  0  0  0  0  0  0
   -1.1198   -0.9926    0.0674 N   0  0  0  0  0  0  0  0  0  0  0  0
   -1.8978   -0.4486   -0.2716 H   0  0  0  0  0  0  0  0  0  0  0  0
    0.1693   -0.2866    0.0854 C   0  0  1  0  0  0  0  0  0  0  0  0
    0.9043   -0.8713   -0.4705 H   0  0  0  0  0  0  0  0  0  0  0  0
    0.0106    1.0816   -0.6124 C   0  0  0  0  0  0  0  0  0  0  0  0
   -1.0123    1.4331   -0.4658 H   0  0  0  0  0  0  0  0  0  0  0  0
    0.6810    1.7998   -0.1354 H   0  0  0  0  0  0  0  0  0  0  0  0
    0.2826    1.0615   -2.1247 C   0  0  0  0  0  0  0  0  0  0  0  0
    0.1754    2.1328   -2.7670 O   0  5  0  0  0  0  0  0  0  0  0  0
    0.5798   -0.0409   -2.6330 O   0  0  0  0  0  0  0  0  0  0  0  0
    0.6664   -0.1450    1.5428 C   0  0  0  0  0  0  0  0  0  0  0  0
    1.8485   -0.3724    1.8265 O   0  0  0  0  0  0  0  0  0  0  0  0
   -0.2161    0.2434    2.4686 N   0  0  0  0  0  0  0  0  0  0  0  0
   -1.1850    0.3219    2.1537 H   0  0  0  0  0  0  0  0  0  0  0  0
    0.0735    0.4128    3.8885 C   0  0  0  0  0  0  0  0  0  0  0  0
    1.0159    0.9483    4.0105 H   0  0  0  0  0  0  0  0  0  0  0  0
   -0.7315    0.9748    4.3613 H   0  0  0  0  0  0  0  0  0  0  0  0
    0.1564   -0.5677    4.3577 H   0  0  0  0  0  0  0  0  0  0  0  0
  5  6  2  0  0  0  0
  5  7  1  0  0  0  0
  2  3  1  0  0  0  0
  2  4  1  0  0  0  0
  2  5  1  0  0  0  0
  1  2  1  0  0  0  0
 17 18  2  0  0  0  0
 17 19  1  0  0  0  0
 14 15  1  0  0  0  0
 14 16  2  0  0  0  0
 11 12  1  0  0  0  0
 11 13  1  0  0  0  0
 11 14  1  0  0  0  0
  9 10  1  0  0  0  0
  9 11  1  0  0  0  0
  9 17  1  0  0  0  0
  7  8  1  0  0  0  0
  7  9  1  0  0  0  0
 21 22  1  0  0  0  0
 21 23  1  0  0  0  0
 21 24  1  0  0  0  0
 19 20  1  0  0  0  0
 19 21  1  0  0  0  0
M  CHG  1  15  -1
M  END
$$$$
default_name
  -OEChem-02102213163D

 24 23  0     1  0  0  0  0  0999 V2000
   -2.8347   -3.7166    0.8034 H   0  0  0  0  0  0  0  0  0  0  0  0
   -2.7728   -2.7096    0.3954 C   0  0  0  0  0  0  0  0  0  0  0  0
   -3.4267   -2.0426    0.9524 H   0  0  0  0  0  0  0  0  0  0  0  0
   -3.0538   -2.7186   -0.6556 H   0  0  0  0  0  0  0  0  0  0  0  0
   -1.3498   -2.2206    0.5184 C   0  0  0  0  0  0  0  0  0  0  0  0
   -0.4997   -2.9426    1.0194 O   0  0  0  0  0  0  0  0  0  0  0  0
   -1.1198   -0.9926    0.0674 N   0  0  0  0  0  0  0  0  0  0  0  0
   -1.8978   -0.4486   -0.2716 H   0  0  0  0  0  0  0  0  0  0  0  0
    0.1693   -0.2866    0.0854 C   0  0  1  0  0  0  0  0  0  0  0  0
    0.9043   -0.8713   -0.4705 H   0  0  0  0  0  0  0  0  0  0  0  0
    0.0106    1.0816   -0.6124 C   0  0  0  0  0  0  0  0  0  0  0  0
   -1.0123    1.4331   -0.4658 H   0  0  0  0  0  0  0  0  0  0  0  0
    0.6810    1.7998   -0.1354 H   0  0  0  0  0  0  0  0  0  0  0  0
    0.2826    1.0615   -2.1247 C   0  0  0  0  0  0  0  0  0  0  0  0
    0.4577    2.1528   -2.7165 O   0  5  0  0  0  0  0  0  0  0  0  0
    0.2940   -0.0560   -2.6843 O   0  0  0  0  0  0  0  0  0  0  0  0
    0.6664   -0.1450    1.5428 C   0  0  0  0  0  0  0  0  0  0  0  0
    1.8485   -0.3724    1.8265 O   0  0  0  0  0  0  0  0  0  0  0  0
   -0.2161    0.2434    2.4686 N   0  0  0  0  0  0  0  0  0  0  0  0
   -1.1850    0.3219    2.1537 H   0  0  0  0  0  0  0  0  0  0  0  0
    0.0735    0.4128    3.8885 C   0  0  0  0  0  0  0  0  0  0  0  0
    1.0159    0.9483    4.0105 H   0  0  0  0  0  0  0  0  0  0  0  0
   -0.7315    0.9748    4.3613 H   0  0  0  0  0  0  0  0  0  0  0  0
    0.1564   -0.5677    4.3577 H   0  0  0  0  0  0  0  0  0  0  0  0
  5  6  2  0  0  0  0
  5  7  1  0  0  0  0
  2  3  1  0  0  0  0
  2  4  1  0  0  0  0
  2  5  1  0  0  0  0
  1  2  1  0  0  0  0
 17 18  2  0  0  0  0
 17 19  1  0  0  0  0
 14 15  1  0  0  0  0
 14 16  2  0  0  0  0
 11 12  1  0  0  0  0
 11 13  1  0  0  0  0
 11 14  1  0  0  0  0
  9 10  1  0  0  0  0
  9 11  1  0  0  0  0
  9 17  1  0  0  0  0
  7  8  1  0  0  0  0
  7  9  1  0  0  0  0
 21 22  1  0  0  0  0
 21 23  1  0  0  0  0
 21 24  1  0  0  0  0
 19 20  1  0  0  0  0
 19 21  1  0  0  0  0
M  CHG  1  15  -1
M  END
$$$$
default_name
  -OEChem-02102213163D

 24 23  0     1  0  0  0  0  0999 V2000
   -2.8347   -3.7166    0.8034 H   0  0  0  0  0  0  0  0  0  0  0  0
   -2.7728   -2.7096    0.3954 C   0  0  0  0  0  0  0  0  0  0  0  0
   -3.4267   -2.0426    0.9524 H   0  0  0  0  0  0  0  0  0  0  0  0
   -3.0538   -2.7186   -0.6556 H   0  0  0  0  0  0  0  0  0  0  0  0
   -1.3498   -2.2206    0.5184 C   0  0  0  0  0  0  0  0  0  0  0  0
   -0.4997   -2.9426    1.0194 O   0  0  0  0  0  0  0  0  0  0  0  0
   -1.1198   -0.9926    0.0674 N   0  0  0  0  0  0  0  0  0  0  0  0
   -1.8978   -0.4486   -0.2716 H   0  0  0  0  0  0  0  0  0  0  0  0
    0.1693   -0.2866    0.0854 C   0  0  1  0  0  0  0  0  0  0  0  0
    0.9043   -0.8713   -0.4705 H   0  0  0  0  0  0  0  0  0  0  0  0
    0.0106    1.0816   -0.6124 C   0  0  0  0  0  0  0  0  0  0  0  0
   -1.0123    1.4331   -0.4658 H   0  0  0  0  0  0  0  0  0  0  0  0
    0.6810    1.7998   -0.1354 H   0  0  0  0  0  0  0  0  0  0  0  0
    0.2826    1.0615   -2.1247 C   0  0  0  0  0  0  0  0  0  0  0  0
    0.7353    2.0978   -2.6658 O   0  5  0  0  0  0  0  0  0  0  0  0
    0.0143    0.0045   -2.7354 O   0  0  0  0  0  0  0  0  0  0  0  0
    0.6664   -0.1450    1.5428 C   0  0  0  0  0  0  0  0  0  0  0  0
    1.8485   -0.3724    1.8265 O   0  0  0  0  0  0  0  0  0  0  0  0
   -0.2161    0.2434    2.4686 N   0  0  0  0  0  0  0  0  0  0  0  0
   -1.1850    0.3219    2.1537 H   0  0  0  0  0  0  0  0  0  0  0  0
    0.0735    0.4128    3.8885 C   0  0  0  0  0  0  0  0  0  0  0  0
    1.0159    0.9483    4.0105 H   0  0  0  0  0  0  0  0  0  0  0  0
   -0.7315    0.9748    4.3613 H   0  0  0  0  0  0  0  0  0  0  0  0
    0.1564   -0.5677    4.3577 H   0  0  0  0  0  0  0  0  0  0  0  0
  5  6  2  0  0  0  0
  5  7  1  0  0  0  0
  2  3  1  0  0  0  0
  2  4  1  0  0  0  0
  2  5  1  0  0  0  0
  1  2  1  0  0  0  0
 17 18  2  0  0  0  0
 17 19  1  0  0  0  0
 14 15  1  0  0  0  0
 14 16  2  0  0  0  0
 11 12  1  0  0  0  0
 11 13  1  0  0  0  0
 11 14  1  0  0  0  0
  9 10  1  0  0  0  0
  9 11  1  0  0  0  0
  9 17  1  0  0  0  0
  7  8  1  0  0  0  0
  7  9  1  0  0  0  0
 21 22  1  0  0  0  0
 21 23  1  0  0  0  0
 21 24  1  0  0  0  0
 19 20  1  0  0  0  0
 19 21  1  0  0  0  0
M  CHG  1  15  -1
M  END
$$$$
default_name
  -OEChem-02102213163D

 24 23  0     1  0  0  0  0  0999 V2000
   -2.8347   -3.7166    0.8034 H   0  0  0  0  0  0  0  0  0  0  0  0
   -2.7728   -2.7096    0.3954 C   0  0  0  0  0  0  0  0  0  0  0  0
   -3.4267   -2.0426    0.9524 H   0  0  0  0  0  0  0  0  0  0  0  0
   -3.0538   -2.7186   -0.6556 H   0  0  0  0  0  0  0  0  0  0  0  0
   -1.3498   -2.2206    0.5184 C   0  0  0  0  0  0  0  0  0  0  0  0
   -0.4997   -2.9426    1.0194 O   0  0  0  0  0  0  0  0  0  0  0  0
   -1.1198   -0.9926    0.0674 N   0  0  0  0  0  0  0  0  0  0  0  0
   -1.8978   -0.4486   -0.2716 H   0  0  0  0  0  0  0  0  0  0  0  0
    0.1693   -0.2866    0.0854 C   0  0  1  0  0  0  0  0  0  0  0  0
    0.9043   -0.8713   -0.4705 H   0  0  0  0  0  0  0  0  0  0  0  0
    0.0106    1.0816   -0.6124 C   0  0  0  0  0  0  0  0  0  0  0  0
   -1.0123    1.4331   -0.4658 H   0  0  0  0  0  0  0  0  0  0  0  0
    0.6810    1.7998   -0.1354 H   0  0  0  0  0  0  0  0  0  0  0  0
    0.2826    1.0615   -2.1247 C   0  0  0  0  0  0  0  0  0  0  0  0
    0.9893    1.9718   -2.6184 O   0  5  0  0  0  0  0  0  0  0  0  0
   -0.2403    0.1366   -2.7829 O   0  0  0  0  0  0  0  0  0  0  0  0
    0.6664   -0.1450    1.5428 C   0  0  0  0  0  0  0  0  0  0  0  0
    1.8485   -0.3724    1.8265 O   0  0  0  0  0  0  0  0  0  0  0  0
   -0.2161    0.2434    2.4686 N   0  0  0  0  0  0  0  0  0  0  0  0
   -1.1850    0.3219    2.1537 H   0  0  0  0  0  0  0  0  0  0  0  0
    0.0735    0.4128    3.8885 C   0  0  0  0  0  0  0  0  0  0  0  0
    1.0159    0.9483    4.0105 H   0  0  0  0  0  0  0  0  0  0  0  0
   -0.7315    0.9748    4.3613 H   0  0  0  0  0  0  0  0  0  0  0  0
    0.1564   -0.5677    4.3577 H   0  0  0  0  0  0  0  0  0  0  0  0
  5  6  2  0  0  0  0
  5  7  1  0  0  0  0
  2  3  1  0  0  0  0
  2  4  1  0  0  0  0
  2  5  1  0  0  0  0
  1  2  1  0  0  0  0
 17 18  2  0  0  0  0
 17 19  1  0  0  0  0
 14 15  1  0  0  0  0
 14 16  2  0  0  0  0
 11 12  1  0  0  0  0
 11 13  1  0  0  0  0
 11 14  1  0  0  0  0
  9 10  1  0  0  0  0
  9 11  1  0  0  0  0
  9 17  1  0  0  0  0
  7  8  1  0  0  0  0
  7  9  1  0  0  0  0
 21 22  1  0  0  0  0
 21 23  1  0  0  0  0
 21 24  1  0  0  0  0
 19 20  1  0  0  0  0
 19 21  1  0  0  0  0
M  CHG  1  15  -1
M  END
$$$$
default_name
  -OEChem-02102213163D

 24 23  0     1  0  0  0  0  0999 V2000
   -2.8347   -3.7166    0.8034 H   0  0  0  0  0  0  0  0  0  0  0  0
   -2.7728   -2.7096    0.3954 C   0  0  0  0  0  0  0  0  0  0  0  0
   -3.4267   -2.0426    0.9524 H   0  0  0  0  0  0  0  0  0  0  0  0
   -3.0538   -2.7186   -0.6556 H   0  0  0  0  0  0  0  0  0  0  0  0
   -1.3498   -2.2206    0.5184 C   0  0  0  0  0  0  0  0  0  0  0  0
   -0.4997   -2.9426    1.0194 O   0  0  0  0  0  0  0  0  0  0  0  0
   -1.1198   -0.9926    0.0674 N   0  0  0  0  0  0  0  0  0  0  0  0
   -1.8978   -0.4486   -0.2716 H   0  0  0  0  0  0  0  0  0  0  0  0
    0.1693   -0.2866    0.0854 C   0  0  1  0  0  0  0  0  0  0  0  0
    0.9043   -0.8713   -0.4705 H   0  0  0  0  0  0  0  0  0  0  0  0
    0.0106    1.0816   -0.6124 C   0  0  0  0  0  0  0  0  0  0  0  0
   -1.0123    1.4331   -0.4658 H   0  0  0  0  0  0  0  0  0  0  0  0
    0.6810    1.7998   -0.1354 H   0  0  0  0  0  0  0  0  0  0  0  0
    0.2826    1.0615   -2.1247 C   0  0  0  0  0  0  0  0  0  0  0  0
    1.2023    1.7831   -2.5776 O   0  5  0  0  0  0  0  0  0  0  0  0
   -0.4524    0.3312   -2.8237 O   0  0  0  0  0  0  0  0  0  0  0  0
    0.6664   -0.1450    1.5428 C   0  0  0  0  0  0  0  0  0  0  0  0
    1.8485   -0.3724    1.8265 O   0  0  0  0  0  0  0  0  0  0  0  0
   -0.2161    0.2434    2.4686 N   0  0  0  0  0  0  0  0  0  0  0  0
   -1.1850    0.3219    2.1537 H   0  0  0  0  0  0  0  0  0  0  0  0
    0.0735    0.4128    3.8885 C   0  0  0  0  0  0  0  0  0  0  0  0
    1.0159    0.9483    4.0105 H   0  0  0  0  0  0  0  0  0  0  0  0
   -0.7315    0.9748    4.3613 H   0  0  0  0  0  0  0  0  0  0  0  0
    0.1564   -0.5677    4.3577 H   0  0  0  0  0  0  0  0  0  0  0  0
  5  6  2  0  0  0  0
  5  7  1  0  0  0  0
  2  3  1  0  0  0  0
  2  4  1  0  0  0  0
  2  5  1  0  0  0  0
  1  2  1  0  0  0  0
 17 18  2  0  0  0  0
 17 19  1  0  0  0  0
 14 15  1  0  0  0  0
 14 16  2  0  0  0  0
 11 12  1  0  0  0  0
 11 13  1  0  0  0  0
 11 14  1  0  0  0  0
  9 10  1  0  0  0  0
  9 11  1  0  0  0  0
  9 17  1  0  0  0  0
  7  8  1  0  0  0  0
  7  9  1  0  0  0  0
 21 22  1  0  0  0  0
 21 23  1  0  0  0  0
 21 24  1  0  0  0  0
 19 20  1  0  0  0  0
 19 21  1  0  0  0  0
M  CHG  1  15  -1
M  END
$$$$
default_name
  -OEChem-02102213163D

 24 23  0     1  0  0  0  0  0999 V2000
   -2.8347   -3.7166    0.8034 H   0  0  0  0  0  0  0  0  0  0  0  0
   -2.7728   -2.7096    0.3954 C   0  0  0  0  0  0  0  0  0  0  0  0
   -3.4267   -2.0426    0.9524 H   0  0  0  0  0  0  0  0  0  0  0  0
   -3.0538   -2.7186   -0.6556 H   0  0  0  0  0  0  0  0  0  0  0  0
   -1.3498   -2.2206    0.5184 C   0  0  0  0  0  0  0  0  0  0  0  0
   -0.4997   -2.9426    1.0194 O   0  0  0  0  0  0  0  0  0  0  0  0
   -1.1198   -0.9926    0.0674 N   0  0  0  0  0  0  0  0  0  0  0  0
   -1.8978   -0.4486   -0.2716 H   0  0  0  0  0  0  0  0  0  0  0  0
    0.1693   -0.2866    0.0854 C   0  0  1  0  0  0  0  0  0  0  0  0
    0.9043   -0.8713   -0.4705 H   0  0  0  0  0  0  0  0  0  0  0  0
    0.0106    1.0816   -0.6124 C   0  0  0  0  0  0  0  0  0  0  0  0
   -1.0123    1.4331   -0.4658 H   0  0  0  0  0  0  0  0  0  0  0  0
    0.6810    1.7998   -0.1354 H   0  0  0  0  0  0  0  0  0  0  0  0
    0.2826    1.0615   -2.1247 C   0  0  0  0  0  0  0  0  0  0  0  0
    1.3599    1.5448   -2.5461 O   0  5  0  0  0  0  0  0  0  0  0  0
   -0.6076    0.5751   -2.8548 O   0  0  0  0  0  0  0  0  0  0  0  0
    0.6664   -0.1450    1.5428 C   0  0  0  0  0  0  0  0  0  0  0  0
    1.8485   -0.3724    1.8265 O   0  0  0  0  0  0  0  0  0  0  0  0
   -0.2161    0.2434    2.4686 N   0  0  0  0  0  0  0  0  0  0  0  0
   -1.1850    0.3219    2.1537 H   0  0  0  0  0  0  0  0  0  0  0  0
    0.0735    0.4128    3.8885 C   0  0  0  0  0  0  0  0  0  0  0  0
    1.0159    0.9483    4.0105 H   0  0  0  0  0  0  0  0  0  0  0  0
   -0.7315    0.9748    4.3613 H   0  0  0  0  0  0  0  0  0  0  0  0
    0.1564   -0.5677    4.3577 H   0  0  0  0  0  0  0  0  0  0  0  0
  5  6  2  0  0  0  0
  5  7  1  0  0  0  0
  2  3  1  0  0  0  0
  2  4  1  0  0  0  0
  2  5  1  0  0  0  0
  1  2  1  0  0  0  0
 17 18  2  0  0  0  0
 17 19  1  0  0  0  0
 14 15  1  0  0  0  0
 14 16  2  0  0  0  0
 11 12  1  0  0  0  0
 11 13  1  0  0  0  0
 11 14  1  0  0  0  0
  9 10  1  0  0  0  0
  9 11  1  0  0  0  0
  9 17  1  0  0  0  0
  7  8  1  0  0  0  0
  7  9  1  0  0  0  0
 21 22  1  0  0  0  0
 21 23  1  0  0  0  0
 21 24  1  0  0  0  0
 19 20  1  0  0  0  0
 19 21  1  0  0  0  0
M  CHG  1  15  -1
M  END
$$$$
default_name
  -OEChem-02102213163D

 24 23  0     1  0  0  0  0  0999 V2000
   -2.8347   -3.7166    0.8034 H   0  0  0  0  0  0  0  0  0  0  0  0
   -2.7728   -2.7096    0.3954 C   0  0  0  0  0  0  0  0  0  0  0  0
   -3.4267   -2.0426    0.9524 H   0  0  0  0  0  0  0  0  0  0  0  0
   -3.0538   -2.7186   -0.6556 H   0  0  0  0  0  0  0  0  0  0  0  0
   -1.3498   -2.2206    0.5184 C   0  0  0  0  0  0  0  0  0  0  0  0
   -0.4997   -2.9426    1.0194 O   0  0  0  0  0  0  0  0  0  0  0  0
   -1.1198   -0.9926    0.0674 N   0  0  0  0  0  0  0  0  0  0  0  0
   -1.8978   -0.4486   -0.2716 H   0  0  0  0  0  0  0  0  0  0  0  0
    0.1693   -0.2866    0.0854 C   0  0  1  0  0  0  0  0  0  0  0  0
    0.9043   -0.8713   -0.4705 H   0  0  0  0  0  0  0  0  0  0  0  0
    0.0106    1.0816   -0.6124 C   0  0  0  0  0  0  0  0  0  0  0  0
   -1.0123    1.4331   -0.4658 H   0  0  0  0  0  0  0  0  0  0  0  0
    0.6810    1.7998   -0.1354 H   0  0  0  0  0  0  0  0  0  0  0  0
    0.2826    1.0615   -2.1247 C   0  0  0  0  0  0  0  0  0  0  0  0
    1.4513    1.2729   -2.5260 O   0  5  0  0  0  0  0  0  0  0  0  0
   -0.6952    0.8516   -2.8743 O   0  0  0  0  0  0  0  0  0  0  0  0
    0.6664   -0.1450    1.5428 C   0  0  0  0  0  0  0  0  0  0  0  0
    1.8485   -0.3724    1.8265 O   0  0  0  0  0  0  0  0  0  0  0  0
   -0.2161    0.2434    2.4686 N   0  0  0  0  0  0  0  0  0  0  0  0
   -1.1850    0.3219    2.1537 H   0  0  0  0  0  0  0  0  0  0  0  0
    0.0735    0.4128    3.8885 C   0  0  0  0  0  0  0  0  0  0  0  0
    1.0159    0.9483    4.0105 H   0  0  0  0  0  0  0  0  0  0  0  0
   -0.7315    0.9748    4.3613 H   0  0  0  0  0  0  0  0  0  0  0  0
    0.1564   -0.5677    4.3577 H   0  0  0  0  0  0  0  0  0  0  0  0
  5  6  2  0  0  0  0
  5  7  1  0  0  0  0
  2  3  1  0  0  0  0
  2  4  1  0  0  0  0
  2  5  1  0  0  0  0
  1  2  1  0  0  0  0
 17 18  2  0  0  0  0
 17 19  1  0  0  0  0
 14 15  1  0  0  0  0
 14 16  2  0  0  0  0
 11 12  1  0  0  0  0
 11 13  1  0  0  0  0
 11 14  1  0  0  0  0
  9 10  1  0  0  0  0
  9 11  1  0  0  0  0
  9 17  1  0  0  0  0
  7  8  1  0  0  0  0
  7  9  1  0  0  0  0
 21 22  1  0  0  0  0
 21 23  1  0  0  0  0
 21 24  1  0  0  0  0
 19 20  1  0  0  0  0
 19 21  1  0  0  0  0
M  CHG  1  15  -1
M  END
$$$$
default_name
  -OEChem-02102213163D

 24 23  0     1  0  0  0  0  0999 V2000
   -2.8347   -3.7166    0.8034 H   0  0  0  0  0  0  0  0  0  0  0  0
   -2.7728   -2.7096    0.3954 C   0  0  0  0  0  0  0  0  0  0  0  0
   -3.4267   -2.0426    0.9524 H   0  0  0  0  0  0  0  0  0  0  0  0
   -3.0538   -2.7186   -0.6556 H   0  0  0  0  0  0  0  0  0  0  0  0
   -1.3498   -2.2206    0.5184 C   0  0  0  0  0  0  0  0  0  0  0  0
   -0.4997   -2.9426    1.0194 O   0  0  0  0  0  0  0  0  0  0  0  0
   -1.1198   -0.9926    0.0674 N   0  0  0  0  0  0  0  0  0  0  0  0
   -1.8978   -0.4486   -0.2716 H   0  0  0  0  0  0  0  0  0  0  0  0
    0.1693   -0.2866    0.0854 C   0  0  1  0  0  0  0  0  0  0  0  0
    0.9043   -0.8713   -0.4705 H   0  0  0  0  0  0  0  0  0  0  0  0
    0.0106    1.0816   -0.6124 C   0  0  0  0  0  0  0  0  0  0  0  0
   -1.0123    1.4331   -0.4658 H   0  0  0  0  0  0  0  0  0  0  0  0
    0.6810    1.7998   -0.1354 H   0  0  0  0  0  0  0  0  0  0  0  0
    0.2826    1.0615   -2.1247 C   0  0  0  0  0  0  0  0  0  0  0  0
    1.4703    0.9862   -2.5188 O   0  5  0  0  0  0  0  0  0  0  0  0
   -0.7094    1.1419   -2.8807 O   0  0  0  0  0  0  0  0  0  0  0  0
    0.6664   -0.1450    1.5428 C   0  0  0  0  0  0  0  0  0  0  0  0
    1.8485   -0.3724    1.8265 O   0  0  0  0  0  0  0  0  0  0  0  0
   -0.2161    0.2434    2.4686 N   0  0  0  0  0  0  0  0  0  0  0  0
   -1.1850    0.3219    2.1537 H   0  0  0  0  0  0  0  0  0  0  0  0
    0.0735    0.4128    3.8885 C   0  0  0  0  0  0  0  0  0  0  0  0
    1.0159    0.9483    4.0105 H   0  0  0  0  0  0  0  0  0  0  0  0
   -0.7315    0.9748    4.3613 H   0  0  0  0  0  0  0  0  0  0  0  0
    0.1564   -0.5677    4.3577 H   0  0  0  0  0  0  0  0  0  0  0  0
  5  6  2  0  0  0  0
  5  7  1  0  0  0  0
  2  3  1  0  0  0  0
  2  4  1  0  0  0  0
  2  5  1  0  0  0  0
  1  2  1  0  0  0  0
 17 18  2  0  0  0  0
 17 19  1  0  0  0  0
 14 15  1  0  0  0  0
 14 16  2  0  0  0  0
 11 12  1  0  0  0  0
 11 13  1  0  0  0  0
 11 14  1  0  0  0  0
  9 10  1  0  0  0  0
  9 11  1  0  0  0  0
  9 17  1  0  0  0  0
  7  8  1  0  0  0  0
  7  9  1  0  0  0  0
 21 22  1  0  0  0  0
 21 23  1  0  0  0  0
 21 24  1  0  0  0  0
 19 20  1  0  0  0  0
 19 21  1  0  0  0  0
M  CHG  1  15  -1
M  END
$$$$
default_name
  -OEChem-02102213163D

 24 23  0     1  0  0  0  0  0999 V2000
   -2.8347   -3.7166    0.8034 H   0  0  0  0  0  0  0  0  0  0  0  0
   -2.7728   -2.7096    0.3954 C   0  0  0  0  0  0  0  0  0  0  0  0
   -3.4267   -2.0426    0.9524 H   0  0  0  0  0  0  0  0  0  0  0  0
   -3.0538   -2.7186   -0.6556 H   0  0  0  0  0  0  0  0  0  0  0  0
   -1.3498   -2.2206    0.5184 C   0  0  0  0  0  0  0  0  0  0  0  0
   -0.4997   -2.9426    1.0194 O   0  0  0  0  0  0  0  0  0  0  0  0
   -1.1198   -0.9926    0.0674 N   0  0  0  0  0  0  0  0  0  0  0  0
   -1.8978   -0.4486   -0.2716 H   0  0  0  0  0  0  0  0  0  0  0  0
    0.1693   -0.2866    0.0854 C   0  0  1  0  0  0  0  0  0  0  0  0
    0.9043   -0.8713   -0.4705 H   0  0  0  0  0  0  0  0  0  0  0  0
    0.0106    1.0816   -0.6124 C   0  0  0  0  0  0  0  0  0  0  0  0
   -1.0123    1.4331   -0.4658 H   0  0  0  0  0  0  0  0  0  0  0  0
    0.6810    1.7998   -0.1354 H   0  0  0  0  0  0  0  0  0  0  0  0
    0.2826    1.0615   -2.1247 C   0  0  0  0  0  0  0  0  0  0  0  0
    1.4156    0.7040   -2.5249 O   0  5  0  0  0  0  0  0  0  0  0  0
   -0.6492    1.4262   -2.8737 O   0  0  0  0  0  0  0  0  0  0  0  0
    0.6664   -0.1450    1.5428 C   0  0  0  0  0  0  0  0  0  0  0  0
    1.8485   -0.3724    1.8265 O   0  0  0  0  0  0  0  0  0  0  0  0
   -0.2161    0.2434    2.4686 N   0  0  0  0  0  0  0  0  0  0  0  0
   -1.1850    0.3219    2.1537 H   0  0  0  0  0  0  0  0  0  0  0  0
    0.0735    0.4128    3.8885 C   0  0  0  0  0  0  0  0  0  0  0  0
    1.0159    0.9483    4.0105 H   0  0  0  0  0  0  0  0  0  0  0  0
   -0.7315    0.9748    4.3613 H   0  0  0  0  0  0  0  0  0  0  0  0
    0.1564   -0.5677    4.3577 H   0  0  0  0  0  0  0  0  0  0  0  0
  5  6  2  0  0  0  0
  5  7  1  0  0  0  0
  2  3  1  0  0  0  0
  2  4  1  0  0  0  0
  2  5  1  0  0  0  0
  1  2  1  0  0  0  0
 17 18  2  0  0  0  0
 17 19  1  0  0  0  0
 14 15  1  0  0  0  0
 14 16  2  0  0  0  0
 11 12  1  0  0  0  0
 11 13  1  0  0  0  0
 11 14  1  0  0  0  0
  9 10  1  0  0  0  0
  9 11  1  0  0  0  0
  9 17  1  0  0  0  0
  7  8  1  0  0  0  0
  7  9  1  0  0  0  0
 21 22  1  0  0  0  0
 21 23  1  0  0  0  0
 21 24  1  0  0  0  0
 19 20  1  0  0  0  0
 19 21  1  0  0  0  0
M  CHG  1  15  -1
M  END
$$$$
default_name
  -OEChem-02102213163D

 24 23  0     1  0  0  0  0  0999 V2000
   -2.8347   -3.7166    0.8034 H   0  0  0  0  0  0  0  0  0  0  0  0
   -2.7728   -2.7096    0.3954 C   0  0  0  0  0  0  0  0  0  0  0  0
   -3.4267   -2.0426    0.9524 H   0  0  0  0  0  0  0  0  0  0  0  0
   -3.0538   -2.7186   -0.6556 H   0  0  0  0  0  0  0  0  0  0  0  0
   -1.3498   -2.2206    0.5184 C   0  0  0  0  0  0  0  0  0  0  0  0
   -0.4997   -2.9426    1.0194 O   0  0  0  0  0  0  0  0  0  0  0  0
   -1.1198   -0.9926    0.0674 N   0  0  0  0  0  0  0  0  0  0  0  0
   -1.8978   -0.4486   -0.2716 H   0  0  0  0  0  0  0  0  0  0  0  0
    0.1693   -0.2866    0.0854 C   0  0  1  0  0  0  0  0  0  0  0  0
    0.9043   -0.8713   -0.4705 H   0  0  0  0  0  0  0  0  0  0  0  0
    0.0106    1.0816   -0.6124 C   0  0  0  0  0  0  0  0  0  0  0  0
   -1.0123    1.4331   -0.4658 H   0  0  0  0  0  0  0  0  0  0  0  0
    0.6810    1.7998   -0.1354 H   0  0  0  0  0  0  0  0  0  0  0  0
    0.2826    1.0615   -2.1247 C   0  0  0  0  0  0  0  0  0  0  0  0
    1.2909    0.4457   -2.5438 O   0  5  0  0  0  0  0  0  0  0  0  0
   -0.5185    1.6852   -2.8536 O   0  0  0  0  0  0  0  0  0  0  0  0
    0.6664   -0.1450    1.5428 C   0  0  0  0  0  0  0  0  0  0  0  0
    1.8485   -0.3724    1.8265 O   0  0  0  0  0  0  0  0  0  0  0  0
   -0.2161    0.2434    2.4686 N   0  0  0  0  0  0  0  0  0  0  0  0
   -1.1850    0.3219    2.1537 H   0  0  0  0  0  0  0  0  0  0  0  0
    0.0735    0.4128    3.8885 C   0  0  0  0  0  0  0  0  0  0  0  0
    1.0159    0.9483    4.0105 H   0  0  0  0  0  0  0  0  0  0  0  0
   -0.7315    0.9748    4.3613 H   0  0  0  0  0  0  0  0  0  0  0  0
    0.1564   -0.5677    4.3577 H   0  0  0  0  0  0  0  0  0  0  0  0
  5  6  2  0  0  0  0
  5  7  1  0  0  0  0
  2  3  1  0  0  0  0
  2  4  1  0  0  0  0
  2  5  1  0  0  0  0
  1  2  1  0  0  0  0
 17 18  2  0  0  0  0
 17 19  1  0  0  0  0
 14 15  1  0  0  0  0
 14 16  2  0  0  0  0
 11 12  1  0  0  0  0
 11 13  1  0  0  0  0
 11 14  1  0  0  0  0
  9 10  1  0  0  0  0
  9 11  1  0  0  0  0
  9 17  1  0  0  0  0
  7  8  1  0  0  0  0
  7  9  1  0  0  0  0
 21 22  1  0  0  0  0
 21 23  1  0  0  0  0
 21 24  1  0  0  0  0
 19 20  1  0  0  0  0
 19 21  1  0  0  0  0
M  CHG  1  15  -1
M  END
$$$$
default_name
  -OEChem-02102213163D

 24 23  0     1  0  0  0  0  0999 V2000
   -2.8347   -3.7166    0.8034 H   0  0  0  0  0  0  0  0  0  0  0  0
   -2.7728   -2.7096    0.3954 C   0  0  0  0  0  0  0  0  0  0  0  0
   -3.4267   -2.0426    0.9524 H   0  0  0  0  0  0  0  0  0  0  0  0
   -3.0538   -2.7186   -0.6556 H   0  0  0  0  0  0  0  0  0  0  0  0
   -1.3498   -2.2206    0.5184 C   0  0  0  0  0  0  0  0  0  0  0  0
   -0.4997   -2.9426    1.0194 O   0  0  0  0  0  0  0  0  0  0  0  0
   -1.1198   -0.9926    0.0674 N   0  0  0  0  0  0  0  0  0  0  0  0
   -1.8978   -0.4486   -0.2716 H   0  0  0  0  0  0  0  0  0  0  0  0
    0.1693   -0.2866    0.0854 C   0  0  1  0  0  0  0  0  0  0  0  0
    0.9043   -0.8713   -0.4705 H   0  0  0  0  0  0  0  0  0  0  0  0
    0.0106    1.0816   -0.6124 C   0  0  0  0  0  0  0  0  0  0  0  0
   -1.0123    1.4331   -0.4658 H   0  0  0  0  0  0  0  0  0  0  0  0
    0.6810    1.7998   -0.1354 H   0  0  0  0  0  0  0  0  0  0  0  0
    0.2826    1.0615   -2.1247 C   0  0  0  0  0  0  0  0  0  0  0  0
    1.1047    0.2288   -2.5745 O   0  5  0  0  0  0  0  0  0  0  0  0
   -0.3265    1.9012   -2.8219 O   0  0  0  0  0  0  0  0  0  0  0  0
    0.6664   -0.1450    1.5428 C   0  0  0  0  0  0  0  0  0  0  0  0
    1.8485   -0.3724    1.8265 O   0  0  0  0  0  0  0  0  0  0  0  0
   -0.2161    0.2434    2.4686 N   0  0  0  0  0  0  0  0  0  0  0  0
   -1.1850    0.3219    2.1537 H   0  0  0  0  0  0  0  0  0  0  0  0
    0.0735    0.4128    3.8885 C   0  0  0  0  0  0  0  0  0  0  0  0
    1.0159    0.9483    4.0105 H   0  0  0  0  0  0  0  0  0  0  0  0
   -0.7315    0.9748    4.3613 H   0  0  0  0  0  0  0  0  0  0  0  0
    0.1564   -0.5677    4.3577 H   0  0  0  0  0  0  0  0  0  0  0  0
  5  6  2  0  0  0  0
  5  7  1  0  0  0  0
  2  3  1  0  0  0  0
  2  4  1  0  0  0  0
  2  5  1  0  0  0  0
  1  2  1  0  0  0  0
 17 18  2  0  0  0  0
 17 19  1  0  0  0  0
 14 15  1  0  0  0  0
 14 16  2  0  0  0  0
 11 12  1  0  0  0  0
 11 13  1  0  0  0  0
 11 14  1  0  0  0  0
  9 10  1  0  0  0  0
  9 11  1  0  0  0  0
  9 17  1  0  0  0  0
  7  8  1  0  0  0  0
  7  9  1  0  0  0  0
 21 22  1  0  0  0  0
 21 23  1  0  0  0  0
 21 24  1  0  0  0  0
 19 20  1  0  0  0  0
 19 21  1  0  0  0  0
M  CHG  1  15  -1
M  END
$$$$
default_name
  -OEChem-02102213163D

 24 23  0     1  0  0  0  0  0999 V2000
   -2.8347   -3.7166    0.8034 H   0  0  0  0  0  0  0  0  0  0  0  0
   -2.7728   -2.7096    0.3954 C   0  0  0  0  0  0  0  0  0  0  0  0
   -3.4267   -2.0426    0.9524 H   0  0  0  0  0  0  0  0  0  0  0  0
   -3.0538   -2.7186   -0.6556 H   0  0  0  0  0  0  0  0  0  0  0  0
   -1.3498   -2.2206    0.5184 C   0  0  0  0  0  0  0  0  0  0  0  0
   -0.4997   -2.9426    1.0194 O   0  0  0  0  0  0  0  0  0  0  0  0
   -1.1198   -0.9926    0.0674 N   0  0  0  0  0  0  0  0  0  0  0  0
   -1.8978   -0.4486   -0.2716 H   0  0  0  0  0  0  0  0  0  0  0  0
    0.1693   -0.2866    0.0854 C   0  0  1  0  0  0  0  0  0  0  0  0
    0.9043   -0.8713   -0.4705 H   0  0  0  0  0  0  0  0  0  0  0  0
    0.0106    1.0816   -0.6124 C   0  0  0  0  0  0  0  0  0  0  0  0
   -1.0123    1.4331   -0.4658 H   0  0  0  0  0  0  0  0  0  0  0  0
    0.6810    1.7998   -0.1354 H   0  0  0  0  0  0  0  0  0  0  0  0
    0.2826    1.0615   -2.1247 C   0  0  0  0  0  0  0  0  0  0  0  0
    0.8698    0.0681   -2.6146 O   0  5  0  0  0  0  0  0  0  0  0  0
   -0.0861    2.0594   -2.7808 O   0  0  0  0  0  0  0  0  0  0  0  0
    0.6664   -0.1450    1.5428 C   0  0  0  0  0  0  0  0  0  0  0  0
    1.8485   -0.3724    1.8265 O   0  0  0  0  0  0  0  0  0  0  0  0
   -0.2161    0.2434    2.4686 N   0  0  0  0  0  0  0  0  0  0  0  0
   -1.1850    0.3219    2.1537 H   0  0  0  0  0  0  0  0  0  0  0  0
    0.0735    0.4128    3.8885 C   0  0  0  0  0  0  0  0  0  0  0  0
    1.0159    0.9483    4.0105 H   0  0  0  0  0  0  0  0  0  0  0  0
   -0.7315    0.9748    4.3613 H   0  0  0  0  0  0  0  0  0  0  0  0
    0.1564   -0.5677    4.3577 H   0  0  0  0  0  0  0  0  0  0  0  0
  5  6  2  0  0  0  0
  5  7  1  0  0  0  0
  2  3  1  0  0  0  0
  2  4  1  0  0  0  0
  2  5  1  0  0  0  0
  1  2  1  0  0  0  0
 17 18  2  0  0  0  0
 17 19  1  0  0  0  0
 14 15  1  0  0  0  0
 14 16  2  0  0  0  0
 11 12  1  0  0  0  0
 11 13  1  0  0  0  0
 11 14  1  0  0  0  0
  9 10  1  0  0  0  0
  9 11  1  0  0  0  0
  9 17  1  0  0  0  0
  7  8  1  0  0  0  0
  7  9  1  0  0  0  0
 21 22  1  0  0  0  0
 21 23  1  0  0  0  0
 21 24  1  0  0  0  0
 19 20  1  0  0  0  0
 19 21  1  0  0  0  0
M  CHG  1  15  -1
M  END
$$$$
default_name
  -OEChem-02102213163D

 24 23  0     1  0  0  0  0  0999 V2000
   -2.8347   -3.7166    0.8034 H   0  0  0  0  0  0  0  0  0  0  0  0
   -2.7728   -2.7096    0.3954 C   0  0  0  0  0  0  0  0  0  0  0  0
   -3.4267   -2.0426    0.9524 H   0  0  0  0  0  0  0  0  0  0  0  0
   -3.0538   -2.7186   -0.6556 H   0  0  0  0  0  0  0  0  0  0  0  0
   -1.3498   -2.2206    0.5184 C   0  0  0  0  0  0  0  0  0  0  0  0
   -0.4997   -2.9426    1.0194 O   0  0  0  0  0  0  0  0  0  0  0  0
   -1.1198   -0.9926    0.0674 N   0  0  0  0  0  0  0  0  0  0  0  0
   -1.8978   -0.4486   -0.2716 H   0  0  0  0  0  0  0  0  0  0  0  0
    0.1693   -0.2866    0.0854 C   0  0  1  0  0  0  0  0  0  0  0  0
    0.9043   -0.8713   -0.4705 H   0  0  0  0  0  0  0  0  0  0  0  0
    0.0106    1.0816   -0.6124 C   0  0  0  0  0  0  0  0  0  0  0  0
   -1.0123    1.4331   -0.4658 H   0  0  0  0  0  0  0  0  0  0  0  0
    0.6810    1.7998   -0.1354 H   0  0  0  0  0  0  0  0  0  0  0  0
    0.2826    1.0615   -2.1247 C   0  0  0  0  0  0  0  0  0  0  0  0
    0.6020   -0.0254   -2.6615 O   0  5  0  0  0  0  0  0  0  0  0  0
    0.1863    2.1491   -2.7330 O   0  0  0  0  0  0  0  0  0  0  0  0
    0.6664   -0.1450    1.5428 C   0  0  0  0  0  0  0  0  0  0  0  0
    1.8485   -0.3724    1.8265 O   0  0  0  0  0  0  0  0  0  0  0  0
   -0.2161    0.2434    2.4686 N   0  0  0  0  0  0  0  0  0  0  0  0
   -1.1850    0.3219    2.1537 H   0  0  0  0  0  0  0  0  0  0  0  0
    0.0735    0.4128    3.8885 C   0  0  0  0  0  0  0  0  0  0  0  0
    1.0159    0.9483    4.0105 H   0  0  0  0  0  0  0  0  0  0  0  0
   -0.7315    0.9748    4.3613 H   0  0  0  0  0  0  0  0  0  0  0  0
    0.1564   -0.5677    4.3577 H   0  0  0  0  0  0  0  0  0  0  0  0
  5  6  2  0  0  0  0
  5  7  1  0  0  0  0
  2  3  1  0  0  0  0
  2  4  1  0  0  0  0
  2  5  1  0  0  0  0
  1  2  1  0  0  0  0
 17 18  2  0  0  0  0
 17 19  1  0  0  0  0
 14 15  1  0  0  0  0
 14 16  2  0  0  0  0
 11 12  1  0  0  0  0
 11 13  1  0  0  0  0
 11 14  1  0  0  0  0
  9 10  1  0  0  0  0
  9 11  1  0  0  0  0
  9 17  1  0  0  0  0
  7  8  1  0  0  0  0
  7  9  1  0  0  0  0
 21 22  1  0  0  0  0
 21 23  1  0  0  0  0
 21 24  1  0  0  0  0
 19 20  1  0  0  0  0
 19 21  1  0  0  0  0
M  CHG  1  15  -1
M  END
$$$$
default_name
  -OEChem-02102213163D

 24 23  0     1  0  0  0  0  0999 V2000
   -2.8347   -3.7166    0.8034 H   0  0  0  0  0  0  0  0  0  0  0  0
   -2.7728   -2.7096    0.3954 C   0  0  0  0  0  0  0  0  0  0  0  0
   -3.4267   -2.0426    0.9524 H   0  0  0  0  0  0  0  0  0  0  0  0
   -3.0538   -2.7186   -0.6556 H   0  0  0  0  0  0  0  0  0  0  0  0
   -1.3498   -2.2206    0.5184 C   0  0  0  0  0  0  0  0  0  0  0  0
   -0.4997   -2.9426    1.0194 O   0  0  0  0  0  0  0  0  0  0  0  0
   -1.1198   -0.9926    0.0674 N   0  0  0  0  0  0  0  0  0  0  0  0
   -1.8978   -0.4486   -0.2716 H   0  0  0  0  0  0  0  0  0  0  0  0
    0.1693   -0.2866    0.0854 C   0  0  1  0  0  0  0  0  0  0  0  0
    0.9043   -0.8713   -0.4705 H   0  0  0  0  0  0  0  0  0  0  0  0
    0.0106    1.0816   -0.6124 C   0  0  0  0  0  0  0  0  0  0  0  0
   -1.0123    1.4331   -0.4658 H   0  0  0  0  0  0  0  0  0  0  0  0
    0.6810    1.7998   -0.1354 H   0  0  0  0  0  0  0  0  0  0  0  0
    0.2826    1.0615   -2.1247 C   0  0  0  0  0  0  0  0  0  0  0  0
    0.3197   -0.0454   -2.7120 O   0  5  0  0  0  0  0  0  0  0  0  0
    0.4721    2.1642   -2.6818 O   0  0  0  0  0  0  0  0  0  0  0  0
    0.6664   -0.1450    1.5428 C   0  0  0  0  0  0  0  0  0  0  0  0
    1.8485   -0.3724    1.8265 O   0  0  0  0  0  0  0  0  0  0  0  0
   -0.2161    0.2434    2.4686 N   0  0  0  0  0  0  0  0  0  0  0  0
   -1.1850    0.3219    2.1537 H   0  0  0  0  0  0  0  0  0  0  0  0
    0.0735    0.4128    3.8885 C   0  0  0  0  0  0  0  0  0  0  0  0
    1.0159    0.9483    4.0105 H   0  0  0  0  0  0  0  0  0  0  0  0
   -0.7315    0.9748    4.3613 H   0  0  0  0  0  0  0  0  0  0  0  0
    0.1564   -0.5677    4.3577 H   0  0  0  0  0  0  0  0  0  0  0  0
  5  6  2  0  0  0  0
  5  7  1  0  0  0  0
  2  3  1  0  0  0  0
  2  4  1  0  0  0  0
  2  5  1  0  0  0  0
  1  2  1  0  0  0  0
 17 18  2  0  0  0  0
 17 19  1  0  0  0  0
 14 15  1  0  0  0  0
 14 16  2  0  0  0  0
 11 12  1  0  0  0  0
 11 13  1  0  0  0  0
 11 14  1  0  0  0  0
  9 10  1  0  0  0  0
  9 11  1  0  0  0  0
  9 17  1  0  0  0  0
  7  8  1  0  0  0  0
  7  9  1  0  0  0  0
 21 22  1  0  0  0  0
 21 23  1  0  0  0  0
 21 24  1  0  0  0  0
 19 20  1  0  0  0  0
 19 21  1  0  0  0  0
M  CHG  1  15  -1
M  END
$$$$
default_name
  -OEChem-02102213163D

 24 23  0     1  0  0  0  0  0999 V2000
   -2.8347   -3.7166    0.8034 H   0  0  0  0  0  0  0  0  0  0  0  0
   -2.7728   -2.7096    0.3954 C   0  0  0  0  0  0  0  0  0  0  0  0
   -3.4267   -2.0426    0.9524 H   0  0  0  0  0  0  0  0  0  0  0  0
   -3.0538   -2.7186   -0.6556 H   0  0  0  0  0  0  0  0  0  0  0  0
   -1.3498   -2.2206    0.5184 C   0  0  0  0  0  0  0  0  0  0  0  0
   -0.4997   -2.9426    1.0194 O   0  0  0  0  0  0  0  0  0  0  0  0
   -1.1198   -0.9926    0.0674 N   0  0  0  0  0  0  0  0  0  0  0  0
   -1.8978   -0.4486   -0.2716 H   0  0  0  0  0  0  0  0  0  0  0  0
    0.1693   -0.2866    0.0854 C   0  0  1  0  0  0  0  0  0  0  0  0
    0.9043   -0.8713   -0.4705 H   0  0  0  0  0  0  0  0  0  0  0  0
    0.0106    1.0816   -0.6124 C   0  0  0  0  0  0  0  0  0  0  0  0
   -1.0123    1.4331   -0.4658 H   0  0  0  0  0  0  0  0  0  0  0  0
    0.6810    1.7998   -0.1354 H   0  0  0  0  0  0  0  0  0  0  0  0
    0.2826    1.0615   -2.1247 C   0  0  0  0  0  0  0  0  0  0  0  0
    0.0421    0.0095   -2.7627 O   0  5  0  0  0  0  0  0  0  0  0  0
    0.7518    2.1037   -2.6306 O   0  0  0  0  0  0  0  0  0  0  0  0
    0.6664   -0.1450    1.5428 C   0  0  0  0  0  0  0  0  0  0  0  0
    1.8485   -0.3724    1.8265 O   0  0  0  0  0  0  0  0  0  0  0  0
   -0.2161    0.2434    2.4686 N   0  0  0  0  0  0  0  0  0  0  0  0
   -1.1850    0.3219    2.1537 H   0  0  0  0  0  0  0  0  0  0  0  0
    0.0735    0.4128    3.8885 C   0  0  0  0  0  0  0  0  0  0  0  0
    1.0159    0.9483    4.0105 H   0  0  0  0  0  0  0  0  0  0  0  0
   -0.7315    0.9748    4.3613 H   0  0  0  0  0  0  0  0  0  0  0  0
    0.1564   -0.5677    4.3577 H   0  0  0  0  0  0  0  0  0  0  0  0
  5  6  2  0  0  0  0
  5  7  1  0  0  0  0
  2  3  1  0  0  0  0
  2  4  1  0  0  0  0
  2  5  1  0  0  0  0
  1  2  1  0  0  0  0
 17 18  2  0  0  0  0
 17 19  1  0  0  0  0
 14 15  1  0  0  0  0
 14 16  2  0  0  0  0
 11 12  1  0  0  0  0
 11 13  1  0  0  0  0
 11 14  1  0  0  0  0
  9 10  1  0  0  0  0
  9 11  1  0  0  0  0
  9 17  1  0  0  0  0
  7  8  1  0  0  0  0
  7  9  1  0  0  0  0
 21 22  1  0  0  0  0
 21 23  1  0  0  0  0
 21 24  1  0  0  0  0
 19 20  1  0  0  0  0
 19 21  1  0  0  0  0
M  CHG  1  15  -1
M  END
$$$$
default_name
  -OEChem-02102213163D

 24 23  0     1  0  0  0  0  0999 V2000
   -2.8347   -3.7166    0.8034 H   0  0  0  0  0  0  0  0  0  0  0  0
   -2.7728   -2.7096    0.3954 C   0  0  0  0  0  0  0  0  0  0  0  0
   -3.4267   -2.0426    0.9524 H   0  0  0  0  0  0  0  0  0  0  0  0
   -3.0538   -2.7186   -0.6556 H   0  0  0  0  0  0  0  0  0  0  0  0
   -1.3498   -2.2206    0.5184 C   0  0  0  0  0  0  0  0  0  0  0  0
   -0.4997   -2.9426    1.0194 O   0  0  0  0  0  0  0  0  0  0  0  0
   -1.1198   -0.9926    0.0674 N   0  0  0  0  0  0  0  0  0  0  0  0
   -1.8978   -0.4486   -0.2716 H   0  0  0  0  0  0  0  0  0  0  0  0
    0.1693   -0.2866    0.0854 C   0  0  1  0  0  0  0  0  0  0  0  0
    0.9043   -0.8713   -0.4705 H   0  0  0  0  0  0  0  0  0  0  0  0
    0.0106    1.0816   -0.6124 C   0  0  0  0  0  0  0  0  0  0  0  0
   -1.0123    1.4331   -0.4658 H   0  0  0  0  0  0  0  0  0  0  0  0
    0.6810    1.7998   -0.1354 H   0  0  0  0  0  0  0  0  0  0  0  0
    0.2826    1.0615   -2.1247 C   0  0  0  0  0  0  0  0  0  0  0  0
   -0.2119    0.1356   -2.8101 O   0  5  0  0  0  0  0  0  0  0  0  0
    1.0064    1.9716   -2.5831 O   0  0  0  0  0  0  0  0  0  0  0  0
    0.6664   -0.1450    1.5428 C   0  0  0  0  0  0  0  0  0  0  0  0
    1.8485   -0.3724    1.8265 O   0  0  0  0  0  0  0  0  0  0  0  0
   -0.2161    0.2434    2.4686 N   0  0  0  0  0  0  0  0  0  0  0  0
   -1.1850    0.3219    2.1537 H   0  0  0  0  0  0  0  0  0  0  0  0
    0.0735    0.4128    3.8885 C   0  0  0  0  0  0  0  0  0  0  0  0
    1.0159    0.9483    4.0105 H   0  0  0  0  0  0  0  0  0  0  0  0
   -0.7315    0.9748    4.3613 H   0  0  0  0  0  0  0  0  0  0  0  0
    0.1564   -0.5677    4.3577 H   0  0  0  0  0  0  0  0  0  0  0  0
  5  6  2  0  0  0  0
  5  7  1  0  0  0  0
  2  3  1  0  0  0  0
  2  4  1  0  0  0  0
  2  5  1  0  0  0  0
  1  2  1  0  0  0  0
 17 18  2  0  0  0  0
 17 19  1  0  0  0  0
 14 15  1  0  0  0  0
 14 16  2  0  0  0  0
 11 12  1  0  0  0  0
 11 13  1  0  0  0  0
 11 14  1  0  0  0  0
  9 10  1  0  0  0  0
  9 11  1  0  0  0  0
  9 17  1  0  0  0  0
  7  8  1  0  0  0  0
  7  9  1  0  0  0  0
 21 22  1  0  0  0  0
 21 23  1  0  0  0  0
 21 24  1  0  0  0  0
 19 20  1  0  0  0  0
 19 21  1  0  0  0  0
M  CHG  1  15  -1
M  END
$$$$
default_name
  -OEChem-02102213163D

 24 23  0     1  0  0  0  0  0999 V2000
   -2.8347   -3.7166    0.8034 H   0  0  0  0  0  0  0  0  0  0  0  0
   -2.7728   -2.7096    0.3954 C   0  0  0  0  0  0  0  0  0  0  0  0
   -3.4267   -2.0426    0.9524 H   0  0  0  0  0  0  0  0  0  0  0  0
   -3.0538   -2.7186   -0.6556 H   0  0  0  0  0  0  0  0  0  0  0  0
   -1.3498   -2.2206    0.5184 C   0  0  0  0  0  0  0  0  0  0  0  0
   -0.4997   -2.9426    1.0194 O   0  0  0  0  0  0  0  0  0  0  0  0
   -1.1198   -0.9926    0.0674 N   0  0  0  0  0  0  0  0  0  0  0  0
   -1.8978   -0.4486   -0.2716 H   0  0  0  0  0  0  0  0  0  0  0  0
    0.1693   -0.2866    0.0854 C   0  0  1  0  0  0  0  0  0  0  0  0
    0.9043   -0.8713   -0.4705 H   0  0  0  0  0  0  0  0  0  0  0  0
    0.0106    1.0816   -0.6124 C   0  0  0  0  0  0  0  0  0  0  0  0
   -1.0123    1.4331   -0.4658 H   0  0  0  0  0  0  0  0  0  0  0  0
    0.6810    1.7998   -0.1354 H   0  0  0  0  0  0  0  0  0  0  0  0
    0.2826    1.0615   -2.1247 C   0  0  0  0  0  0  0  0  0  0  0  0
   -0.4250    0.3242   -2.8509 O   0  5  0  0  0  0  0  0  0  0  0  0
    1.2185    1.7770   -2.5423 O   0  0  0  0  0  0  0  0  0  0  0  0
    0.6664   -0.1450    1.5428 C   0  0  0  0  0  0  0  0  0  0  0  0
    1.8485   -0.3724    1.8265 O   0  0  0  0  0  0  0  0  0  0  0  0
   -0.2161    0.2434    2.4686 N   0  0  0  0  0  0  0  0  0  0  0  0
   -1.1850    0.3219    2.1537 H   0  0  0  0  0  0  0  0  0  0  0  0
    0.0735    0.4128    3.8885 C   0  0  0  0  0  0  0  0  0  0  0  0
    1.0159    0.9483    4.0105 H   0  0  0  0  0  0  0  0  0  0  0  0
   -0.7315    0.9748    4.3613 H   0  0  0  0  0  0  0  0  0  0  0  0
    0.1564   -0.5677    4.3577 H   0  0  0  0  0  0  0  0  0  0  0  0
  5  6  2  0  0  0  0
  5  7  1  0  0  0  0
  2  3  1  0  0  0  0
  2  4  1  0  0  0  0
  2  5  1  0  0  0  0
  1  2  1  0  0  0  0
 17 18  2  0  0  0  0
 17 19  1  0  0  0  0
 14 15  1  0  0  0  0
 14 16  2  0  0  0  0
 11 12  1  0  0  0  0
 11 13  1  0  0  0  0
 11 14  1  0  0  0  0
  9 10  1  0  0  0  0
  9 11  1  0  0  0  0
  9 17  1  0  0  0  0
  7  8  1  0  0  0  0
  7  9  1  0  0  0  0
 21 22  1  0  0  0  0
 21 23  1  0  0  0  0
 21 24  1  0  0  0  0
 19 20  1  0  0  0  0
 19 21  1  0  0  0  0
M  CHG  1  15  -1
M  END
$$$$
default_name
  -OEChem-02102213163D

 24 23  0     1  0  0  0  0  0999 V2000
   -2.8347   -3.7166    0.8034 H   0  0  0  0  0  0  0  0  0  0  0  0
   -2.7728   -2.7096    0.3954 C   0  0  0  0  0  0  0  0  0  0  0  0
   -3.4267   -2.0426    0.9524 H   0  0  0  0  0  0  0  0  0  0  0  0
   -3.0538   -2.7186   -0.6556 H   0  0  0  0  0  0  0  0  0  0  0  0
   -1.3498   -2.2206    0.5184 C   0  0  0  0  0  0  0  0  0  0  0  0
   -0.4997   -2.9426    1.0194 O   0  0  0  0  0  0  0  0  0  0  0  0
   -1.1198   -0.9926    0.0674 N   0  0  0  0  0  0  0  0  0  0  0  0
   -1.8978   -0.4486   -0.2716 H   0  0  0  0  0  0  0  0  0  0  0  0
    0.1693   -0.2866    0.0854 C   0  0  1  0  0  0  0  0  0  0  0  0
    0.9043   -0.8713   -0.4705 H   0  0  0  0  0  0  0  0  0  0  0  0
    0.0106    1.0816   -0.6124 C   0  0  0  0  0  0  0  0  0  0  0  0
   -1.0123    1.4331   -0.4658 H   0  0  0  0  0  0  0  0  0  0  0  0
    0.6810    1.7998   -0.1354 H   0  0  0  0  0  0  0  0  0  0  0  0
    0.2826    1.0615   -2.1247 C   0  0  0  0  0  0  0  0  0  0  0  0
   -0.5826    0.5626   -2.8824 O   0  5  0  0  0  0  0  0  0  0  0  0
    1.3737    1.5331   -2.5112 O   0  0  0  0  0  0  0  0  0  0  0  0
    0.6664   -0.1450    1.5428 C   0  0  0  0  0  0  0  0  0  0  0  0
    1.8485   -0.3724    1.8265 O   0  0  0  0  0  0  0  0  0  0  0  0
   -0.2161    0.2434    2.4686 N   0  0  0  0  0  0  0  0  0  0  0  0
   -1.1850    0.3219    2.1537 H   0  0  0  0  0  0  0  0  0  0  0  0
    0.0735    0.4128    3.8885 C   0  0  0  0  0  0  0  0  0  0  0  0
    1.0159    0.9483    4.0105 H   0  0  0  0  0  0  0  0  0  0  0  0
   -0.7315    0.9748    4.3613 H   0  0  0  0  0  0  0  0  0  0  0  0
    0.1564   -0.5677    4.3577 H   0  0  0  0  0  0  0  0  0  0  0  0
  5  6  2  0  0  0  0
  5  7  1  0  0  0  0
  2  3  1  0  0  0  0
  2  4  1  0  0  0  0
  2  5  1  0  0  0  0
  1  2  1  0  0  0  0
 17 18  2  0  0  0  0
 17 19  1  0  0  0  0
 14 15  1  0  0  0  0
 14 16  2  0  0  0  0
 11 12  1  0  0  0  0
 11 13  1  0  0  0  0
 11 14  1  0  0  0  0
  9 10  1  0  0  0  0
  9 11  1  0  0  0  0
  9 17  1  0  0  0  0
  7  8  1  0  0  0  0
  7  9  1  0  0  0  0
 21 22  1  0  0  0  0
 21 23  1  0  0  0  0
 21 24  1  0  0  0  0
 19 20  1  0  0  0  0
 19 21  1  0  0  0  0
M  CHG  1  15  -1
M  END
$$$$
default_name
  -OEChem-02102213163D

 24 23  0     1  0  0  0  0  0999 V2000
   -2.8347   -3.7166    0.8034 H   0  0  0  0  0  0  0  0  0  0  0  0
   -2.7728   -2.7096    0.3954 C   0  0  0  0  0  0  0  0  0  0  0  0
   -3.4267   -2.0426    0.9524 H   0  0  0  0  0  0  0  0  0  0  0  0
   -3.0538   -2.7186   -0.6556 H   0  0  0  0  0  0  0  0  0  0  0  0
   -1.3498   -2.2206    0.5184 C   0  0  0  0  0  0  0  0  0  0  0  0
   -0.4997   -2.9426    1.0194 O   0  0  0  0  0  0  0  0  0  0  0  0
   -1.1198   -0.9926    0.0674 N   0  0  0  0  0  0  0  0  0  0  0  0
   -1.8978   -0.4486   -0.2716 H   0  0  0  0  0  0  0  0  0  0  0  0
    0.1693   -0.2866    0.0854 C   0  0  1  0  0  0  0  0  0  0  0  0
    0.9043   -0.8713   -0.4705 H   0  0  0  0  0  0  0  0  0  0  0  0
    0.0106    1.0816   -0.6124 C   0  0  0  0  0  0  0  0  0  0  0  0
   -1.0123    1.4331   -0.4658 H   0  0  0  0  0  0  0  0  0  0  0  0
    0.6810    1.7998   -0.1354 H   0  0  0  0  0  0  0  0  0  0  0  0
    0.2826    1.0615   -2.1247 C   0  0  0  0  0  0  0  0  0  0  0  0
   -0.6740    0.8344   -2.9025 O   0  5  0  0  0  0  0  0  0  0  0  0
    1.4613    1.2566   -2.4917 O   0  0  0  0  0  0  0  0  0  0  0  0
    0.6664   -0.1450    1.5428 C   0  0  0  0  0  0  0  0  0  0  0  0
    1.8485   -0.3724    1.8265 O   0  0  0  0  0  0  0  0  0  0  0  0
   -0.2161    0.2434    2.4686 N   0  0  0  0  0  0  0  0  0  0  0  0
   -1.1850    0.3219    2.1537 H   0  0  0  0  0  0  0  0  0  0  0  0
    0.0735    0.4128    3.8885 C   0  0  0  0  0  0  0  0  0  0  0  0
    1.0159    0.9483    4.0105 H   0  0  0  0  0  0  0  0  0  0  0  0
   -0.7315    0.9748    4.3613 H   0  0  0  0  0  0  0  0  0  0  0  0
    0.1564   -0.5677    4.3577 H   0  0  0  0  0  0  0  0  0  0  0  0
  5  6  2  0  0  0  0
  5  7  1  0  0  0  0
  2  3  1  0  0  0  0
  2  4  1  0  0  0  0
  2  5  1  0  0  0  0
  1  2  1  0  0  0  0
 17 18  2  0  0  0  0
 17 19  1  0  0  0  0
 14 15  1  0  0  0  0
 14 16  2  0  0  0  0
 11 12  1  0  0  0  0
 11 13  1  0  0  0  0
 11 14  1  0  0  0  0
  9 10  1  0  0  0  0
  9 11  1  0  0  0  0
  9 17  1  0  0  0  0
  7  8  1  0  0  0  0
  7  9  1  0  0  0  0
 21 22  1  0  0  0  0
 21 23  1  0  0  0  0
 21 24  1  0  0  0  0
 19 20  1  0  0  0  0
 19 21  1  0  0  0  0
M  CHG  1  15  -1
M  END
$$$$
default_name
  -OEChem-02102213163D

 24 23  0     1  0  0  0  0  0999 V2000
   -2.8347   -3.7166    0.8034 H   0  0  0  0  0  0  0  0  0  0  0  0
   -2.7728   -2.7096    0.3954 C   0  0  0  0  0  0  0  0  0  0  0  0
   -3.4267   -2.0426    0.9524 H   0  0  0  0  0  0  0  0  0  0  0  0
   -3.0538   -2.7186   -0.6556 H   0  0  0  0  0  0  0  0  0  0  0  0
   -1.3498   -2.2206    0.5184 C   0  0  0  0  0  0  0  0  0  0  0  0
   -0.4997   -2.9426    1.0194 O   0  0  0  0  0  0  0  0  0  0  0  0
   -1.1198   -0.9926    0.0674 N   0  0  0  0  0  0  0  0  0  0  0  0
   -1.8978   -0.4486   -0.2716 H   0  0  0  0  0  0  0  0  0  0  0  0
    0.1693   -0.2866    0.0854 C   0  0  1  0  0  0  0  0  0  0  0  0
    0.9043   -0.8713   -0.4705 H   0  0  0  0  0  0  0  0  0  0  0  0
    0.0106    1.0816   -0.6124 C   0  0  0  0  0  0  0  0  0  0  0  0
   -1.0123    1.4331   -0.4658 H   0  0  0  0  0  0  0  0  0  0  0  0
    0.6810    1.7998   -0.1354 H   0  0  0  0  0  0  0  0  0  0  0  0
    0.2826    1.0615   -2.1247 C   0  0  0  0  0  0  0  0  0  0  0  0
   -0.6930    1.1212   -2.9097 O   0  5  0  0  0  0  0  0  0  0  0  0
    1.4755    0.9663   -2.4853 O   0  0  0  0  0  0  0  0  0  0  0  0
    0.6664   -0.1450    1.5428 C   0  0  0  0  0  0  0  0  0  0  0  0
    1.8485   -0.3724    1.8265 O   0  0  0  0  0  0  0  0  0  0  0  0
   -0.2161    0.2434    2.4686 N   0  0  0  0  0  0  0  0  0  0  0  0
   -1.1850    0.3219    2.1537 H   0  0  0  0  0  0  0  0  0  0  0  0
    0.0735    0.4128    3.8885 C   0  0  0  0  0  0  0  0  0  0  0  0
    1.0159    0.9483    4.0105 H   0  0  0  0  0  0  0  0  0  0  0  0
   -0.7315    0.9748    4.3613 H   0  0  0  0  0  0  0  0  0  0  0  0
    0.1564   -0.5677    4.3577 H   0  0  0  0  0  0  0  0  0  0  0  0
  5  6  2  0  0  0  0
  5  7  1  0  0  0  0
  2  3  1  0  0  0  0
  2  4  1  0  0  0  0
  2  5  1  0  0  0  0
  1  2  1  0  0  0  0
 17 18  2  0  0  0  0
 17 19  1  0  0  0  0
 14 15  1  0  0  0  0
 14 16  2  0  0  0  0
 11 12  1  0  0  0  0
 11 13  1  0  0  0  0
 11 14  1  0  0  0  0
  9 10  1  0  0  0  0
  9 11  1  0  0  0  0
  9 17  1  0  0  0  0
  7  8  1  0  0  0  0
  7  9  1  0  0  0  0
 21 22  1  0  0  0  0
 21 23  1  0  0  0  0
 21 24  1  0  0  0  0
 19 20  1  0  0  0  0
 19 21  1  0  0  0  0
M  CHG  1  15  -1
M  END
$$$$
default_name
  -OEChem-02102213163D

 24 23  0     1  0  0  0  0  0999 V2000
   -2.8347   -3.7166    0.8034 H   0  0  0  0  0  0  0  0  0  0  0  0
   -2.7728   -2.7096    0.3954 C   0  0  0  0  0  0  0  0  0  0  0  0
   -3.4267   -2.0426    0.9524 H   0  0  0  0  0  0  0  0  0  0  0  0
   -3.0538   -2.7186   -0.6556 H   0  0  0  0  0  0  0  0  0  0  0  0
   -1.3498   -2.2206    0.5184 C   0  0  0  0  0  0  0  0  0  0  0  0
   -0.4997   -2.9426    1.0194 O   0  0  0  0  0  0  0  0  0  0  0  0
   -1.1198   -0.9926    0.0674 N   0  0  0  0  0  0  0  0  0  0  0  0
   -1.8978   -0.4486   -0.2716 H   0  0  0  0  0  0  0  0  0  0  0  0
    0.1693   -0.2866    0.0854 C   0  0  1  0  0  0  0  0  0  0  0  0
    0.9043   -0.8713   -0.4705 H   0  0  0  0  0  0  0  0  0  0  0  0
    0.0106    1.0816   -0.6124 C   0  0  0  0  0  0  0  0  0  0  0  0
   -1.0123    1.4331   -0.4658 H   0  0  0  0  0  0  0  0  0  0  0  0
    0.6810    1.7998   -0.1354 H   0  0  0  0  0  0  0  0  0  0  0  0
    0.2826    1.0615   -2.1247 C   0  0  0  0  0  0  0  0  0  0  0  0
   -0.6383    1.4033   -2.9037 O   0  5  0  0  0  0  0  0  0  0  0  0
    1.4153    0.6819   -2.4924 O   0  0  0  0  0  0  0  0  0  0  0  0
    0.6664   -0.1450    1.5428 C   0  0  0  0  0  0  0  0  0  0  0  0
    1.8485   -0.3724    1.8265 O   0  0  0  0  0  0  0  0  0  0  0  0
   -0.2161    0.2434    2.4686 N   0  0  0  0  0  0  0  0  0  0  0  0
   -1.1850    0.3219    2.1537 H   0  0  0  0  0  0  0  0  0  0  0  0
    0.0735    0.4128    3.8885 C   0  0  0  0  0  0  0  0  0  0  0  0
    1.0159    0.9483    4.0105 H   0  0  0  0  0  0  0  0  0  0  0  0
   -0.7315    0.9748    4.3613 H   0  0  0  0  0  0  0  0  0  0  0  0
    0.1564   -0.5677    4.3577 H   0  0  0  0  0  0  0  0  0  0  0  0
  5  6  2  0  0  0  0
  5  7  1  0  0  0  0
  2  3  1  0  0  0  0
  2  4  1  0  0  0  0
  2  5  1  0  0  0  0
  1  2  1  0  0  0  0
 17 18  2  0  0  0  0
 17 19  1  0  0  0  0
 14 15  1  0  0  0  0
 14 16  2  0  0  0  0
 11 12  1  0  0  0  0
 11 13  1  0  0  0  0
 11 14  1  0  0  0  0
  9 10  1  0  0  0  0
  9 11  1  0  0  0  0
  9 17  1  0  0  0  0
  7  8  1  0  0  0  0
  7  9  1  0  0  0  0
 21 22  1  0  0  0  0
 21 23  1  0  0  0  0
 21 24  1  0  0  0  0
 19 20  1  0  0  0  0
 19 21  1  0  0  0  0
M  CHG  1  15  -1
M  END
$$$$
default_name
  -OEChem-02102213163D

 24 23  0     1  0  0  0  0  0999 V2000
   -2.8347   -3.7166    0.8034 H   0  0  0  0  0  0  0  0  0  0  0  0
   -2.7728   -2.7096    0.3954 C   0  0  0  0  0  0  0  0  0  0  0  0
   -3.4267   -2.0426    0.9524 H   0  0  0  0  0  0  0  0  0  0  0  0
   -3.0538   -2.7186   -0.6556 H   0  0  0  0  0  0  0  0  0  0  0  0
   -1.3498   -2.2206    0.5184 C   0  0  0  0  0  0  0  0  0  0  0  0
   -0.4997   -2.9426    1.0194 O   0  0  0  0  0  0  0  0  0  0  0  0
   -1.1198   -0.9926    0.0674 N   0  0  0  0  0  0  0  0  0  0  0  0
   -1.8978   -0.4486   -0.2716 H   0  0  0  0  0  0  0  0  0  0  0  0
    0.1693   -0.2866    0.0854 C   0  0  1  0  0  0  0  0  0  0  0  0
    0.9043   -0.8713   -0.4705 H   0  0  0  0  0  0  0  0  0  0  0  0
    0.0106    1.0816   -0.6124 C   0  0  0  0  0  0  0  0  0  0  0  0
   -1.0123    1.4331   -0.4658 H   0  0  0  0  0  0  0  0  0  0  0  0
    0.6810    1.7998   -0.1354 H   0  0  0  0  0  0  0  0  0  0  0  0
    0.2826    1.0615   -2.1247 C   0  0  0  0  0  0  0  0  0  0  0  0
   -0.5136    1.6617   -2.8847 O   0  5  0  0  0  0  0  0  0  0  0  0
    1.2846    0.4230   -2.5124 O   0  0  0  0  0  0  0  0  0  0  0  0
    0.6664   -0.1450    1.5428 C   0  0  0  0  0  0  0  0  0  0  0  0
    1.8485   -0.3724    1.8265 O   0  0  0  0  0  0  0  0  0  0  0  0
   -0.2161    0.2434    2.4686 N   0  0  0  0  0  0  0  0  0  0  0  0
   -1.1850    0.3219    2.1537 H   0  0  0  0  0  0  0  0  0  0  0  0
    0.0735    0.4128    3.8885 C   0  0  0  0  0  0  0  0  0  0  0  0
    1.0159    0.9483    4.0105 H   0  0  0  0  0  0  0  0  0  0  0  0
   -0.7315    0.9748    4.3613 H   0  0  0  0  0  0  0  0  0  0  0  0
    0.1564   -0.5677    4.3577 H   0  0  0  0  0  0  0  0  0  0  0  0
  5  6  2  0  0  0  0
  5  7  1  0  0  0  0
  2  3  1  0  0  0  0
  2  4  1  0  0  0  0
  2  5  1  0  0  0  0
  1  2  1  0  0  0  0
 17 18  2  0  0  0  0
 17 19  1  0  0  0  0
 14 15  1  0  0  0  0
 14 16  2  0  0  0  0
 11 12  1  0  0  0  0
 11 13  1  0  0  0  0
 11 14  1  0  0  0  0
  9 10  1  0  0  0  0
  9 11  1  0  0  0  0
  9 17  1  0  0  0  0
  7  8  1  0  0  0  0
  7  9  1  0  0  0  0
 21 22  1  0  0  0  0
 21 23  1  0  0  0  0
 21 24  1  0  0  0  0
 19 20  1  0  0  0  0
 19 21  1  0  0  0  0
M  CHG  1  15  -1
M  END
$$$$
default_name
  -OEChem-02102213163D

 24 23  0     1  0  0  0  0  0999 V2000
   -2.8347   -3.7166    0.8034 H   0  0  0  0  0  0  0  0  0  0  0  0
   -2.7728   -2.7096    0.3954 C   0  0  0  0  0  0  0  0  0  0  0  0
   -3.4267   -2.0426    0.9524 H   0  0  0  0  0  0  0  0  0  0  0  0
   -3.0538   -2.7186   -0.6556 H   0  0  0  0  0  0  0  0  0  0  0  0
   -1.3498   -2.2206    0.5184 C   0  0  0  0  0  0  0  0  0  0  0  0
   -0.4997   -2.9426    1.0194 O   0  0  0  0  0  0  0  0  0  0  0  0
   -1.1198   -0.9926    0.0674 N   0  0  0  0  0  0  0  0  0  0  0  0
   -1.8978   -0.4486   -0.2716 H   0  0  0  0  0  0  0  0  0  0  0  0
    0.1693   -0.2866    0.0854 C   0  0  1  0  0  0  0  0  0  0  0  0
    0.9043   -0.8713   -0.4705 H   0  0  0  0  0  0  0  0  0  0  0  0
    0.0106    1.0816   -0.6124 C   0  0  0  0  0  0  0  0  0  0  0  0
   -1.0123    1.4331   -0.4658 H   0  0  0  0  0  0  0  0  0  0  0  0
    0.6810    1.7998   -0.1354 H   0  0  0  0  0  0  0  0  0  0  0  0
    0.2826    1.0615   -2.1247 C   0  0  0  0  0  0  0  0  0  0  0  0
   -0.3274    1.8786   -2.8540 O   0  5  0  0  0  0  0  0  0  0  0  0
    1.0926    0.2070   -2.5441 O   0  0  0  0  0  0  0  0  0  0  0  0
    0.6664   -0.1450    1.5428 C   0  0  0  0  0  0  0  0  0  0  0  0
    1.8485   -0.3724    1.8265 O   0  0  0  0  0  0  0  0  0  0  0  0
   -0.2161    0.2434    2.4686 N   0  0  0  0  0  0  0  0  0  0  0  0
   -1.1850    0.3219    2.1537 H   0  0  0  0  0  0  0  0  0  0  0  0
    0.0735    0.4128    3.8885 C   0  0  0  0  0  0  0  0  0  0  0  0
    1.0159    0.9483    4.0105 H   0  0  0  0  0  0  0  0  0  0  0  0
   -0.7315    0.9748    4.3613 H   0  0  0  0  0  0  0  0  0  0  0  0
    0.1564   -0.5677    4.3577 H   0  0  0  0  0  0  0  0  0  0  0  0
  5  6  2  0  0  0  0
  5  7  1  0  0  0  0
  2  3  1  0  0  0  0
  2  4  1  0  0  0  0
  2  5  1  0  0  0  0
  1  2  1  0  0  0  0
 17 18  2  0  0  0  0
 17 19  1  0  0  0  0
 14 15  1  0  0  0  0
 14 16  2  0  0  0  0
 11 12  1  0  0  0  0
 11 13  1  0  0  0  0
 11 14  1  0  0  0  0
  9 10  1  0  0  0  0
  9 11  1  0  0  0  0
  9 17  1  0  0  0  0
  7  8  1  0  0  0  0
  7  9  1  0  0  0  0
 21 22  1  0  0  0  0
 21 23  1  0  0  0  0
 21 24  1  0  0  0  0
 19 20  1  0  0  0  0
 19 21  1  0  0  0  0
M  CHG  1  15  -1
M  END
$$$$
default_name
  -OEChem-02102213163D

 24 23  0     1  0  0  0  0  0999 V2000
   -2.8347   -3.7166    0.8034 H   0  0  0  0  0  0  0  0  0  0  0  0
   -2.7728   -2.7096    0.3954 C   0  0  0  0  0  0  0  0  0  0  0  0
   -3.4267   -2.0426    0.9524 H   0  0  0  0  0  0  0  0  0  0  0  0
   -3.0538   -2.7186   -0.6556 H   0  0  0  0  0  0  0  0  0  0  0  0
   -1.3498   -2.2206    0.5184 C   0  0  0  0  0  0  0  0  0  0  0  0
   -0.4997   -2.9426    1.0194 O   0  0  0  0  0  0  0  0  0  0  0  0
   -1.1198   -0.9926    0.0674 N   0  0  0  0  0  0  0  0  0  0  0  0
   -1.8978   -0.4486   -0.2716 H   0  0  0  0  0  0  0  0  0  0  0  0
    0.1693   -0.2866    0.0854 C   0  0  1  0  0  0  0  0  0  0  0  0
    0.9043   -0.8713   -0.4705 H   0  0  0  0  0  0  0  0  0  0  0  0
    0.0106    1.0816   -0.6124 C   0  0  0  0  0  0  0  0  0  0  0  0
   -1.0123    1.4331   -0.4658 H   0  0  0  0  0  0  0  0  0  0  0  0
    0.6810    1.7998   -0.1354 H   0  0  0  0  0  0  0  0  0  0  0  0
    0.2826    1.0615   -2.1247 C   0  0  0  0  0  0  0  0  0  0  0  0
   -0.0924    2.0393   -2.8139 O   0  5  0  0  0  0  0  0  0  0  0  0
    0.8522    0.0488   -2.5852 O   0  0  0  0  0  0  0  0  0  0  0  0
    0.6664   -0.1450    1.5428 C   0  0  0  0  0  0  0  0  0  0  0  0
    1.8485   -0.3724    1.8265 O   0  0  0  0  0  0  0  0  0  0  0  0
   -0.2161    0.2434    2.4686 N   0  0  0  0  0  0  0  0  0  0  0  0
   -1.1850    0.3219    2.1537 H   0  0  0  0  0  0  0  0  0  0  0  0
    0.0735    0.4128    3.8885 C   0  0  0  0  0  0  0  0  0  0  0  0
    1.0159    0.9483    4.0105 H   0  0  0  0  0  0  0  0  0  0  0  0
   -0.7315    0.9748    4.3613 H   0  0  0  0  0  0  0  0  0  0  0  0
    0.1564   -0.5677    4.3577 H   0  0  0  0  0  0  0  0  0  0  0  0
  5  6  2  0  0  0  0
  5  7  1  0  0  0  0
  2  3  1  0  0  0  0
  2  4  1  0  0  0  0
  2  5  1  0  0  0  0
  1  2  1  0  0  0  0
 17 18  2  0  0  0  0
 17 19  1  0  0  0  0
 14 15  1  0  0  0  0
 14 16  2  0  0  0  0
 11 12  1  0  0  0  0
 11 13  1  0  0  0  0
 11 14  1  0  0  0  0
  9 10  1  0  0  0  0
  9 11  1  0  0  0  0
  9 17  1  0  0  0  0
  7  8  1  0  0  0  0
  7  9  1  0  0  0  0
 21 22  1  0  0  0  0
 21 23  1  0  0  0  0
 21 24  1  0  0  0  0
 19 20  1  0  0  0  0
 19 21  1  0  0  0  0
M  CHG  1  15  -1
M  END
$$$$
default_name
  -OEChem-02102213163D

 24 23  0     1  0  0  0  0  0999 V2000
   -2.8347   -3.7166    0.8034 H   0  0  0  0  0  0  0  0  0  0  0  0
   -2.7728   -2.7096    0.3954 C   0  0  0  0  0  0  0  0  0  0  0  0
   -3.4267   -2.0426    0.9524 H   0  0  0  0  0  0  0  0  0  0  0  0
   -3.0538   -2.7186   -0.6556 H   0  0  0  0  0  0  0  0  0  0  0  0
   -1.3498   -2.2206    0.5184 C   0  0  0  0  0  0  0  0  0  0  0  0
   -0.4997   -2.9426    1.0194 O   0  0  0  0  0  0  0  0  0  0  0  0
   -1.1198   -0.9926    0.0674 N   0  0  0  0  0  0  0  0  0  0  0  0
   -1.8978   -0.4486   -0.2716 H   0  0  0  0  0  0  0  0  0  0  0  0
    0.1693   -0.2866    0.0854 C   0  0  1  0  0  0  0  0  0  0  0  0
    0.9043   -0.8713   -0.4705 H   0  0  0  0  0  0  0  0  0  0  0  0
    0.0106    1.0816   -0.6124 C   0  0  0  0  0  0  0  0  0  0  0  0
   -0.9039    1.5552   -0.2509 H   0  0  0  0  0  0  0  0  0  0  0  0
    0.8504    1.7202   -0.3299 H   0  0  0  0  0  0  0  0  0  0  0  0
   -0.0781    1.0094   -2.1449 C   0  0  0  0  0  0  0  0  0  0  0  0
   -0.2081    2.0774   -2.7884 O   0  5  0  0  0  0  0  0  0  0  0  0
   -0.0338   -0.1273   -2.6627 O   0  0  0  0  0  0  0  0  0  0  0  0
    0.6664   -0.1450    1.5428 C   0  0  0  0  0  0  0  0  0  0  0  0
    1.8485   -0.3724    1.8265 O   0  0  0  0  0  0  0  0  0  0  0  0
   -0.2161    0.2434    2.4686 N   0  0  0  0  0  0  0  0  0  0  0  0
   -1.1850    0.3219    2.1537 H   0  0  0  0  0  0  0  0  0  0  0  0
    0.0735    0.4128    3.8885 C   0  0  0  0  0  0  0  0  0  0  0  0
    1.0159    0.9483    4.0105 H   0  0  0  0  0  0  0  0  0  0  0  0
   -0.7315    0.9748    4.3613 H   0  0  0  0  0  0  0  0  0  0  0  0
    0.1564   -0.5677    4.3577 H   0  0  0  0  0  0  0  0  0  0  0  0
  5  6  2  0  0  0  0
  5  7  1  0  0  0  0
  2  3  1  0  0  0  0
  2  4  1  0  0  0  0
  2  5  1  0  0  0  0
  1  2  1  0  0  0  0
 17 18  2  0  0  0  0
 17 19  1  0  0  0  0
 14 15  1  0  0  0  0
 14 16  2  0  0  0  0
 11 12  1  0  0  0  0
 11 13  1  0  0  0  0
 11 14  1  0  0  0  0
  9 10  1  0  0  0  0
  9 11  1  0  0  0  0
  9 17  1  0  0  0  0
  7  8  1  0  0  0  0
  7  9  1  0  0  0  0
 21 22  1  0  0  0  0
 21 23  1  0  0  0  0
 21 24  1  0  0  0  0
 19 20  1  0  0  0  0
 19 21  1  0  0  0  0
M  CHG  1  15  -1
M  END
$$$$
default_name
  -OEChem-02102213163D

 24 23  0     1  0  0  0  0  0999 V2000
   -2.8347   -3.7166    0.8034 H   0  0  0  0  0  0  0  0  0  0  0  0
   -2.7728   -2.7096    0.3954 C   0  0  0  0  0  0  0  0  0  0  0  0
   -3.4267   -2.0426    0.9524 H   0  0  0  0  0  0  0  0  0  0  0  0
   -3.0538   -2.7186   -0.6556 H   0  0  0  0  0  0  0  0  0  0  0  0
   -1.3498   -2.2206    0.5184 C   0  0  0  0  0  0  0  0  0  0  0  0
   -0.4997   -2.9426    1.0194 O   0  0  0  0  0  0  0  0  0  0  0  0
   -1.1198   -0.9926    0.0674 N   0  0  0  0  0  0  0  0  0  0  0  0
   -1.8978   -0.4486   -0.2716 H   0  0  0  0  0  0  0  0  0  0  0  0
    0.1693   -0.2866    0.0854 C   0  0  1  0  0  0  0  0  0  0  0  0
    0.9043   -0.8713   -0.4705 H   0  0  0  0  0  0  0  0  0  0  0  0
    0.0106    1.0816   -0.6124 C   0  0  0  0  0  0  0  0  0  0  0  0
   -0.9039    1.5552   -0.2509 H   0  0  0  0  0  0  0  0  0  0  0  0
    0.8504    1.7202   -0.3299 H   0  0  0  0  0  0  0  0  0  0  0  0
   -0.0781    1.0094   -2.1449 C   0  0  0  0  0  0  0  0  0  0  0  0
    0.0787    2.0640   -2.8044 O   0  5  0  0  0  0  0  0  0  0  0  0
   -0.3235   -0.1086   -2.6469 O   0  0  0  0  0  0  0  0  0  0  0  0
    0.6664   -0.1450    1.5428 C   0  0  0  0  0  0  0  0  0  0  0  0
    1.8485   -0.3724    1.8265 O   0  0  0  0  0  0  0  0  0  0  0  0
   -0.2161    0.2434    2.4686 N   0  0  0  0  0  0  0  0  0  0  0  0
   -1.1850    0.3219    2.1537 H   0  0  0  0  0  0  0  0  0  0  0  0
    0.0735    0.4128    3.8885 C   0  0  0  0  0  0  0  0  0  0  0  0
    1.0159    0.9483    4.0105 H   0  0  0  0  0  0  0  0  0  0  0  0
   -0.7315    0.9748    4.3613 H   0  0  0  0  0  0  0  0  0  0  0  0
    0.1564   -0.5677    4.3577 H   0  0  0  0  0  0  0  0  0  0  0  0
  5  6  2  0  0  0  0
  5  7  1  0  0  0  0
  2  3  1  0  0  0  0
  2  4  1  0  0  0  0
  2  5  1  0  0  0  0
  1  2  1  0  0  0  0
 17 18  2  0  0  0  0
 17 19  1  0  0  0  0
 14 15  1  0  0  0  0
 14 16  2  0  0  0  0
 11 12  1  0  0  0  0
 11 13  1  0  0  0  0
 11 14  1  0  0  0  0
  9 10  1  0  0  0  0
  9 11  1  0  0  0  0
  9 17  1  0  0  0  0
  7  8  1  0  0  0  0
  7  9  1  0  0  0  0
 21 22  1  0  0  0  0
 21 23  1  0  0  0  0
 21 24  1  0  0  0  0
 19 20  1  0  0  0  0
 19 21  1  0  0  0  0
M  CHG  1  15  -1
M  END
$$$$
default_name
  -OEChem-02102213163D

 24 23  0     1  0  0  0  0  0999 V2000
   -2.8347   -3.7166    0.8034 H   0  0  0  0  0  0  0  0  0  0  0  0
   -2.7728   -2.7096    0.3954 C   0  0  0  0  0  0  0  0  0  0  0  0
   -3.4267   -2.0426    0.9524 H   0  0  0  0  0  0  0  0  0  0  0  0
   -3.0538   -2.7186   -0.6556 H   0  0  0  0  0  0  0  0  0  0  0  0
   -1.3498   -2.2206    0.5184 C   0  0  0  0  0  0  0  0  0  0  0  0
   -0.4997   -2.9426    1.0194 O   0  0  0  0  0  0  0  0  0  0  0  0
   -1.1198   -0.9926    0.0674 N   0  0  0  0  0  0  0  0  0  0  0  0
   -1.8978   -0.4486   -0.2716 H   0  0  0  0  0  0  0  0  0  0  0  0
    0.1693   -0.2866    0.0854 C   0  0  1  0  0  0  0  0  0  0  0  0
    0.9043   -0.8713   -0.4705 H   0  0  0  0  0  0  0  0  0  0  0  0
    0.0106    1.0816   -0.6124 C   0  0  0  0  0  0  0  0  0  0  0  0
   -0.9039    1.5552   -0.2509 H   0  0  0  0  0  0  0  0  0  0  0  0
    0.8504    1.7202   -0.3299 H   0  0  0  0  0  0  0  0  0  0  0  0
   -0.0781    1.0094   -2.1449 C   0  0  0  0  0  0  0  0  0  0  0  0
    0.3524    1.9768   -2.8161 O   0  5  0  0  0  0  0  0  0  0  0  0
   -0.5987   -0.0155   -2.6353 O   0  0  0  0  0  0  0  0  0  0  0  0
    0.6664   -0.1450    1.5428 C   0  0  0  0  0  0  0  0  0  0  0  0
    1.8485   -0.3724    1.8265 O   0  0  0  0  0  0  0  0  0  0  0  0
   -0.2161    0.2434    2.4686 N   0  0  0  0  0  0  0  0  0  0  0  0
   -1.1850    0.3219    2.1537 H   0  0  0  0  0  0  0  0  0  0  0  0
    0.0735    0.4128    3.8885 C   0  0  0  0  0  0  0  0  0  0  0  0
    1.0159    0.9483    4.0105 H   0  0  0  0  0  0  0  0  0  0  0  0
   -0.7315    0.9748    4.3613 H   0  0  0  0  0  0  0  0  0  0  0  0
    0.1564   -0.5677    4.3577 H   0  0  0  0  0  0  0  0  0  0  0  0
  5  6  2  0  0  0  0
  5  7  1  0  0  0  0
  2  3  1  0  0  0  0
  2  4  1  0  0  0  0
  2  5  1  0  0  0  0
  1  2  1  0  0  0  0
 17 18  2  0  0  0  0
 17 19  1  0  0  0  0
 14 15  1  0  0  0  0
 14 16  2  0  0  0  0
 11 12  1  0  0  0  0
 11 13  1  0  0  0  0
 11 14  1  0  0  0  0
  9 10  1  0  0  0  0
  9 11  1  0  0  0  0
  9 17  1  0  0  0  0
  7  8  1  0  0  0  0
  7  9  1  0  0  0  0
 21 22  1  0  0  0  0
 21 23  1  0  0  0  0
 21 24  1  0  0  0  0
 19 20  1  0  0  0  0
 19 21  1  0  0  0  0
M  CHG  1  15  -1
M  END
$$$$
default_name
  -OEChem-02102213163D

 24 23  0     1  0  0  0  0  0999 V2000
   -2.8347   -3.7166    0.8034 H   0  0  0  0  0  0  0  0  0  0  0  0
   -2.7728   -2.7096    0.3954 C   0  0  0  0  0  0  0  0  0  0  0  0
   -3.4267   -2.0426    0.9524 H   0  0  0  0  0  0  0  0  0  0  0  0
   -3.0538   -2.7186   -0.6556 H   0  0  0  0  0  0  0  0  0  0  0  0
   -1.3498   -2.2206    0.5184 C   0  0  0  0  0  0  0  0  0  0  0  0
   -0.4997   -2.9426    1.0194 O   0  0  0  0  0  0  0  0  0  0  0  0
   -1.1198   -0.9926    0.0674 N   0  0  0  0  0  0  0  0  0  0  0  0
   -1.8978   -0.4486   -0.2716 H   0  0  0  0  0  0  0  0  0  0  0  0
    0.1693   -0.2866    0.0854 C   0  0  1  0  0  0  0  0  0  0  0  0
    0.9043   -0.8713   -0.4705 H   0  0  0  0  0  0  0  0  0  0  0  0
    0.0106    1.0816   -0.6124 C   0  0  0  0  0  0  0  0  0  0  0  0
   -0.9039    1.5552   -0.2509 H   0  0  0  0  0  0  0  0  0  0  0  0
    0.8504    1.7202   -0.3299 H   0  0  0  0  0  0  0  0  0  0  0  0
   -0.0781    1.0094   -2.1449 C   0  0  0  0  0  0  0  0  0  0  0  0
    0.5944    1.8217   -2.8228 O   0  5  0  0  0  0  0  0  0  0  0  0
   -0.8407    0.1455   -2.6289 O   0  0  0  0  0  0  0  0  0  0  0  0
    0.6664   -0.1450    1.5428 C   0  0  0  0  0  0  0  0  0  0  0  0
    1.8485   -0.3724    1.8265 O   0  0  0  0  0  0  0  0  0  0  0  0
   -0.2161    0.2434    2.4686 N   0  0  0  0  0  0  0  0  0  0  0  0
   -1.1850    0.3219    2.1537 H   0  0  0  0  0  0  0  0  0  0  0  0
    0.0735    0.4128    3.8885 C   0  0  0  0  0  0  0  0  0  0  0  0
    1.0159    0.9483    4.0105 H   0  0  0  0  0  0  0  0  0  0  0  0
   -0.7315    0.9748    4.3613 H   0  0  0  0  0  0  0  0  0  0  0  0
    0.1564   -0.5677    4.3577 H   0  0  0  0  0  0  0  0  0  0  0  0
  5  6  2  0  0  0  0
  5  7  1  0  0  0  0
  2  3  1  0  0  0  0
  2  4  1  0  0  0  0
  2  5  1  0  0  0  0
  1  2  1  0  0  0  0
 17 18  2  0  0  0  0
 17 19  1  0  0  0  0
 14 15  1  0  0  0  0
 14 16  2  0  0  0  0
 11 12  1  0  0  0  0
 11 13  1  0  0  0  0
 11 14  1  0  0  0  0
  9 10  1  0  0  0  0
  9 11  1  0  0  0  0
  9 17  1  0  0  0  0
  7  8  1  0  0  0  0
  7  9  1  0  0  0  0
 21 22  1  0  0  0  0
 21 23  1  0  0  0  0
 21 24  1  0  0  0  0
 19 20  1  0  0  0  0
 19 21  1  0  0  0  0
M  CHG  1  15  -1
M  END
$$$$
default_name
  -OEChem-02102213163D

 24 23  0     1  0  0  0  0  0999 V2000
   -2.8347   -3.7166    0.8034 H   0  0  0  0  0  0  0  0  0  0  0  0
   -2.7728   -2.7096    0.3954 C   0  0  0  0  0  0  0  0  0  0  0  0
   -3.4267   -2.0426    0.9524 H   0  0  0  0  0  0  0  0  0  0  0  0
   -3.0538   -2.7186   -0.6556 H   0  0  0  0  0  0  0  0  0  0  0  0
   -1.3498   -2.2206    0.5184 C   0  0  0  0  0  0  0  0  0  0  0  0
   -0.4997   -2.9426    1.0194 O   0  0  0  0  0  0  0  0  0  0  0  0
   -1.1198   -0.9926    0.0674 N   0  0  0  0  0  0  0  0  0  0  0  0
   -1.8978   -0.4486   -0.2716 H   0  0  0  0  0  0  0  0  0  0  0  0
    0.1693   -0.2866    0.0854 C   0  0  1  0  0  0  0  0  0  0  0  0
    0.9043   -0.8713   -0.4705 H   0  0  0  0  0  0  0  0  0  0  0  0
    0.0106    1.0816   -0.6124 C   0  0  0  0  0  0  0  0  0  0  0  0
   -0.9039    1.5552   -0.2509 H   0  0  0  0  0  0  0  0  0  0  0  0
    0.8504    1.7202   -0.3299 H   0  0  0  0  0  0  0  0  0  0  0  0
   -0.0781    1.0094   -2.1449 C   0  0  0  0  0  0  0  0  0  0  0  0
    0.7882    1.6094   -2.8240 O   0  5  0  0  0  0  0  0  0  0  0  0
   -1.0329    0.3636   -2.6281 O   0  0  0  0  0  0  0  0  0  0  0  0
    0.6664   -0.1450    1.5428 C   0  0  0  0  0  0  0  0  0  0  0  0
    1.8485   -0.3724    1.8265 O   0  0  0  0  0  0  0  0  0  0  0  0
   -0.2161    0.2434    2.4686 N   0  0  0  0  0  0  0  0  0  0  0  0
   -1.1850    0.3219    2.1537 H   0  0  0  0  0  0  0  0  0  0  0  0
    0.0735    0.4128    3.8885 C   0  0  0  0  0  0  0  0  0  0  0  0
    1.0159    0.9483    4.0105 H   0  0  0  0  0  0  0  0  0  0  0  0
   -0.7315    0.9748    4.3613 H   0  0  0  0  0  0  0  0  0  0  0  0
    0.1564   -0.5677    4.3577 H   0  0  0  0  0  0  0  0  0  0  0  0
  5  6  2  0  0  0  0
  5  7  1  0  0  0  0
  2  3  1  0  0  0  0
  2  4  1  0  0  0  0
  2  5  1  0  0  0  0
  1  2  1  0  0  0  0
 17 18  2  0  0  0  0
 17 19  1  0  0  0  0
 14 15  1  0  0  0  0
 14 16  2  0  0  0  0
 11 12  1  0  0  0  0
 11 13  1  0  0  0  0
 11 14  1  0  0  0  0
  9 10  1  0  0  0  0
  9 11  1  0  0  0  0
  9 17  1  0  0  0  0
  7  8  1  0  0  0  0
  7  9  1  0  0  0  0
 21 22  1  0  0  0  0
 21 23  1  0  0  0  0
 21 24  1  0  0  0  0
 19 20  1  0  0  0  0
 19 21  1  0  0  0  0
M  CHG  1  15  -1
M  END
$$$$
default_name
  -OEChem-02102213163D

 24 23  0     1  0  0  0  0  0999 V2000
   -2.8347   -3.7166    0.8034 H   0  0  0  0  0  0  0  0  0  0  0  0
   -2.7728   -2.7096    0.3954 C   0  0  0  0  0  0  0  0  0  0  0  0
   -3.4267   -2.0426    0.9524 H   0  0  0  0  0  0  0  0  0  0  0  0
   -3.0538   -2.7186   -0.6556 H   0  0  0  0  0  0  0  0  0  0  0  0
   -1.3498   -2.2206    0.5184 C   0  0  0  0  0  0  0  0  0  0  0  0
   -0.4997   -2.9426    1.0194 O   0  0  0  0  0  0  0  0  0  0  0  0
   -1.1198   -0.9926    0.0674 N   0  0  0  0  0  0  0  0  0  0  0  0
   -1.8978   -0.4486   -0.2716 H   0  0  0  0  0  0  0  0  0  0  0  0
    0.1693   -0.2866    0.0854 C   0  0  1  0  0  0  0  0  0  0  0  0
    0.9043   -0.8713   -0.4705 H   0  0  0  0  0  0  0  0  0  0  0  0
    0.0106    1.0816   -0.6124 C   0  0  0  0  0  0  0  0  0  0  0  0
   -0.9039    1.5552   -0.2509 H   0  0  0  0  0  0  0  0  0  0  0  0
    0.8504    1.7202   -0.3299 H   0  0  0  0  0  0  0  0  0  0  0  0
   -0.0781    1.0094   -2.1449 C   0  0  0  0  0  0  0  0  0  0  0  0
    0.9206    1.3543   -2.8196 O   0  5  0  0  0  0  0  0  0  0  0  0
   -1.1622    0.6240   -2.6329 O   0  0  0  0  0  0  0  0  0  0  0  0
    0.6664   -0.1450    1.5428 C   0  0  0  0  0  0  0  0  0  0  0  0
    1.8485   -0.3724    1.8265 O   0  0  0  0  0  0  0  0  0  0  0  0
   -0.2161    0.2434    2.4686 N   0  0  0  0  0  0  0  0  0  0  0  0
   -1.1850    0.3219    2.1537 H   0  0  0  0  0  0  0  0  0  0  0  0
    0.0735    0.4128    3.8885 C   0  0  0  0  0  0  0  0  0  0  0  0
    1.0159    0.9483    4.0105 H   0  0  0  0  0  0  0  0  0  0  0  0
   -0.7315    0.9748    4.3613 H   0  0  0  0  0  0  0  0  0  0  0  0
    0.1564   -0.5677    4.3577 H   0  0  0  0  0  0  0  0  0  0  0  0
  5  6  2  0  0  0  0
  5  7  1  0  0  0  0
  2  3  1  0  0  0  0
  2  4  1  0  0  0  0
  2  5  1  0  0  0  0
  1  2  1  0  0  0  0
 17 18  2  0  0  0  0
 17 19  1  0  0  0  0
 14 15  1  0  0  0  0
 14 16  2  0  0  0  0
 11 12  1  0  0  0  0
 11 13  1  0  0  0  0
 11 14  1  0  0  0  0
  9 10  1  0  0  0  0
  9 11  1  0  0  0  0
  9 17  1  0  0  0  0
  7  8  1  0  0  0  0
  7  9  1  0  0  0  0
 21 22  1  0  0  0  0
 21 23  1  0  0  0  0
 21 24  1  0  0  0  0
 19 20  1  0  0  0  0
 19 21  1  0  0  0  0
M  CHG  1  15  -1
M  END
$$$$
default_name
  -OEChem-02102213163D

 24 23  0     1  0  0  0  0  0999 V2000
   -2.8347   -3.7166    0.8034 H   0  0  0  0  0  0  0  0  0  0  0  0
   -2.7728   -2.7096    0.3954 C   0  0  0  0  0  0  0  0  0  0  0  0
   -3.4267   -2.0426    0.9524 H   0  0  0  0  0  0  0  0  0  0  0  0
   -3.0538   -2.7186   -0.6556 H   0  0  0  0  0  0  0  0  0  0  0  0
   -1.3498   -2.2206    0.5184 C   0  0  0  0  0  0  0  0  0  0  0  0
   -0.4997   -2.9426    1.0194 O   0  0  0  0  0  0  0  0  0  0  0  0
   -1.1198   -0.9926    0.0674 N   0  0  0  0  0  0  0  0  0  0  0  0
   -1.8978   -0.4486   -0.2716 H   0  0  0  0  0  0  0  0  0  0  0  0
    0.1693   -0.2866    0.0854 C   0  0  1  0  0  0  0  0  0  0  0  0
    0.9043   -0.8713   -0.4705 H   0  0  0  0  0  0  0  0  0  0  0  0
    0.0106    1.0816   -0.6124 C   0  0  0  0  0  0  0  0  0  0  0  0
   -0.9039    1.5552   -0.2509 H   0  0  0  0  0  0  0  0  0  0  0  0
    0.8504    1.7202   -0.3299 H   0  0  0  0  0  0  0  0  0  0  0  0
   -0.0781    1.0094   -2.1449 C   0  0  0  0  0  0  0  0  0  0  0  0
    0.9826    1.0737   -2.8100 O   0  5  0  0  0  0  0  0  0  0  0  0
   -1.2200    0.9087   -2.6430 O   0  0  0  0  0  0  0  0  0  0  0  0
    0.6664   -0.1450    1.5428 C   0  0  0  0  0  0  0  0  0  0  0  0
    1.8485   -0.3724    1.8265 O   0  0  0  0  0  0  0  0  0  0  0  0
   -0.2161    0.2434    2.4686 N   0  0  0  0  0  0  0  0  0  0  0  0
   -1.1850    0.3219    2.1537 H   0  0  0  0  0  0  0  0  0  0  0  0
    0.0735    0.4128    3.8885 C   0  0  0  0  0  0  0  0  0  0  0  0
    1.0159    0.9483    4.0105 H   0  0  0  0  0  0  0  0  0  0  0  0
   -0.7315    0.9748    4.3613 H   0  0  0  0  0  0  0  0  0  0  0  0
    0.1564   -0.5677    4.3577 H   0  0  0  0  0  0  0  0  0  0  0  0
  5  6  2  0  0  0  0
  5  7  1  0  0  0  0
  2  3  1  0  0  0  0
  2  4  1  0  0  0  0
  2  5  1  0  0  0  0
  1  2  1  0  0  0  0
 17 18  2  0  0  0  0
 17 19  1  0  0  0  0
 14 15  1  0  0  0  0
 14 16  2  0  0  0  0
 11 12  1  0  0  0  0
 11 13  1  0  0  0  0
 11 14  1  0  0  0  0
  9 10  1  0  0  0  0
  9 11  1  0  0  0  0
  9 17  1  0  0  0  0
  7  8  1  0  0  0  0
  7  9  1  0  0  0  0
 21 22  1  0  0  0  0
 21 23  1  0  0  0  0
 21 24  1  0  0  0  0
 19 20  1  0  0  0  0
 19 21  1  0  0  0  0
M  CHG  1  15  -1
M  END
$$$$
default_name
  -OEChem-02102213163D

 24 23  0     1  0  0  0  0  0999 V2000
   -2.8347   -3.7166    0.8034 H   0  0  0  0  0  0  0  0  0  0  0  0
   -2.7728   -2.7096    0.3954 C   0  0  0  0  0  0  0  0  0  0  0  0
   -3.4267   -2.0426    0.9524 H   0  0  0  0  0  0  0  0  0  0  0  0
   -3.0538   -2.7186   -0.6556 H   0  0  0  0  0  0  0  0  0  0  0  0
   -1.3498   -2.2206    0.5184 C   0  0  0  0  0  0  0  0  0  0  0  0
   -0.4997   -2.9426    1.0194 O   0  0  0  0  0  0  0  0  0  0  0  0
   -1.1198   -0.9926    0.0674 N   0  0  0  0  0  0  0  0  0  0  0  0
   -1.8978   -0.4486   -0.2716 H   0  0  0  0  0  0  0  0  0  0  0  0
    0.1693   -0.2866    0.0854 C   0  0  1  0  0  0  0  0  0  0  0  0
    0.9043   -0.8713   -0.4705 H   0  0  0  0  0  0  0  0  0  0  0  0
    0.0106    1.0816   -0.6124 C   0  0  0  0  0  0  0  0  0  0  0  0
   -0.9039    1.5552   -0.2509 H   0  0  0  0  0  0  0  0  0  0  0  0
    0.8504    1.7202   -0.3299 H   0  0  0  0  0  0  0  0  0  0  0  0
   -0.0781    1.0094   -2.1449 C   0  0  0  0  0  0  0  0  0  0  0  0
    0.9700    0.7869   -2.7957 O   0  5  0  0  0  0  0  0  0  0  0  0
   -1.2021    1.1985   -2.6577 O   0  0  0  0  0  0  0  0  0  0  0  0
    0.6664   -0.1450    1.5428 C   0  0  0  0  0  0  0  0  0  0  0  0
    1.8485   -0.3724    1.8265 O   0  0  0  0  0  0  0  0  0  0  0  0
   -0.2161    0.2434    2.4686 N   0  0  0  0  0  0  0  0  0  0  0  0
   -1.1850    0.3219    2.1537 H   0  0  0  0  0  0  0  0  0  0  0  0
    0.0735    0.4128    3.8885 C   0  0  0  0  0  0  0  0  0  0  0  0
    1.0159    0.9483    4.0105 H   0  0  0  0  0  0  0  0  0  0  0  0
   -0.7315    0.9748    4.3613 H   0  0  0  0  0  0  0  0  0  0  0  0
    0.1564   -0.5677    4.3577 H   0  0  0  0  0  0  0  0  0  0  0  0
  5  6  2  0  0  0  0
  5  7  1  0  0  0  0
  2  3  1  0  0  0  0
  2  4  1  0  0  0  0
  2  5  1  0  0  0  0
  1  2  1  0  0  0  0
 17 18  2  0  0  0  0
 17 19  1  0  0  0  0
 14 15  1  0  0  0  0
 14 16  2  0  0  0  0
 11 12  1  0  0  0  0
 11 13  1  0  0  0  0
 11 14  1  0  0  0  0
  9 10  1  0  0  0  0
  9 11  1  0  0  0  0
  9 17  1  0  0  0  0
  7  8  1  0  0  0  0
  7  9  1  0  0  0  0
 21 22  1  0  0  0  0
 21 23  1  0  0  0  0
 21 24  1  0  0  0  0
 19 20  1  0  0  0  0
 19 21  1  0  0  0  0
M  CHG  1  15  -1
M  END
$$$$
default_name
  -OEChem-02102213163D

 24 23  0     1  0  0  0  0  0999 V2000
   -2.8347   -3.7166    0.8034 H   0  0  0  0  0  0  0  0  0  0  0  0
   -2.7728   -2.7096    0.3954 C   0  0  0  0  0  0  0  0  0  0  0  0
   -3.4267   -2.0426    0.9524 H   0  0  0  0  0  0  0  0  0  0  0  0
   -3.0538   -2.7186   -0.6556 H   0  0  0  0  0  0  0  0  0  0  0  0
   -1.3498   -2.2206    0.5184 C   0  0  0  0  0  0  0  0  0  0  0  0
   -0.4997   -2.9426    1.0194 O   0  0  0  0  0  0  0  0  0  0  0  0
   -1.1198   -0.9926    0.0674 N   0  0  0  0  0  0  0  0  0  0  0  0
   -1.8978   -0.4486   -0.2716 H   0  0  0  0  0  0  0  0  0  0  0  0
    0.1693   -0.2866    0.0854 C   0  0  1  0  0  0  0  0  0  0  0  0
    0.9043   -0.8713   -0.4705 H   0  0  0  0  0  0  0  0  0  0  0  0
    0.0106    1.0816   -0.6124 C   0  0  0  0  0  0  0  0  0  0  0  0
   -0.9039    1.5552   -0.2509 H   0  0  0  0  0  0  0  0  0  0  0  0
    0.8504    1.7202   -0.3299 H   0  0  0  0  0  0  0  0  0  0  0  0
   -0.0781    1.0094   -2.1449 C   0  0  0  0  0  0  0  0  0  0  0  0
    0.8836    0.5133   -2.7778 O   0  5  0  0  0  0  0  0  0  0  0  0
   -1.1099    1.4736   -2.6760 O   0  0  0  0  0  0  0  0  0  0  0  0
    0.6664   -0.1450    1.5428 C   0  0  0  0  0  0  0  0  0  0  0  0
    1.8485   -0.3724    1.8265 O   0  0  0  0  0  0  0  0  0  0  0  0
   -0.2161    0.2434    2.4686 N   0  0  0  0  0  0  0  0  0  0  0  0
   -1.1850    0.3219    2.1537 H   0  0  0  0  0  0  0  0  0  0  0  0
    0.0735    0.4128    3.8885 C   0  0  0  0  0  0  0  0  0  0  0  0
    1.0159    0.9483    4.0105 H   0  0  0  0  0  0  0  0  0  0  0  0
   -0.7315    0.9748    4.3613 H   0  0  0  0  0  0  0  0  0  0  0  0
    0.1564   -0.5677    4.3577 H   0  0  0  0  0  0  0  0  0  0  0  0
  5  6  2  0  0  0  0
  5  7  1  0  0  0  0
  2  3  1  0  0  0  0
  2  4  1  0  0  0  0
  2  5  1  0  0  0  0
  1  2  1  0  0  0  0
 17 18  2  0  0  0  0
 17 19  1  0  0  0  0
 14 15  1  0  0  0  0
 14 16  2  0  0  0  0
 11 12  1  0  0  0  0
 11 13  1  0  0  0  0
 11 14  1  0  0  0  0
  9 10  1  0  0  0  0
  9 11  1  0  0  0  0
  9 17  1  0  0  0  0
  7  8  1  0  0  0  0
  7  9  1  0  0  0  0
 21 22  1  0  0  0  0
 21 23  1  0  0  0  0
 21 24  1  0  0  0  0
 19 20  1  0  0  0  0
 19 21  1  0  0  0  0
M  CHG  1  15  -1
M  END
$$$$
default_name
  -OEChem-02102213163D

 24 23  0     1  0  0  0  0  0999 V2000
   -2.8347   -3.7166    0.8034 H   0  0  0  0  0  0  0  0  0  0  0  0
   -2.7728   -2.7096    0.3954 C   0  0  0  0  0  0  0  0  0  0  0  0
   -3.4267   -2.0426    0.9524 H   0  0  0  0  0  0  0  0  0  0  0  0
   -3.0538   -2.7186   -0.6556 H   0  0  0  0  0  0  0  0  0  0  0  0
   -1.3498   -2.2206    0.5184 C   0  0  0  0  0  0  0  0  0  0  0  0
   -0.4997   -2.9426    1.0194 O   0  0  0  0  0  0  0  0  0  0  0  0
   -1.1198   -0.9926    0.0674 N   0  0  0  0  0  0  0  0  0  0  0  0
   -1.8978   -0.4486   -0.2716 H   0  0  0  0  0  0  0  0  0  0  0  0
    0.1693   -0.2866    0.0854 C   0  0  1  0  0  0  0  0  0  0  0  0
    0.9043   -0.8713   -0.4705 H   0  0  0  0  0  0  0  0  0  0  0  0
    0.0106    1.0816   -0.6124 C   0  0  0  0  0  0  0  0  0  0  0  0
   -0.9039    1.5552   -0.2509 H   0  0  0  0  0  0  0  0  0  0  0  0
    0.8504    1.7202   -0.3299 H   0  0  0  0  0  0  0  0  0  0  0  0
   -0.0781    1.0094   -2.1449 C   0  0  0  0  0  0  0  0  0  0  0  0
    0.7293    0.2716   -2.7575 O   0  5  0  0  0  0  0  0  0  0  0  0
   -0.9495    1.7153   -2.6966 O   0  0  0  0  0  0  0  0  0  0  0  0
    0.6664   -0.1450    1.5428 C   0  0  0  0  0  0  0  0  0  0  0  0
    1.8485   -0.3724    1.8265 O   0  0  0  0  0  0  0  0  0  0  0  0
   -0.2161    0.2434    2.4686 N   0  0  0  0  0  0  0  0  0  0  0  0
   -1.1850    0.3219    2.1537 H   0  0  0  0  0  0  0  0  0  0  0  0
    0.0735    0.4128    3.8885 C   0  0  0  0  0  0  0  0  0  0  0  0
    1.0159    0.9483    4.0105 H   0  0  0  0  0  0  0  0  0  0  0  0
   -0.7315    0.9748    4.3613 H   0  0  0  0  0  0  0  0  0  0  0  0
    0.1564   -0.5677    4.3577 H   0  0  0  0  0  0  0  0  0  0  0  0
  5  6  2  0  0  0  0
  5  7  1  0  0  0  0
  2  3  1  0  0  0  0
  2  4  1  0  0  0  0
  2  5  1  0  0  0  0
  1  2  1  0  0  0  0
 17 18  2  0  0  0  0
 17 19  1  0  0  0  0
 14 15  1  0  0  0  0
 14 16  2  0  0  0  0
 11 12  1  0  0  0  0
 11 13  1  0  0  0  0
 11 14  1  0  0  0  0
  9 10  1  0  0  0  0
  9 11  1  0  0  0  0
  9 17  1  0  0  0  0
  7  8  1  0  0  0  0
  7  9  1  0  0  0  0
 21 22  1  0  0  0  0
 21 23  1  0  0  0  0
 21 24  1  0  0  0  0
 19 20  1  0  0  0  0
 19 21  1  0  0  0  0
M  CHG  1  15  -1
M  END
$$$$
default_name
  -OEChem-02102213163D

 24 23  0     1  0  0  0  0  0999 V2000
   -2.8347   -3.7166    0.8034 H   0  0  0  0  0  0  0  0  0  0  0  0
   -2.7728   -2.7096    0.3954 C   0  0  0  0  0  0  0  0  0  0  0  0
   -3.4267   -2.0426    0.9524 H   0  0  0  0  0  0  0  0  0  0  0  0
   -3.0538   -2.7186   -0.6556 H   0  0  0  0  0  0  0  0  0  0  0  0
   -1.3498   -2.2206    0.5184 C   0  0  0  0  0  0  0  0  0  0  0  0
   -0.4997   -2.9426    1.0194 O   0  0  0  0  0  0  0  0  0  0  0  0
   -1.1198   -0.9926    0.0674 N   0  0  0  0  0  0  0  0  0  0  0  0
   -1.8978   -0.4486   -0.2716 H   0  0  0  0  0  0  0  0  0  0  0  0
    0.1693   -0.2866    0.0854 C   0  0  1  0  0  0  0  0  0  0  0  0
    0.9043   -0.8713   -0.4705 H   0  0  0  0  0  0  0  0  0  0  0  0
    0.0106    1.0816   -0.6124 C   0  0  0  0  0  0  0  0  0  0  0  0
   -0.9039    1.5552   -0.2509 H   0  0  0  0  0  0  0  0  0  0  0  0
    0.8504    1.7202   -0.3299 H   0  0  0  0  0  0  0  0  0  0  0  0
   -0.0781    1.0094   -2.1449 C   0  0  0  0  0  0  0  0  0  0  0  0
    0.5177    0.0782   -2.7361 O   0  5  0  0  0  0  0  0  0  0  0  0
   -0.7320    1.9070   -2.7182 O   0  0  0  0  0  0  0  0  0  0  0  0
    0.6664   -0.1450    1.5428 C   0  0  0  0  0  0  0  0  0  0  0  0
    1.8485   -0.3724    1.8265 O   0  0  0  0  0  0  0  0  0  0  0  0
   -0.2161    0.2434    2.4686 N   0  0  0  0  0  0  0  0  0  0  0  0
   -1.1850    0.3219    2.1537 H   0  0  0  0  0  0  0  0  0  0  0  0
    0.0735    0.4128    3.8885 C   0  0  0  0  0  0  0  0  0  0  0  0
    1.0159    0.9483    4.0105 H   0  0  0  0  0  0  0  0  0  0  0  0
   -0.7315    0.9748    4.3613 H   0  0  0  0  0  0  0  0  0  0  0  0
    0.1564   -0.5677    4.3577 H   0  0  0  0  0  0  0  0  0  0  0  0
  5  6  2  0  0  0  0
  5  7  1  0  0  0  0
  2  3  1  0  0  0  0
  2  4  1  0  0  0  0
  2  5  1  0  0  0  0
  1  2  1  0  0  0  0
 17 18  2  0  0  0  0
 17 19  1  0  0  0  0
 14 15  1  0  0  0  0
 14 16  2  0  0  0  0
 11 12  1  0  0  0  0
 11 13  1  0  0  0  0
 11 14  1  0  0  0  0
  9 10  1  0  0  0  0
  9 11  1  0  0  0  0
  9 17  1  0  0  0  0
  7  8  1  0  0  0  0
  7  9  1  0  0  0  0
 21 22  1  0  0  0  0
 21 23  1  0  0  0  0
 21 24  1  0  0  0  0
 19 20  1  0  0  0  0
 19 21  1  0  0  0  0
M  CHG  1  15  -1
M  END
$$$$
default_name
  -OEChem-02102213163D

 24 23  0     1  0  0  0  0  0999 V2000
   -2.8347   -3.7166    0.8034 H   0  0  0  0  0  0  0  0  0  0  0  0
   -2.7728   -2.7096    0.3954 C   0  0  0  0  0  0  0  0  0  0  0  0
   -3.4267   -2.0426    0.9524 H   0  0  0  0  0  0  0  0  0  0  0  0
   -3.0538   -2.7186   -0.6556 H   0  0  0  0  0  0  0  0  0  0  0  0
   -1.3498   -2.2206    0.5184 C   0  0  0  0  0  0  0  0  0  0  0  0
   -0.4997   -2.9426    1.0194 O   0  0  0  0  0  0  0  0  0  0  0  0
   -1.1198   -0.9926    0.0674 N   0  0  0  0  0  0  0  0  0  0  0  0
   -1.8978   -0.4486   -0.2716 H   0  0  0  0  0  0  0  0  0  0  0  0
    0.1693   -0.2866    0.0854 C   0  0  1  0  0  0  0  0  0  0  0  0
    0.9043   -0.8713   -0.4705 H   0  0  0  0  0  0  0  0  0  0  0  0
    0.0106    1.0816   -0.6124 C   0  0  0  0  0  0  0  0  0  0  0  0
   -0.9039    1.5552   -0.2509 H   0  0  0  0  0  0  0  0  0  0  0  0
    0.8504    1.7202   -0.3299 H   0  0  0  0  0  0  0  0  0  0  0  0
   -0.0781    1.0094   -2.1449 C   0  0  0  0  0  0  0  0  0  0  0  0
    0.2630   -0.0536   -2.7152 O   0  5  0  0  0  0  0  0  0  0  0  0
   -0.4722    2.0358   -2.7393 O   0  0  0  0  0  0  0  0  0  0  0  0
    0.6664   -0.1450    1.5428 C   0  0  0  0  0  0  0  0  0  0  0  0
    1.8485   -0.3724    1.8265 O   0  0  0  0  0  0  0  0  0  0  0  0
   -0.2161    0.2434    2.4686 N   0  0  0  0  0  0  0  0  0  0  0  0
   -1.1850    0.3219    2.1537 H   0  0  0  0  0  0  0  0  0  0  0  0
    0.0735    0.4128    3.8885 C   0  0  0  0  0  0  0  0  0  0  0  0
    1.0159    0.9483    4.0105 H   0  0  0  0  0  0  0  0  0  0  0  0
   -0.7315    0.9748    4.3613 H   0  0  0  0  0  0  0  0  0  0  0  0
    0.1564   -0.5677    4.3577 H   0  0  0  0  0  0  0  0  0  0  0  0
  5  6  2  0  0  0  0
  5  7  1  0  0  0  0
  2  3  1  0  0  0  0
  2  4  1  0  0  0  0
  2  5  1  0  0  0  0
  1  2  1  0  0  0  0
 17 18  2  0  0  0  0
 17 19  1  0  0  0  0
 14 15  1  0  0  0  0
 14 16  2  0  0  0  0
 11 12  1  0  0  0  0
 11 13  1  0  0  0  0
 11 14  1  0  0  0  0
  9 10  1  0  0  0  0
  9 11  1  0  0  0  0
  9 17  1  0  0  0  0
  7  8  1  0  0  0  0
  7  9  1  0  0  0  0
 21 22  1  0  0  0  0
 21 23  1  0  0  0  0
 21 24  1  0  0  0  0
 19 20  1  0  0  0  0
 19 21  1  0  0  0  0
M  CHG  1  15  -1
M  END
$$$$
default_name
  -OEChem-02102213163D

 24 23  0     1  0  0  0  0  0999 V2000
   -2.8347   -3.7166    0.8034 H   0  0  0  0  0  0  0  0  0  0  0  0
   -2.7728   -2.7096    0.3954 C   0  0  0  0  0  0  0  0  0  0  0  0
   -3.4267   -2.0426    0.9524 H   0  0  0  0  0  0  0  0  0  0  0  0
   -3.0538   -2.7186   -0.6556 H   0  0  0  0  0  0  0  0  0  0  0  0
   -1.3498   -2.2206    0.5184 C   0  0  0  0  0  0  0  0  0  0  0  0
   -0.4997   -2.9426    1.0194 O   0  0  0  0  0  0  0  0  0  0  0  0
   -1.1198   -0.9926    0.0674 N   0  0  0  0  0  0  0  0  0  0  0  0
   -1.8978   -0.4486   -0.2716 H   0  0  0  0  0  0  0  0  0  0  0  0
    0.1693   -0.2866    0.0854 C   0  0  1  0  0  0  0  0  0  0  0  0
    0.9043   -0.8713   -0.4705 H   0  0  0  0  0  0  0  0  0  0  0  0
    0.0106    1.0816   -0.6124 C   0  0  0  0  0  0  0  0  0  0  0  0
   -0.9039    1.5552   -0.2509 H   0  0  0  0  0  0  0  0  0  0  0  0
    0.8504    1.7202   -0.3299 H   0  0  0  0  0  0  0  0  0  0  0  0
   -0.0781    1.0094   -2.1449 C   0  0  0  0  0  0  0  0  0  0  0  0
   -0.0172   -0.1149   -2.6961 O   0  5  0  0  0  0  0  0  0  0  0  0
   -0.1878    2.0927   -2.7585 O   0  0  0  0  0  0  0  0  0  0  0  0
    0.6664   -0.1450    1.5428 C   0  0  0  0  0  0  0  0  0  0  0  0
    1.8485   -0.3724    1.8265 O   0  0  0  0  0  0  0  0  0  0  0  0
   -0.2161    0.2434    2.4686 N   0  0  0  0  0  0  0  0  0  0  0  0
   -1.1850    0.3219    2.1537 H   0  0  0  0  0  0  0  0  0  0  0  0
    0.0735    0.4128    3.8885 C   0  0  0  0  0  0  0  0  0  0  0  0
    1.0159    0.9483    4.0105 H   0  0  0  0  0  0  0  0  0  0  0  0
   -0.7315    0.9748    4.3613 H   0  0  0  0  0  0  0  0  0  0  0  0
    0.1564   -0.5677    4.3577 H   0  0  0  0  0  0  0  0  0  0  0  0
  5  6  2  0  0  0  0
  5  7  1  0  0  0  0
  2  3  1  0  0  0  0
  2  4  1  0  0  0  0
  2  5  1  0  0  0  0
  1  2  1  0  0  0  0
 17 18  2  0  0  0  0
 17 19  1  0  0  0  0
 14 15  1  0  0  0  0
 14 16  2  0  0  0  0
 11 12  1  0  0  0  0
 11 13  1  0  0  0  0
 11 14  1  0  0  0  0
  9 10  1  0  0  0  0
  9 11  1  0  0  0  0
  9 17  1  0  0  0  0
  7  8  1  0  0  0  0
  7  9  1  0  0  0  0
 21 22  1  0  0  0  0
 21 23  1  0  0  0  0
 21 24  1  0  0  0  0
 19 20  1  0  0  0  0
 19 21  1  0  0  0  0
M  CHG  1  15  -1
M  END
$$$$
default_name
  -OEChem-02102213163D

 24 23  0     1  0  0  0  0  0999 V2000
   -2.8347   -3.7166    0.8034 H   0  0  0  0  0  0  0  0  0  0  0  0
   -2.7728   -2.7096    0.3954 C   0  0  0  0  0  0  0  0  0  0  0  0
   -3.4267   -2.0426    0.9524 H   0  0  0  0  0  0  0  0  0  0  0  0
   -3.0538   -2.7186   -0.6556 H   0  0  0  0  0  0  0  0  0  0  0  0
   -1.3498   -2.2206    0.5184 C   0  0  0  0  0  0  0  0  0  0  0  0
   -0.4997   -2.9426    1.0194 O   0  0  0  0  0  0  0  0  0  0  0  0
   -1.1198   -0.9926    0.0674 N   0  0  0  0  0  0  0  0  0  0  0  0
   -1.8978   -0.4486   -0.2716 H   0  0  0  0  0  0  0  0  0  0  0  0
    0.1693   -0.2866    0.0854 C   0  0  1  0  0  0  0  0  0  0  0  0
    0.9043   -0.8713   -0.4705 H   0  0  0  0  0  0  0  0  0  0  0  0
    0.0106    1.0816   -0.6124 C   0  0  0  0  0  0  0  0  0  0  0  0
   -0.9039    1.5552   -0.2509 H   0  0  0  0  0  0  0  0  0  0  0  0
    0.8504    1.7202   -0.3299 H   0  0  0  0  0  0  0  0  0  0  0  0
   -0.0781    1.0094   -2.1449 C   0  0  0  0  0  0  0  0  0  0  0  0
   -0.3039   -0.1015   -2.6802 O   0  5  0  0  0  0  0  0  0  0  0  0
    0.1019    2.0741   -2.7743 O   0  0  0  0  0  0  0  0  0  0  0  0
    0.6664   -0.1450    1.5428 C   0  0  0  0  0  0  0  0  0  0  0  0
    1.8485   -0.3724    1.8265 O   0  0  0  0  0  0  0  0  0  0  0  0
   -0.2161    0.2434    2.4686 N   0  0  0  0  0  0  0  0  0  0  0  0
   -1.1850    0.3219    2.1537 H   0  0  0  0  0  0  0  0  0  0  0  0
    0.0735    0.4128    3.8885 C   0  0  0  0  0  0  0  0  0  0  0  0
    1.0159    0.9483    4.0105 H   0  0  0  0  0  0  0  0  0  0  0  0
   -0.7315    0.9748    4.3613 H   0  0  0  0  0  0  0  0  0  0  0  0
    0.1564   -0.5677    4.3577 H   0  0  0  0  0  0  0  0  0  0  0  0
  5  6  2  0  0  0  0
  5  7  1  0  0  0  0
  2  3  1  0  0  0  0
  2  4  1  0  0  0  0
  2  5  1  0  0  0  0
  1  2  1  0  0  0  0
 17 18  2  0  0  0  0
 17 19  1  0  0  0  0
 14 15  1  0  0  0  0
 14 16  2  0  0  0  0
 11 12  1  0  0  0  0
 11 13  1  0  0  0  0
 11 14  1  0  0  0  0
  9 10  1  0  0  0  0
  9 11  1  0  0  0  0
  9 17  1  0  0  0  0
  7  8  1  0  0  0  0
  7  9  1  0  0  0  0
 21 22  1  0  0  0  0
 21 23  1  0  0  0  0
 21 24  1  0  0  0  0
 19 20  1  0  0  0  0
 19 21  1  0  0  0  0
M  CHG  1  15  -1
M  END
$$$$
default_name
  -OEChem-02102213163D

 24 23  0     1  0  0  0  0  0999 V2000
   -2.8347   -3.7166    0.8034 H   0  0  0  0  0  0  0  0  0  0  0  0
   -2.7728   -2.7096    0.3954 C   0  0  0  0  0  0  0  0  0  0  0  0
   -3.4267   -2.0426    0.9524 H   0  0  0  0  0  0  0  0  0  0  0  0
   -3.0538   -2.7186   -0.6556 H   0  0  0  0  0  0  0  0  0  0  0  0
   -1.3498   -2.2206    0.5184 C   0  0  0  0  0  0  0  0  0  0  0  0
   -0.4997   -2.9426    1.0194 O   0  0  0  0  0  0  0  0  0  0  0  0
   -1.1198   -0.9926    0.0674 N   0  0  0  0  0  0  0  0  0  0  0  0
   -1.8978   -0.4486   -0.2716 H   0  0  0  0  0  0  0  0  0  0  0  0
    0.1693   -0.2866    0.0854 C   0  0  1  0  0  0  0  0  0  0  0  0
    0.9043   -0.8713   -0.4705 H   0  0  0  0  0  0  0  0  0  0  0  0
    0.0106    1.0816   -0.6124 C   0  0  0  0  0  0  0  0  0  0  0  0
   -0.9039    1.5552   -0.2509 H   0  0  0  0  0  0  0  0  0  0  0  0
    0.8504    1.7202   -0.3299 H   0  0  0  0  0  0  0  0  0  0  0  0
   -0.0781    1.0094   -2.1449 C   0  0  0  0  0  0  0  0  0  0  0  0
   -0.5776   -0.0143   -2.6684 O   0  5  0  0  0  0  0  0  0  0  0  0
    0.3771    1.9810   -2.7859 O   0  0  0  0  0  0  0  0  0  0  0  0
    0.6664   -0.1450    1.5428 C   0  0  0  0  0  0  0  0  0  0  0  0
    1.8485   -0.3724    1.8265 O   0  0  0  0  0  0  0  0  0  0  0  0
   -0.2161    0.2434    2.4686 N   0  0  0  0  0  0  0  0  0  0  0  0
   -1.1850    0.3219    2.1537 H   0  0  0  0  0  0  0  0  0  0  0  0
    0.0735    0.4128    3.8885 C   0  0  0  0  0  0  0  0  0  0  0  0
    1.0159    0.9483    4.0105 H   0  0  0  0  0  0  0  0  0  0  0  0
   -0.7315    0.9748    4.3613 H   0  0  0  0  0  0  0  0  0  0  0  0
    0.1564   -0.5677    4.3577 H   0  0  0  0  0  0  0  0  0  0  0  0
  5  6  2  0  0  0  0
  5  7  1  0  0  0  0
  2  3  1  0  0  0  0
  2  4  1  0  0  0  0
  2  5  1  0  0  0  0
  1  2  1  0  0  0  0
 17 18  2  0  0  0  0
 17 19  1  0  0  0  0
 14 15  1  0  0  0  0
 14 16  2  0  0  0  0
 11 12  1  0  0  0  0
 11 13  1  0  0  0  0
 11 14  1  0  0  0  0
  9 10  1  0  0  0  0
  9 11  1  0  0  0  0
  9 17  1  0  0  0  0
  7  8  1  0  0  0  0
  7  9  1  0  0  0  0
 21 22  1  0  0  0  0
 21 23  1  0  0  0  0
 21 24  1  0  0  0  0
 19 20  1  0  0  0  0
 19 21  1  0  0  0  0
M  CHG  1  15  -1
M  END
$$$$
default_name
  -OEChem-02102213163D

 24 23  0     1  0  0  0  0  0999 V2000
   -2.8347   -3.7166    0.8034 H   0  0  0  0  0  0  0  0  0  0  0  0
   -2.7728   -2.7096    0.3954 C   0  0  0  0  0  0  0  0  0  0  0  0
   -3.4267   -2.0426    0.9524 H   0  0  0  0  0  0  0  0  0  0  0  0
   -3.0538   -2.7186   -0.6556 H   0  0  0  0  0  0  0  0  0  0  0  0
   -1.3498   -2.2206    0.5184 C   0  0  0  0  0  0  0  0  0  0  0  0
   -0.4997   -2.9426    1.0194 O   0  0  0  0  0  0  0  0  0  0  0  0
   -1.1198   -0.9926    0.0674 N   0  0  0  0  0  0  0  0  0  0  0  0
   -1.8978   -0.4486   -0.2716 H   0  0  0  0  0  0  0  0  0  0  0  0
    0.1693   -0.2866    0.0854 C   0  0  1  0  0  0  0  0  0  0  0  0
    0.9043   -0.8713   -0.4705 H   0  0  0  0  0  0  0  0  0  0  0  0
    0.0106    1.0816   -0.6124 C   0  0  0  0  0  0  0  0  0  0  0  0
   -0.9039    1.5552   -0.2509 H   0  0  0  0  0  0  0  0  0  0  0  0
    0.8504    1.7202   -0.3299 H   0  0  0  0  0  0  0  0  0  0  0  0
   -0.0781    1.0094   -2.1449 C   0  0  0  0  0  0  0  0  0  0  0  0
   -0.8196    0.1407   -2.6617 O   0  5  0  0  0  0  0  0  0  0  0  0
    0.6191    1.8200   -2.7923 O   0  0  0  0  0  0  0  0  0  0  0  0
    0.6664   -0.1450    1.5428 C   0  0  0  0  0  0  0  0  0  0  0  0
    1.8485   -0.3724    1.8265 O   0  0  0  0  0  0  0  0  0  0  0  0
   -0.2161    0.2434    2.4686 N   0  0  0  0  0  0  0  0  0  0  0  0
   -1.1850    0.3219    2.1537 H   0  0  0  0  0  0  0  0  0  0  0  0
    0.0735    0.4128    3.8885 C   0  0  0  0  0  0  0  0  0  0  0  0
    1.0159    0.9483    4.0105 H   0  0  0  0  0  0  0  0  0  0  0  0
   -0.7315    0.9748    4.3613 H   0  0  0  0  0  0  0  0  0  0  0  0
    0.1564   -0.5677    4.3577 H   0  0  0  0  0  0  0  0  0  0  0  0
  5  6  2  0  0  0  0
  5  7  1  0  0  0  0
  2  3  1  0  0  0  0
  2  4  1  0  0  0  0
  2  5  1  0  0  0  0
  1  2  1  0  0  0  0
 17 18  2  0  0  0  0
 17 19  1  0  0  0  0
 14 15  1  0  0  0  0
 14 16  2  0  0  0  0
 11 12  1  0  0  0  0
 11 13  1  0  0  0  0
 11 14  1  0  0  0  0
  9 10  1  0  0  0  0
  9 11  1  0  0  0  0
  9 17  1  0  0  0  0
  7  8  1  0  0  0  0
  7  9  1  0  0  0  0
 21 22  1  0  0  0  0
 21 23  1  0  0  0  0
 21 24  1  0  0  0  0
 19 20  1  0  0  0  0
 19 21  1  0  0  0  0
M  CHG  1  15  -1
M  END
$$$$
default_name
  -OEChem-02102213163D

 24 23  0     1  0  0  0  0  0999 V2000
   -2.8347   -3.7166    0.8034 H   0  0  0  0  0  0  0  0  0  0  0  0
   -2.7728   -2.7096    0.3954 C   0  0  0  0  0  0  0  0  0  0  0  0
   -3.4267   -2.0426    0.9524 H   0  0  0  0  0  0  0  0  0  0  0  0
   -3.0538   -2.7186   -0.6556 H   0  0  0  0  0  0  0  0  0  0  0  0
   -1.3498   -2.2206    0.5184 C   0  0  0  0  0  0  0  0  0  0  0  0
   -0.4997   -2.9426    1.0194 O   0  0  0  0  0  0  0  0  0  0  0  0
   -1.1198   -0.9926    0.0674 N   0  0  0  0  0  0  0  0  0  0  0  0
   -1.8978   -0.4486   -0.2716 H   0  0  0  0  0  0  0  0  0  0  0  0
    0.1693   -0.2866    0.0854 C   0  0  1  0  0  0  0  0  0  0  0  0
    0.9043   -0.8713   -0.4705 H   0  0  0  0  0  0  0  0  0  0  0  0
    0.0106    1.0816   -0.6124 C   0  0  0  0  0  0  0  0  0  0  0  0
   -0.9039    1.5552   -0.2509 H   0  0  0  0  0  0  0  0  0  0  0  0
    0.8504    1.7202   -0.3299 H   0  0  0  0  0  0  0  0  0  0  0  0
   -0.0781    1.0094   -2.1449 C   0  0  0  0  0  0  0  0  0  0  0  0
   -1.0135    0.3531   -2.6605 O   0  5  0  0  0  0  0  0  0  0  0  0
    0.8113    1.6018   -2.7931 O   0  0  0  0  0  0  0  0  0  0  0  0
    0.6664   -0.1450    1.5428 C   0  0  0  0  0  0  0  0  0  0  0  0
    1.8485   -0.3724    1.8265 O   0  0  0  0  0  0  0  0  0  0  0  0
   -0.2161    0.2434    2.4686 N   0  0  0  0  0  0  0  0  0  0  0  0
   -1.1850    0.3219    2.1537 H   0  0  0  0  0  0  0  0  0  0  0  0
    0.0735    0.4128    3.8885 C   0  0  0  0  0  0  0  0  0  0  0  0
    1.0159    0.9483    4.0105 H   0  0  0  0  0  0  0  0  0  0  0  0
   -0.7315    0.9748    4.3613 H   0  0  0  0  0  0  0  0  0  0  0  0
    0.1564   -0.5677    4.3577 H   0  0  0  0  0  0  0  0  0  0  0  0
  5  6  2  0  0  0  0
  5  7  1  0  0  0  0
  2  3  1  0  0  0  0
  2  4  1  0  0  0  0
  2  5  1  0  0  0  0
  1  2  1  0  0  0  0
 17 18  2  0  0  0  0
 17 19  1  0  0  0  0
 14 15  1  0  0  0  0
 14 16  2  0  0  0  0
 11 12  1  0  0  0  0
 11 13  1  0  0  0  0
 11 14  1  0  0  0  0
  9 10  1  0  0  0  0
  9 11  1  0  0  0  0
  9 17  1  0  0  0  0
  7  8  1  0  0  0  0
  7  9  1  0  0  0  0
 21 22  1  0  0  0  0
 21 23  1  0  0  0  0
 21 24  1  0  0  0  0
 19 20  1  0  0  0  0
 19 21  1  0  0  0  0
M  CHG  1  15  -1
M  END
$$$$
default_name
  -OEChem-02102213163D

 24 23  0     1  0  0  0  0  0999 V2000
   -2.8347   -3.7166    0.8034 H   0  0  0  0  0  0  0  0  0  0  0  0
   -2.7728   -2.7096    0.3954 C   0  0  0  0  0  0  0  0  0  0  0  0
   -3.4267   -2.0426    0.9524 H   0  0  0  0  0  0  0  0  0  0  0  0
   -3.0538   -2.7186   -0.6556 H   0  0  0  0  0  0  0  0  0  0  0  0
   -1.3498   -2.2206    0.5184 C   0  0  0  0  0  0  0  0  0  0  0  0
   -0.4997   -2.9426    1.0194 O   0  0  0  0  0  0  0  0  0  0  0  0
   -1.1198   -0.9926    0.0674 N   0  0  0  0  0  0  0  0  0  0  0  0
   -1.8978   -0.4486   -0.2716 H   0  0  0  0  0  0  0  0  0  0  0  0
    0.1693   -0.2866    0.0854 C   0  0  1  0  0  0  0  0  0  0  0  0
    0.9043   -0.8713   -0.4705 H   0  0  0  0  0  0  0  0  0  0  0  0
    0.0106    1.0816   -0.6124 C   0  0  0  0  0  0  0  0  0  0  0  0
   -0.9039    1.5552   -0.2509 H   0  0  0  0  0  0  0  0  0  0  0  0
    0.8504    1.7202   -0.3299 H   0  0  0  0  0  0  0  0  0  0  0  0
   -0.0781    1.0094   -2.1449 C   0  0  0  0  0  0  0  0  0  0  0  0
   -1.1459    0.6082   -2.6649 O   0  5  0  0  0  0  0  0  0  0  0  0
    0.9407    1.3415   -2.7883 O   0  0  0  0  0  0  0  0  0  0  0  0
    0.6664   -0.1450    1.5428 C   0  0  0  0  0  0  0  0  0  0  0  0
    1.8485   -0.3724    1.8265 O   0  0  0  0  0  0  0  0  0  0  0  0
   -0.2161    0.2434    2.4686 N   0  0  0  0  0  0  0  0  0  0  0  0
   -1.1850    0.3219    2.1537 H   0  0  0  0  0  0  0  0  0  0  0  0
    0.0735    0.4128    3.8885 C   0  0  0  0  0  0  0  0  0  0  0  0
    1.0159    0.9483    4.0105 H   0  0  0  0  0  0  0  0  0  0  0  0
   -0.7315    0.9748    4.3613 H   0  0  0  0  0  0  0  0  0  0  0  0
    0.1564   -0.5677    4.3577 H   0  0  0  0  0  0  0  0  0  0  0  0
  5  6  2  0  0  0  0
  5  7  1  0  0  0  0
  2  3  1  0  0  0  0
  2  4  1  0  0  0  0
  2  5  1  0  0  0  0
  1  2  1  0  0  0  0
 17 18  2  0  0  0  0
 17 19  1  0  0  0  0
 14 15  1  0  0  0  0
 14 16  2  0  0  0  0
 11 12  1  0  0  0  0
 11 13  1  0  0  0  0
 11 14  1  0  0  0  0
  9 10  1  0  0  0  0
  9 11  1  0  0  0  0
  9 17  1  0  0  0  0
  7  8  1  0  0  0  0
  7  9  1  0  0  0  0
 21 22  1  0  0  0  0
 21 23  1  0  0  0  0
 21 24  1  0  0  0  0
 19 20  1  0  0  0  0
 19 21  1  0  0  0  0
M  CHG  1  15  -1
M  END
$$$$
default_name
  -OEChem-02102213163D

 24 23  0     1  0  0  0  0  0999 V2000
   -2.8347   -3.7166    0.8034 H   0  0  0  0  0  0  0  0  0  0  0  0
   -2.7728   -2.7096    0.3954 C   0  0  0  0  0  0  0  0  0  0  0  0
   -3.4267   -2.0426    0.9524 H   0  0  0  0  0  0  0  0  0  0  0  0
   -3.0538   -2.7186   -0.6556 H   0  0  0  0  0  0  0  0  0  0  0  0
   -1.3498   -2.2206    0.5184 C   0  0  0  0  0  0  0  0  0  0  0  0
   -0.4997   -2.9426    1.0194 O   0  0  0  0  0  0  0  0  0  0  0  0
   -1.1198   -0.9926    0.0674 N   0  0  0  0  0  0  0  0  0  0  0  0
   -1.8978   -0.4486   -0.2716 H   0  0  0  0  0  0  0  0  0  0  0  0
    0.1693   -0.2866    0.0854 C   0  0  1  0  0  0  0  0  0  0  0  0
    0.9043   -0.8713   -0.4705 H   0  0  0  0  0  0  0  0  0  0  0  0
    0.0106    1.0816   -0.6124 C   0  0  0  0  0  0  0  0  0  0  0  0
   -0.9039    1.5552   -0.2509 H   0  0  0  0  0  0  0  0  0  0  0  0
    0.8504    1.7202   -0.3299 H   0  0  0  0  0  0  0  0  0  0  0  0
   -0.0781    1.0094   -2.1449 C   0  0  0  0  0  0  0  0  0  0  0  0
   -1.2079    0.8887   -2.6745 O   0  5  0  0  0  0  0  0  0  0  0  0
    0.9984    1.0567   -2.7782 O   0  0  0  0  0  0  0  0  0  0  0  0
    0.6664   -0.1450    1.5428 C   0  0  0  0  0  0  0  0  0  0  0  0
    1.8485   -0.3724    1.8265 O   0  0  0  0  0  0  0  0  0  0  0  0
   -0.2161    0.2434    2.4686 N   0  0  0  0  0  0  0  0  0  0  0  0
   -1.1850    0.3219    2.1537 H   0  0  0  0  0  0  0  0  0  0  0  0
    0.0735    0.4128    3.8885 C   0  0  0  0  0  0  0  0  0  0  0  0
    1.0159    0.9483    4.0105 H   0  0  0  0  0  0  0  0  0  0  0  0
   -0.7315    0.9748    4.3613 H   0  0  0  0  0  0  0  0  0  0  0  0
    0.1564   -0.5677    4.3577 H   0  0  0  0  0  0  0  0  0  0  0  0
  5  6  2  0  0  0  0
  5  7  1  0  0  0  0
  2  3  1  0  0  0  0
  2  4  1  0  0  0  0
  2  5  1  0  0  0  0
  1  2  1  0  0  0  0
 17 18  2  0  0  0  0
 17 19  1  0  0  0  0
 14 15  1  0  0  0  0
 14 16  2  0  0  0  0
 11 12  1  0  0  0  0
 11 13  1  0  0  0  0
 11 14  1  0  0  0  0
  9 10  1  0  0  0  0
  9 11  1  0  0  0  0
  9 17  1  0  0  0  0
  7  8  1  0  0  0  0
  7  9  1  0  0  0  0
 21 22  1  0  0  0  0
 21 23  1  0  0  0  0
 21 24  1  0  0  0  0
 19 20  1  0  0  0  0
 19 21  1  0  0  0  0
M  CHG  1  15  -1
M  END
$$$$
default_name
  -OEChem-02102213163D

 24 23  0     1  0  0  0  0  0999 V2000
   -2.8347   -3.7166    0.8034 H   0  0  0  0  0  0  0  0  0  0  0  0
   -2.7728   -2.7096    0.3954 C   0  0  0  0  0  0  0  0  0  0  0  0
   -3.4267   -2.0426    0.9524 H   0  0  0  0  0  0  0  0  0  0  0  0
   -3.0538   -2.7186   -0.6556 H   0  0  0  0  0  0  0  0  0  0  0  0
   -1.3498   -2.2206    0.5184 C   0  0  0  0  0  0  0  0  0  0  0  0
   -0.4997   -2.9426    1.0194 O   0  0  0  0  0  0  0  0  0  0  0  0
   -1.1198   -0.9926    0.0674 N   0  0  0  0  0  0  0  0  0  0  0  0
   -1.8978   -0.4486   -0.2716 H   0  0  0  0  0  0  0  0  0  0  0  0
    0.1693   -0.2866    0.0854 C   0  0  1  0  0  0  0  0  0  0  0  0
    0.9043   -0.8713   -0.4705 H   0  0  0  0  0  0  0  0  0  0  0  0
    0.0106    1.0816   -0.6124 C   0  0  0  0  0  0  0  0  0  0  0  0
   -0.9039    1.5552   -0.2509 H   0  0  0  0  0  0  0  0  0  0  0  0
    0.8504    1.7202   -0.3299 H   0  0  0  0  0  0  0  0  0  0  0  0
   -0.0781    1.0094   -2.1449 C   0  0  0  0  0  0  0  0  0  0  0  0
   -1.1953    1.1756   -2.6888 O   0  5  0  0  0  0  0  0  0  0  0  0
    0.9805    0.7669   -2.7635 O   0  0  0  0  0  0  0  0  0  0  0  0
    0.6664   -0.1450    1.5428 C   0  0  0  0  0  0  0  0  0  0  0  0
    1.8485   -0.3724    1.8265 O   0  0  0  0  0  0  0  0  0  0  0  0
   -0.2161    0.2434    2.4686 N   0  0  0  0  0  0  0  0  0  0  0  0
   -1.1850    0.3219    2.1537 H   0  0  0  0  0  0  0  0  0  0  0  0
    0.0735    0.4128    3.8885 C   0  0  0  0  0  0  0  0  0  0  0  0
    1.0159    0.9483    4.0105 H   0  0  0  0  0  0  0  0  0  0  0  0
   -0.7315    0.9748    4.3613 H   0  0  0  0  0  0  0  0  0  0  0  0
    0.1564   -0.5677    4.3577 H   0  0  0  0  0  0  0  0  0  0  0  0
  5  6  2  0  0  0  0
  5  7  1  0  0  0  0
  2  3  1  0  0  0  0
  2  4  1  0  0  0  0
  2  5  1  0  0  0  0
  1  2  1  0  0  0  0
 17 18  2  0  0  0  0
 17 19  1  0  0  0  0
 14 15  1  0  0  0  0
 14 16  2  0  0  0  0
 11 12  1  0  0  0  0
 11 13  1  0  0  0  0
 11 14  1  0  0  0  0
  9 10  1  0  0  0  0
  9 11  1  0  0  0  0
  9 17  1  0  0  0  0
  7  8  1  0  0  0  0
  7  9  1  0  0  0  0
 21 22  1  0  0  0  0
 21 23  1  0  0  0  0
 21 24  1  0  0  0  0
 19 20  1  0  0  0  0
 19 21  1  0  0  0  0
M  CHG  1  15  -1
M  END
$$$$
default_name
  -OEChem-02102213163D

 24 23  0     1  0  0  0  0  0999 V2000
   -2.8347   -3.7166    0.8034 H   0  0  0  0  0  0  0  0  0  0  0  0
   -2.7728   -2.7096    0.3954 C   0  0  0  0  0  0  0  0  0  0  0  0
   -3.4267   -2.0426    0.9524 H   0  0  0  0  0  0  0  0  0  0  0  0
   -3.0538   -2.7186   -0.6556 H   0  0  0  0  0  0  0  0  0  0  0  0
   -1.3498   -2.2206    0.5184 C   0  0  0  0  0  0  0  0  0  0  0  0
   -0.4997   -2.9426    1.0194 O   0  0  0  0  0  0  0  0  0  0  0  0
   -1.1198   -0.9926    0.0674 N   0  0  0  0  0  0  0  0  0  0  0  0
   -1.8978   -0.4486   -0.2716 H   0  0  0  0  0  0  0  0  0  0  0  0
    0.1693   -0.2866    0.0854 C   0  0  1  0  0  0  0  0  0  0  0  0
    0.9043   -0.8713   -0.4705 H   0  0  0  0  0  0  0  0  0  0  0  0
    0.0106    1.0816   -0.6124 C   0  0  0  0  0  0  0  0  0  0  0  0
   -0.9039    1.5552   -0.2509 H   0  0  0  0  0  0  0  0  0  0  0  0
    0.8504    1.7202   -0.3299 H   0  0  0  0  0  0  0  0  0  0  0  0
   -0.0781    1.0094   -2.1449 C   0  0  0  0  0  0  0  0  0  0  0  0
   -1.1089    1.4492   -2.7067 O   0  5  0  0  0  0  0  0  0  0  0  0
    0.8883    0.4918   -2.7452 O   0  0  0  0  0  0  0  0  0  0  0  0
    0.6664   -0.1450    1.5428 C   0  0  0  0  0  0  0  0  0  0  0  0
    1.8485   -0.3724    1.8265 O   0  0  0  0  0  0  0  0  0  0  0  0
   -0.2161    0.2434    2.4686 N   0  0  0  0  0  0  0  0  0  0  0  0
   -1.1850    0.3219    2.1537 H   0  0  0  0  0  0  0  0  0  0  0  0
    0.0735    0.4128    3.8885 C   0  0  0  0  0  0  0  0  0  0  0  0
    1.0159    0.9483    4.0105 H   0  0  0  0  0  0  0  0  0  0  0  0
   -0.7315    0.9748    4.3613 H   0  0  0  0  0  0  0  0  0  0  0  0
    0.1564   -0.5677    4.3577 H   0  0  0  0  0  0  0  0  0  0  0  0
  5  6  2  0  0  0  0
  5  7  1  0  0  0  0
  2  3  1  0  0  0  0
  2  4  1  0  0  0  0
  2  5  1  0  0  0  0
  1  2  1  0  0  0  0
 17 18  2  0  0  0  0
 17 19  1  0  0  0  0
 14 15  1  0  0  0  0
 14 16  2  0  0  0  0
 11 12  1  0  0  0  0
 11 13  1  0  0  0  0
 11 14  1  0  0  0  0
  9 10  1  0  0  0  0
  9 11  1  0  0  0  0
  9 17  1  0  0  0  0
  7  8  1  0  0  0  0
  7  9  1  0  0  0  0
 21 22  1  0  0  0  0
 21 23  1  0  0  0  0
 21 24  1  0  0  0  0
 19 20  1  0  0  0  0
 19 21  1  0  0  0  0
M  CHG  1  15  -1
M  END
$$$$
default_name
  -OEChem-02102213163D

 24 23  0     1  0  0  0  0  0999 V2000
   -2.8347   -3.7166    0.8034 H   0  0  0  0  0  0  0  0  0  0  0  0
   -2.7728   -2.7096    0.3954 C   0  0  0  0  0  0  0  0  0  0  0  0
   -3.4267   -2.0426    0.9524 H   0  0  0  0  0  0  0  0  0  0  0  0
   -3.0538   -2.7186   -0.6556 H   0  0  0  0  0  0  0  0  0  0  0  0
   -1.3498   -2.2206    0.5184 C   0  0  0  0  0  0  0  0  0  0  0  0
   -0.4997   -2.9426    1.0194 O   0  0  0  0  0  0  0  0  0  0  0  0
   -1.1198   -0.9926    0.0674 N   0  0  0  0  0  0  0  0  0  0  0  0
   -1.8978   -0.4486   -0.2716 H   0  0  0  0  0  0  0  0  0  0  0  0
    0.1693   -0.2866    0.0854 C   0  0  1  0  0  0  0  0  0  0  0  0
    0.9043   -0.8713   -0.4705 H   0  0  0  0  0  0  0  0  0  0  0  0
    0.0106    1.0816   -0.6124 C   0  0  0  0  0  0  0  0  0  0  0  0
   -0.9039    1.5552   -0.2509 H   0  0  0  0  0  0  0  0  0  0  0  0
    0.8504    1.7202   -0.3299 H   0  0  0  0  0  0  0  0  0  0  0  0
   -0.0781    1.0094   -2.1449 C   0  0  0  0  0  0  0  0  0  0  0  0
   -0.9546    1.6909   -2.7270 O   0  5  0  0  0  0  0  0  0  0  0  0
    0.7279    0.2502   -2.7246 O   0  0  0  0  0  0  0  0  0  0  0  0
    0.6664   -0.1450    1.5428 C   0  0  0  0  0  0  0  0  0  0  0  0
    1.8485   -0.3724    1.8265 O   0  0  0  0  0  0  0  0  0  0  0  0
   -0.2161    0.2434    2.4686 N   0  0  0  0  0  0  0  0  0  0  0  0
   -1.1850    0.3219    2.1537 H   0  0  0  0  0  0  0  0  0  0  0  0
    0.0735    0.4128    3.8885 C   0  0  0  0  0  0  0  0  0  0  0  0
    1.0159    0.9483    4.0105 H   0  0  0  0  0  0  0  0  0  0  0  0
   -0.7315    0.9748    4.3613 H   0  0  0  0  0  0  0  0  0  0  0  0
    0.1564   -0.5677    4.3577 H   0  0  0  0  0  0  0  0  0  0  0  0
  5  6  2  0  0  0  0
  5  7  1  0  0  0  0
  2  3  1  0  0  0  0
  2  4  1  0  0  0  0
  2  5  1  0  0  0  0
  1  2  1  0  0  0  0
 17 18  2  0  0  0  0
 17 19  1  0  0  0  0
 14 15  1  0  0  0  0
 14 16  2  0  0  0  0
 11 12  1  0  0  0  0
 11 13  1  0  0  0  0
 11 14  1  0  0  0  0
  9 10  1  0  0  0  0
  9 11  1  0  0  0  0
  9 17  1  0  0  0  0
  7  8  1  0  0  0  0
  7  9  1  0  0  0  0
 21 22  1  0  0  0  0
 21 23  1  0  0  0  0
 21 24  1  0  0  0  0
 19 20  1  0  0  0  0
 19 21  1  0  0  0  0
M  CHG  1  15  -1
M  END
$$$$
default_name
  -OEChem-02102213163D

 24 23  0     1  0  0  0  0  0999 V2000
   -2.8347   -3.7166    0.8034 H   0  0  0  0  0  0  0  0  0  0  0  0
   -2.7728   -2.7096    0.3954 C   0  0  0  0  0  0  0  0  0  0  0  0
   -3.4267   -2.0426    0.9524 H   0  0  0  0  0  0  0  0  0  0  0  0
   -3.0538   -2.7186   -0.6556 H   0  0  0  0  0  0  0  0  0  0  0  0
   -1.3498   -2.2206    0.5184 C   0  0  0  0  0  0  0  0  0  0  0  0
   -0.4997   -2.9426    1.0194 O   0  0  0  0  0  0  0  0  0  0  0  0
   -1.1198   -0.9926    0.0674 N   0  0  0  0  0  0  0  0  0  0  0  0
   -1.8978   -0.4486   -0.2716 H   0  0  0  0  0  0  0  0  0  0  0  0
    0.1693   -0.2866    0.0854 C   0  0  1  0  0  0  0  0  0  0  0  0
    0.9043   -0.8713   -0.4705 H   0  0  0  0  0  0  0  0  0  0  0  0
    0.0106    1.0816   -0.6124 C   0  0  0  0  0  0  0  0  0  0  0  0
   -0.9039    1.5552   -0.2509 H   0  0  0  0  0  0  0  0  0  0  0  0
    0.8504    1.7202   -0.3299 H   0  0  0  0  0  0  0  0  0  0  0  0
   -0.0781    1.0094   -2.1449 C   0  0  0  0  0  0  0  0  0  0  0  0
   -0.7429    1.8843   -2.7484 O   0  5  0  0  0  0  0  0  0  0  0  0
    0.5105    0.0585   -2.7030 O   0  0  0  0  0  0  0  0  0  0  0  0
    0.6664   -0.1450    1.5428 C   0  0  0  0  0  0  0  0  0  0  0  0
    1.8485   -0.3724    1.8265 O   0  0  0  0  0  0  0  0  0  0  0  0
   -0.2161    0.2434    2.4686 N   0  0  0  0  0  0  0  0  0  0  0  0
   -1.1850    0.3219    2.1537 H   0  0  0  0  0  0  0  0  0  0  0  0
    0.0735    0.4128    3.8885 C   0  0  0  0  0  0  0  0  0  0  0  0
    1.0159    0.9483    4.0105 H   0  0  0  0  0  0  0  0  0  0  0  0
   -0.7315    0.9748    4.3613 H   0  0  0  0  0  0  0  0  0  0  0  0
    0.1564   -0.5677    4.3577 H   0  0  0  0  0  0  0  0  0  0  0  0
  5  6  2  0  0  0  0
  5  7  1  0  0  0  0
  2  3  1  0  0  0  0
  2  4  1  0  0  0  0
  2  5  1  0  0  0  0
  1  2  1  0  0  0  0
 17 18  2  0  0  0  0
 17 19  1  0  0  0  0
 14 15  1  0  0  0  0
 14 16  2  0  0  0  0
 11 12  1  0  0  0  0
 11 13  1  0  0  0  0
 11 14  1  0  0  0  0
  9 10  1  0  0  0  0
  9 11  1  0  0  0  0
  9 17  1  0  0  0  0
  7  8  1  0  0  0  0
  7  9  1  0  0  0  0
 21 22  1  0  0  0  0
 21 23  1  0  0  0  0
 21 24  1  0  0  0  0
 19 20  1  0  0  0  0
 19 21  1  0  0  0  0
M  CHG  1  15  -1
M  END
$$$$
default_name
  -OEChem-02102213163D

 24 23  0     1  0  0  0  0  0999 V2000
   -2.8347   -3.7166    0.8034 H   0  0  0  0  0  0  0  0  0  0  0  0
   -2.7728   -2.7096    0.3954 C   0  0  0  0  0  0  0  0  0  0  0  0
   -3.4267   -2.0426    0.9524 H   0  0  0  0  0  0  0  0  0  0  0  0
   -3.0538   -2.7186   -0.6556 H   0  0  0  0  0  0  0  0  0  0  0  0
   -1.3498   -2.2206    0.5184 C   0  0  0  0  0  0  0  0  0  0  0  0
   -0.4997   -2.9426    1.0194 O   0  0  0  0  0  0  0  0  0  0  0  0
   -1.1198   -0.9926    0.0674 N   0  0  0  0  0  0  0  0  0  0  0  0
   -1.8978   -0.4486   -0.2716 H   0  0  0  0  0  0  0  0  0  0  0  0
    0.1693   -0.2866    0.0854 C   0  0  1  0  0  0  0  0  0  0  0  0
    0.9043   -0.8713   -0.4705 H   0  0  0  0  0  0  0  0  0  0  0  0
    0.0106    1.0816   -0.6124 C   0  0  0  0  0  0  0  0  0  0  0  0
   -0.9039    1.5552   -0.2509 H   0  0  0  0  0  0  0  0  0  0  0  0
    0.8504    1.7202   -0.3299 H   0  0  0  0  0  0  0  0  0  0  0  0
   -0.0781    1.0094   -2.1449 C   0  0  0  0  0  0  0  0  0  0  0  0
   -0.4883    2.0161   -2.7693 O   0  5  0  0  0  0  0  0  0  0  0  0
    0.2506   -0.0703   -2.6819 O   0  0  0  0  0  0  0  0  0  0  0  0
    0.6664   -0.1450    1.5428 C   0  0  0  0  0  0  0  0  0  0  0  0
    1.8485   -0.3724    1.8265 O   0  0  0  0  0  0  0  0  0  0  0  0
   -0.2161    0.2434    2.4686 N   0  0  0  0  0  0  0  0  0  0  0  0
   -1.1850    0.3219    2.1537 H   0  0  0  0  0  0  0  0  0  0  0  0
    0.0735    0.4128    3.8885 C   0  0  0  0  0  0  0  0  0  0  0  0
    1.0159    0.9483    4.0105 H   0  0  0  0  0  0  0  0  0  0  0  0
   -0.7315    0.9748    4.3613 H   0  0  0  0  0  0  0  0  0  0  0  0
    0.1564   -0.5677    4.3577 H   0  0  0  0  0  0  0  0  0  0  0  0
  5  6  2  0  0  0  0
  5  7  1  0  0  0  0
  2  3  1  0  0  0  0
  2  4  1  0  0  0  0
  2  5  1  0  0  0  0
  1  2  1  0  0  0  0
 17 18  2  0  0  0  0
 17 19  1  0  0  0  0
 14 15  1  0  0  0  0
 14 16  2  0  0  0  0
 11 12  1  0  0  0  0
 11 13  1  0  0  0  0
 11 14  1  0  0  0  0
  9 10  1  0  0  0  0
  9 11  1  0  0  0  0
  9 17  1  0  0  0  0
  7  8  1  0  0  0  0
  7  9  1  0  0  0  0
 21 22  1  0  0  0  0
 21 23  1  0  0  0  0
 21 24  1  0  0  0  0
 19 20  1  0  0  0  0
 19 21  1  0  0  0  0
M  CHG  1  15  -1
M  END
$$$$
default_name
  -OEChem-02102213163D

 24 23  0     1  0  0  0  0  0999 V2000
   -2.8347   -3.7166    0.8034 H   0  0  0  0  0  0  0  0  0  0  0  0
   -2.7728   -2.7096    0.3954 C   0  0  0  0  0  0  0  0  0  0  0  0
   -3.4267   -2.0426    0.9524 H   0  0  0  0  0  0  0  0  0  0  0  0
   -3.0538   -2.7186   -0.6556 H   0  0  0  0  0  0  0  0  0  0  0  0
   -1.3498   -2.2206    0.5184 C   0  0  0  0  0  0  0  0  0  0  0  0
   -0.4997   -2.9426    1.0194 O   0  0  0  0  0  0  0  0  0  0  0  0
   -1.1198   -0.9926    0.0674 N   0  0  0  0  0  0  0  0  0  0  0  0
   -1.8978   -0.4486   -0.2716 H   0  0  0  0  0  0  0  0  0  0  0  0
    0.1693   -0.2866    0.0854 C   0  0  1  0  0  0  0  0  0  0  0  0
    0.9043   -0.8713   -0.4705 H   0  0  0  0  0  0  0  0  0  0  0  0
    0.0106    1.0816   -0.6124 C   0  0  0  0  0  0  0  0  0  0  0  0
   -0.7357    1.6663   -0.0715 H   0  0  0  0  0  0  0  0  0  0  0  0
    0.9600    1.6184   -0.5546 H   0  0  0  0  0  0  0  0  0  0  0  0
   -0.4372    1.0007   -2.0802 C   0  0  0  0  0  0  0  0  0  0  0  0
   -0.5898    2.0682   -2.7197 O   0  5  0  0  0  0  0  0  0  0  0  0
   -0.6434   -0.1396   -2.5484 O   0  0  0  0  0  0  0  0  0  0  0  0
    0.6664   -0.1450    1.5428 C   0  0  0  0  0  0  0  0  0  0  0  0
    1.8485   -0.3724    1.8265 O   0  0  0  0  0  0  0  0  0  0  0  0
   -0.2161    0.2434    2.4686 N   0  0  0  0  0  0  0  0  0  0  0  0
   -1.1850    0.3219    2.1537 H   0  0  0  0  0  0  0  0  0  0  0  0
    0.0735    0.4128    3.8885 C   0  0  0  0  0  0  0  0  0  0  0  0
    1.0159    0.9483    4.0105 H   0  0  0  0  0  0  0  0  0  0  0  0
   -0.7315    0.9748    4.3613 H   0  0  0  0  0  0  0  0  0  0  0  0
    0.1564   -0.5677    4.3577 H   0  0  0  0  0  0  0  0  0  0  0  0
  5  6  2  0  0  0  0
  5  7  1  0  0  0  0
  2  3  1  0  0  0  0
  2  4  1  0  0  0  0
  2  5  1  0  0  0  0
  1  2  1  0  0  0  0
 17 18  2  0  0  0  0
 17 19  1  0  0  0  0
 14 15  1  0  0  0  0
 14 16  2  0  0  0  0
 11 12  1  0  0  0  0
 11 13  1  0  0  0  0
 11 14  1  0  0  0  0
  9 10  1  0  0  0  0
  9 11  1  0  0  0  0
  9 17  1  0  0  0  0
  7  8  1  0  0  0  0
  7  9  1  0  0  0  0
 21 22  1  0  0  0  0
 21 23  1  0  0  0  0
 21 24  1  0  0  0  0
 19 20  1  0  0  0  0
 19 21  1  0  0  0  0
M  CHG  1  15  -1
M  END
$$$$
default_name
  -OEChem-02102213163D

 24 23  0     1  0  0  0  0  0999 V2000
   -2.8347   -3.7166    0.8034 H   0  0  0  0  0  0  0  0  0  0  0  0
   -2.7728   -2.7096    0.3954 C   0  0  0  0  0  0  0  0  0  0  0  0
   -3.4267   -2.0426    0.9524 H   0  0  0  0  0  0  0  0  0  0  0  0
   -3.0538   -2.7186   -0.6556 H   0  0  0  0  0  0  0  0  0  0  0  0
   -1.3498   -2.2206    0.5184 C   0  0  0  0  0  0  0  0  0  0  0  0
   -0.4997   -2.9426    1.0194 O   0  0  0  0  0  0  0  0  0  0  0  0
   -1.1198   -0.9926    0.0674 N   0  0  0  0  0  0  0  0  0  0  0  0
   -1.8978   -0.4486   -0.2716 H   0  0  0  0  0  0  0  0  0  0  0  0
    0.1693   -0.2866    0.0854 C   0  0  1  0  0  0  0  0  0  0  0  0
    0.9043   -0.8713   -0.4705 H   0  0  0  0  0  0  0  0  0  0  0  0
    0.0106    1.0816   -0.6124 C   0  0  0  0  0  0  0  0  0  0  0  0
   -0.7357    1.6663   -0.0715 H   0  0  0  0  0  0  0  0  0  0  0  0
    0.9600    1.6184   -0.5546 H   0  0  0  0  0  0  0  0  0  0  0  0
   -0.4372    1.0007   -2.0802 C   0  0  0  0  0  0  0  0  0  0  0  0
   -0.3179    2.0202   -2.8000 O   0  5  0  0  0  0  0  0  0  0  0  0
   -0.9176   -0.0861   -2.4677 O   0  0  0  0  0  0  0  0  0  0  0  0
    0.6664   -0.1450    1.5428 C   0  0  0  0  0  0  0  0  0  0  0  0
    1.8485   -0.3724    1.8265 O   0  0  0  0  0  0  0  0  0  0  0  0
   -0.2161    0.2434    2.4686 N   0  0  0  0  0  0  0  0  0  0  0  0
   -1.1850    0.3219    2.1537 H   0  0  0  0  0  0  0  0  0  0  0  0
    0.0735    0.4128    3.8885 C   0  0  0  0  0  0  0  0  0  0  0  0
    1.0159    0.9483    4.0105 H   0  0  0  0  0  0  0  0  0  0  0  0
   -0.7315    0.9748    4.3613 H   0  0  0  0  0  0  0  0  0  0  0  0
    0.1564   -0.5677    4.3577 H   0  0  0  0  0  0  0  0  0  0  0  0
  5  6  2  0  0  0  0
  5  7  1  0  0  0  0
  2  3  1  0  0  0  0
  2  4  1  0  0  0  0
  2  5  1  0  0  0  0
  1  2  1  0  0  0  0
 17 18  2  0  0  0  0
 17 19  1  0  0  0  0
 14 15  1  0  0  0  0
 14 16  2  0  0  0  0
 11 12  1  0  0  0  0
 11 13  1  0  0  0  0
 11 14  1  0  0  0  0
  9 10  1  0  0  0  0
  9 11  1  0  0  0  0
  9 17  1  0  0  0  0
  7  8  1  0  0  0  0
  7  9  1  0  0  0  0
 21 22  1  0  0  0  0
 21 23  1  0  0  0  0
 21 24  1  0  0  0  0
 19 20  1  0  0  0  0
 19 21  1  0  0  0  0
M  CHG  1  15  -1
M  END
$$$$
default_name
  -OEChem-02102213163D

 24 23  0     1  0  0  0  0  0999 V2000
   -2.8347   -3.7166    0.8034 H   0  0  0  0  0  0  0  0  0  0  0  0
   -2.7728   -2.7096    0.3954 C   0  0  0  0  0  0  0  0  0  0  0  0
   -3.4267   -2.0426    0.9524 H   0  0  0  0  0  0  0  0  0  0  0  0
   -3.0538   -2.7186   -0.6556 H   0  0  0  0  0  0  0  0  0  0  0  0
   -1.3498   -2.2206    0.5184 C   0  0  0  0  0  0  0  0  0  0  0  0
   -0.4997   -2.9426    1.0194 O   0  0  0  0  0  0  0  0  0  0  0  0
   -1.1198   -0.9926    0.0674 N   0  0  0  0  0  0  0  0  0  0  0  0
   -1.8978   -0.4486   -0.2716 H   0  0  0  0  0  0  0  0  0  0  0  0
    0.1693   -0.2866    0.0854 C   0  0  1  0  0  0  0  0  0  0  0  0
    0.9043   -0.8713   -0.4705 H   0  0  0  0  0  0  0  0  0  0  0  0
    0.0106    1.0816   -0.6124 C   0  0  0  0  0  0  0  0  0  0  0  0
   -0.7357    1.6663   -0.0715 H   0  0  0  0  0  0  0  0  0  0  0  0
    0.9600    1.6184   -0.5546 H   0  0  0  0  0  0  0  0  0  0  0  0
   -0.4372    1.0007   -2.0802 C   0  0  0  0  0  0  0  0  0  0  0  0
   -0.0661    1.9006   -2.8702 O   0  5  0  0  0  0  0  0  0  0  0  0
   -1.1702    0.0394   -2.3975 O   0  0  0  0  0  0  0  0  0  0  0  0
    0.6664   -0.1450    1.5428 C   0  0  0  0  0  0  0  0  0  0  0  0
    1.8485   -0.3724    1.8265 O   0  0  0  0  0  0  0  0  0  0  0  0
   -0.2161    0.2434    2.4686 N   0  0  0  0  0  0  0  0  0  0  0  0
   -1.1850    0.3219    2.1537 H   0  0  0  0  0  0  0  0  0  0  0  0
    0.0735    0.4128    3.8885 C   0  0  0  0  0  0  0  0  0  0  0  0
    1.0159    0.9483    4.0105 H   0  0  0  0  0  0  0  0  0  0  0  0
   -0.7315    0.9748    4.3613 H   0  0  0  0  0  0  0  0  0  0  0  0
    0.1564   -0.5677    4.3577 H   0  0  0  0  0  0  0  0  0  0  0  0
  5  6  2  0  0  0  0
  5  7  1  0  0  0  0
  2  3  1  0  0  0  0
  2  4  1  0  0  0  0
  2  5  1  0  0  0  0
  1  2  1  0  0  0  0
 17 18  2  0  0  0  0
 17 19  1  0  0  0  0
 14 15  1  0  0  0  0
 14 16  2  0  0  0  0
 11 12  1  0  0  0  0
 11 13  1  0  0  0  0
 11 14  1  0  0  0  0
  9 10  1  0  0  0  0
  9 11  1  0  0  0  0
  9 17  1  0  0  0  0
  7  8  1  0  0  0  0
  7  9  1  0  0  0  0
 21 22  1  0  0  0  0
 21 23  1  0  0  0  0
 21 24  1  0  0  0  0
 19 20  1  0  0  0  0
 19 21  1  0  0  0  0
M  CHG  1  15  -1
M  END
$$$$
default_name
  -OEChem-02102213163D

 24 23  0     1  0  0  0  0  0999 V2000
   -2.8347   -3.7166    0.8034 H   0  0  0  0  0  0  0  0  0  0  0  0
   -2.7728   -2.7096    0.3954 C   0  0  0  0  0  0  0  0  0  0  0  0
   -3.4267   -2.0426    0.9524 H   0  0  0  0  0  0  0  0  0  0  0  0
   -3.0538   -2.7186   -0.6556 H   0  0  0  0  0  0  0  0  0  0  0  0
   -1.3498   -2.2206    0.5184 C   0  0  0  0  0  0  0  0  0  0  0  0
   -0.4997   -2.9426    1.0194 O   0  0  0  0  0  0  0  0  0  0  0  0
   -1.1198   -0.9926    0.0674 N   0  0  0  0  0  0  0  0  0  0  0  0
   -1.8978   -0.4486   -0.2716 H   0  0  0  0  0  0  0  0  0  0  0  0
    0.1693   -0.2866    0.0854 C   0  0  1  0  0  0  0  0  0  0  0  0
    0.9043   -0.8713   -0.4705 H   0  0  0  0  0  0  0  0  0  0  0  0
    0.0106    1.0816   -0.6124 C   0  0  0  0  0  0  0  0  0  0  0  0
   -0.7357    1.6663   -0.0715 H   0  0  0  0  0  0  0  0  0  0  0  0
    0.9600    1.6184   -0.5546 H   0  0  0  0  0  0  0  0  0  0  0  0
   -0.4372    1.0007   -2.0802 C   0  0  0  0  0  0  0  0  0  0  0  0
    0.1485    1.7176   -2.9256 O   0  5  0  0  0  0  0  0  0  0  0  0
   -1.3842    0.2285   -2.3427 O   0  0  0  0  0  0  0  0  0  0  0  0
    0.6664   -0.1450    1.5428 C   0  0  0  0  0  0  0  0  0  0  0  0
    1.8485   -0.3724    1.8265 O   0  0  0  0  0  0  0  0  0  0  0  0
   -0.2161    0.2434    2.4686 N   0  0  0  0  0  0  0  0  0  0  0  0
   -1.1850    0.3219    2.1537 H   0  0  0  0  0  0  0  0  0  0  0  0
    0.0735    0.4128    3.8885 C   0  0  0  0  0  0  0  0  0  0  0  0
    1.0159    0.9483    4.0105 H   0  0  0  0  0  0  0  0  0  0  0  0
   -0.7315    0.9748    4.3613 H   0  0  0  0  0  0  0  0  0  0  0  0
    0.1564   -0.5677    4.3577 H   0  0  0  0  0  0  0  0  0  0  0  0
  5  6  2  0  0  0  0
  5  7  1  0  0  0  0
  2  3  1  0  0  0  0
  2  4  1  0  0  0  0
  2  5  1  0  0  0  0
  1  2  1  0  0  0  0
 17 18  2  0  0  0  0
 17 19  1  0  0  0  0
 14 15  1  0  0  0  0
 14 16  2  0  0  0  0
 11 12  1  0  0  0  0
 11 13  1  0  0  0  0
 11 14  1  0  0  0  0
  9 10  1  0  0  0  0
  9 11  1  0  0  0  0
  9 17  1  0  0  0  0
  7  8  1  0  0  0  0
  7  9  1  0  0  0  0
 21 22  1  0  0  0  0
 21 23  1  0  0  0  0
 21 24  1  0  0  0  0
 19 20  1  0  0  0  0
 19 21  1  0  0  0  0
M  CHG  1  15  -1
M  END
$$$$
default_name
  -OEChem-02102213163D

 24 23  0     1  0  0  0  0  0999 V2000
   -2.8347   -3.7166    0.8034 H   0  0  0  0  0  0  0  0  0  0  0  0
   -2.7728   -2.7096    0.3954 C   0  0  0  0  0  0  0  0  0  0  0  0
   -3.4267   -2.0426    0.9524 H   0  0  0  0  0  0  0  0  0  0  0  0
   -3.0538   -2.7186   -0.6556 H   0  0  0  0  0  0  0  0  0  0  0  0
   -1.3498   -2.2206    0.5184 C   0  0  0  0  0  0  0  0  0  0  0  0
   -0.4997   -2.9426    1.0194 O   0  0  0  0  0  0  0  0  0  0  0  0
   -1.1198   -0.9926    0.0674 N   0  0  0  0  0  0  0  0  0  0  0  0
   -1.8978   -0.4486   -0.2716 H   0  0  0  0  0  0  0  0  0  0  0  0
    0.1693   -0.2866    0.0854 C   0  0  1  0  0  0  0  0  0  0  0  0
    0.9043   -0.8713   -0.4705 H   0  0  0  0  0  0  0  0  0  0  0  0
    0.0106    1.0816   -0.6124 C   0  0  0  0  0  0  0  0  0  0  0  0
   -0.7357    1.6663   -0.0715 H   0  0  0  0  0  0  0  0  0  0  0  0
    0.9600    1.6184   -0.5546 H   0  0  0  0  0  0  0  0  0  0  0  0
   -0.4372    1.0007   -2.0802 C   0  0  0  0  0  0  0  0  0  0  0  0
    0.3114    1.4835   -2.9624 O   0  5  0  0  0  0  0  0  0  0  0  0
   -1.5449    0.4681   -2.3069 O   0  0  0  0  0  0  0  0  0  0  0  0
    0.6664   -0.1450    1.5428 C   0  0  0  0  0  0  0  0  0  0  0  0
    1.8485   -0.3724    1.8265 O   0  0  0  0  0  0  0  0  0  0  0  0
   -0.2161    0.2434    2.4686 N   0  0  0  0  0  0  0  0  0  0  0  0
   -1.1850    0.3219    2.1537 H   0  0  0  0  0  0  0  0  0  0  0  0
    0.0735    0.4128    3.8885 C   0  0  0  0  0  0  0  0  0  0  0  0
    1.0159    0.9483    4.0105 H   0  0  0  0  0  0  0  0  0  0  0  0
   -0.7315    0.9748    4.3613 H   0  0  0  0  0  0  0  0  0  0  0  0
    0.1564   -0.5677    4.3577 H   0  0  0  0  0  0  0  0  0  0  0  0
  5  6  2  0  0  0  0
  5  7  1  0  0  0  0
  2  3  1  0  0  0  0
  2  4  1  0  0  0  0
  2  5  1  0  0  0  0
  1  2  1  0  0  0  0
 17 18  2  0  0  0  0
 17 19  1  0  0  0  0
 14 15  1  0  0  0  0
 14 16  2  0  0  0  0
 11 12  1  0  0  0  0
 11 13  1  0  0  0  0
 11 14  1  0  0  0  0
  9 10  1  0  0  0  0
  9 11  1  0  0  0  0
  9 17  1  0  0  0  0
  7  8  1  0  0  0  0
  7  9  1  0  0  0  0
 21 22  1  0  0  0  0
 21 23  1  0  0  0  0
 21 24  1  0  0  0  0
 19 20  1  0  0  0  0
 19 21  1  0  0  0  0
M  CHG  1  15  -1
M  END
$$$$
default_name
  -OEChem-02102213163D

 24 23  0     1  0  0  0  0  0999 V2000
   -2.8347   -3.7166    0.8034 H   0  0  0  0  0  0  0  0  0  0  0  0
   -2.7728   -2.7096    0.3954 C   0  0  0  0  0  0  0  0  0  0  0  0
   -3.4267   -2.0426    0.9524 H   0  0  0  0  0  0  0  0  0  0  0  0
   -3.0538   -2.7186   -0.6556 H   0  0  0  0  0  0  0  0  0  0  0  0
   -1.3498   -2.2206    0.5184 C   0  0  0  0  0  0  0  0  0  0  0  0
   -0.4997   -2.9426    1.0194 O   0  0  0  0  0  0  0  0  0  0  0  0
   -1.1198   -0.9926    0.0674 N   0  0  0  0  0  0  0  0  0  0  0  0
   -1.8978   -0.4486   -0.2716 H   0  0  0  0  0  0  0  0  0  0  0  0
    0.1693   -0.2866    0.0854 C   0  0  1  0  0  0  0  0  0  0  0  0
    0.9043   -0.8713   -0.4705 H   0  0  0  0  0  0  0  0  0  0  0  0
    0.0106    1.0816   -0.6124 C   0  0  0  0  0  0  0  0  0  0  0  0
   -0.7357    1.6663   -0.0715 H   0  0  0  0  0  0  0  0  0  0  0  0
    0.9600    1.6184   -0.5546 H   0  0  0  0  0  0  0  0  0  0  0  0
   -0.4372    1.0007   -2.0802 C   0  0  0  0  0  0  0  0  0  0  0  0
    0.4113    1.2144   -2.9780 O   0  5  0  0  0  0  0  0  0  0  0  0
   -1.6414    0.7420   -2.2926 O   0  0  0  0  0  0  0  0  0  0  0  0
    0.6664   -0.1450    1.5428 C   0  0  0  0  0  0  0  0  0  0  0  0
    1.8485   -0.3724    1.8265 O   0  0  0  0  0  0  0  0  0  0  0  0
   -0.2161    0.2434    2.4686 N   0  0  0  0  0  0  0  0  0  0  0  0
   -1.1850    0.3219    2.1537 H   0  0  0  0  0  0  0  0  0  0  0  0
    0.0735    0.4128    3.8885 C   0  0  0  0  0  0  0  0  0  0  0  0
    1.0159    0.9483    4.0105 H   0  0  0  0  0  0  0  0  0  0  0  0
   -0.7315    0.9748    4.3613 H   0  0  0  0  0  0  0  0  0  0  0  0
    0.1564   -0.5677    4.3577 H   0  0  0  0  0  0  0  0  0  0  0  0
  5  6  2  0  0  0  0
  5  7  1  0  0  0  0
  2  3  1  0  0  0  0
  2  4  1  0  0  0  0
  2  5  1  0  0  0  0
  1  2  1  0  0  0  0
 17 18  2  0  0  0  0
 17 19  1  0  0  0  0
 14 15  1  0  0  0  0
 14 16  2  0  0  0  0
 11 12  1  0  0  0  0
 11 13  1  0  0  0  0
 11 14  1  0  0  0  0
  9 10  1  0  0  0  0
  9 11  1  0  0  0  0
  9 17  1  0  0  0  0
  7  8  1  0  0  0  0
  7  9  1  0  0  0  0
 21 22  1  0  0  0  0
 21 23  1  0  0  0  0
 21 24  1  0  0  0  0
 19 20  1  0  0  0  0
 19 21  1  0  0  0  0
M  CHG  1  15  -1
M  END
$$$$
default_name
  -OEChem-02102213163D

 24 23  0     1  0  0  0  0  0999 V2000
   -2.8347   -3.7166    0.8034 H   0  0  0  0  0  0  0  0  0  0  0  0
   -2.7728   -2.7096    0.3954 C   0  0  0  0  0  0  0  0  0  0  0  0
   -3.4267   -2.0426    0.9524 H   0  0  0  0  0  0  0  0  0  0  0  0
   -3.0538   -2.7186   -0.6556 H   0  0  0  0  0  0  0  0  0  0  0  0
   -1.3498   -2.2206    0.5184 C   0  0  0  0  0  0  0  0  0  0  0  0
   -0.4997   -2.9426    1.0194 O   0  0  0  0  0  0  0  0  0  0  0  0
   -1.1198   -0.9926    0.0674 N   0  0  0  0  0  0  0  0  0  0  0  0
   -1.8978   -0.4486   -0.2716 H   0  0  0  0  0  0  0  0  0  0  0  0
    0.1693   -0.2866    0.0854 C   0  0  1  0  0  0  0  0  0  0  0  0
    0.9043   -0.8713   -0.4705 H   0  0  0  0  0  0  0  0  0  0  0  0
    0.0106    1.0816   -0.6124 C   0  0  0  0  0  0  0  0  0  0  0  0
   -0.7357    1.6663   -0.0715 H   0  0  0  0  0  0  0  0  0  0  0  0
    0.9600    1.6184   -0.5546 H   0  0  0  0  0  0  0  0  0  0  0  0
   -0.4372    1.0007   -2.0802 C   0  0  0  0  0  0  0  0  0  0  0  0
    0.4415    0.9286   -2.9715 O   0  5  0  0  0  0  0  0  0  0  0  0
   -1.6671    1.0314   -2.3007 O   0  0  0  0  0  0  0  0  0  0  0  0
    0.6664   -0.1450    1.5428 C   0  0  0  0  0  0  0  0  0  0  0  0
    1.8485   -0.3724    1.8265 O   0  0  0  0  0  0  0  0  0  0  0  0
   -0.2161    0.2434    2.4686 N   0  0  0  0  0  0  0  0  0  0  0  0
   -1.1850    0.3219    2.1537 H   0  0  0  0  0  0  0  0  0  0  0  0
    0.0735    0.4128    3.8885 C   0  0  0  0  0  0  0  0  0  0  0  0
    1.0159    0.9483    4.0105 H   0  0  0  0  0  0  0  0  0  0  0  0
   -0.7315    0.9748    4.3613 H   0  0  0  0  0  0  0  0  0  0  0  0
    0.1564   -0.5677    4.3577 H   0  0  0  0  0  0  0  0  0  0  0  0
  5  6  2  0  0  0  0
  5  7  1  0  0  0  0
  2  3  1  0  0  0  0
  2  4  1  0  0  0  0
  2  5  1  0  0  0  0
  1  2  1  0  0  0  0
 17 18  2  0  0  0  0
 17 19  1  0  0  0  0
 14 15  1  0  0  0  0
 14 16  2  0  0  0  0
 11 12  1  0  0  0  0
 11 13  1  0  0  0  0
 11 14  1  0  0  0  0
  9 10  1  0  0  0  0
  9 11  1  0  0  0  0
  9 17  1  0  0  0  0
  7  8  1  0  0  0  0
  7  9  1  0  0  0  0
 21 22  1  0  0  0  0
 21 23  1  0  0  0  0
 21 24  1  0  0  0  0
 19 20  1  0  0  0  0
 19 21  1  0  0  0  0
M  CHG  1  15  -1
M  END
$$$$
default_name
  -OEChem-02102213163D

 24 23  0     1  0  0  0  0  0999 V2000
   -2.8347   -3.7166    0.8034 H   0  0  0  0  0  0  0  0  0  0  0  0
   -2.7728   -2.7096    0.3954 C   0  0  0  0  0  0  0  0  0  0  0  0
   -3.4267   -2.0426    0.9524 H   0  0  0  0  0  0  0  0  0  0  0  0
   -3.0538   -2.7186   -0.6556 H   0  0  0  0  0  0  0  0  0  0  0  0
   -1.3498   -2.2206    0.5184 C   0  0  0  0  0  0  0  0  0  0  0  0
   -0.4997   -2.9426    1.0194 O   0  0  0  0  0  0  0  0  0  0  0  0
   -1.1198   -0.9926    0.0674 N   0  0  0  0  0  0  0  0  0  0  0  0
   -1.8978   -0.4486   -0.2716 H   0  0  0  0  0  0  0  0  0  0  0  0
    0.1693   -0.2866    0.0854 C   0  0  1  0  0  0  0  0  0  0  0  0
    0.9043   -0.8713   -0.4705 H   0  0  0  0  0  0  0  0  0  0  0  0
    0.0106    1.0816   -0.6124 C   0  0  0  0  0  0  0  0  0  0  0  0
   -0.7357    1.6663   -0.0715 H   0  0  0  0  0  0  0  0  0  0  0  0
    0.9600    1.6184   -0.5546 H   0  0  0  0  0  0  0  0  0  0  0  0
   -0.4372    1.0007   -2.0802 C   0  0  0  0  0  0  0  0  0  0  0  0
    0.3999    0.6456   -2.9432 O   0  5  0  0  0  0  0  0  0  0  0  0
   -1.6202    1.3168   -2.3307 O   0  0  0  0  0  0  0  0  0  0  0  0
    0.6664   -0.1450    1.5428 C   0  0  0  0  0  0  0  0  0  0  0  0
    1.8485   -0.3724    1.8265 O   0  0  0  0  0  0  0  0  0  0  0  0
   -0.2161    0.2434    2.4686 N   0  0  0  0  0  0  0  0  0  0  0  0
   -1.1850    0.3219    2.1537 H   0  0  0  0  0  0  0  0  0  0  0  0
    0.0735    0.4128    3.8885 C   0  0  0  0  0  0  0  0  0  0  0  0
    1.0159    0.9483    4.0105 H   0  0  0  0  0  0  0  0  0  0  0  0
   -0.7315    0.9748    4.3613 H   0  0  0  0  0  0  0  0  0  0  0  0
    0.1564   -0.5677    4.3577 H   0  0  0  0  0  0  0  0  0  0  0  0
  5  6  2  0  0  0  0
  5  7  1  0  0  0  0
  2  3  1  0  0  0  0
  2  4  1  0  0  0  0
  2  5  1  0  0  0  0
  1  2  1  0  0  0  0
 17 18  2  0  0  0  0
 17 19  1  0  0  0  0
 14 15  1  0  0  0  0
 14 16  2  0  0  0  0
 11 12  1  0  0  0  0
 11 13  1  0  0  0  0
 11 14  1  0  0  0  0
  9 10  1  0  0  0  0
  9 11  1  0  0  0  0
  9 17  1  0  0  0  0
  7  8  1  0  0  0  0
  7  9  1  0  0  0  0
 21 22  1  0  0  0  0
 21 23  1  0  0  0  0
 21 24  1  0  0  0  0
 19 20  1  0  0  0  0
 19 21  1  0  0  0  0
M  CHG  1  15  -1
M  END
$$$$
default_name
  -OEChem-02102213163D

 24 23  0     1  0  0  0  0  0999 V2000
   -2.8347   -3.7166    0.8034 H   0  0  0  0  0  0  0  0  0  0  0  0
   -2.7728   -2.7096    0.3954 C   0  0  0  0  0  0  0  0  0  0  0  0
   -3.4267   -2.0426    0.9524 H   0  0  0  0  0  0  0  0  0  0  0  0
   -3.0538   -2.7186   -0.6556 H   0  0  0  0  0  0  0  0  0  0  0  0
   -1.3498   -2.2206    0.5184 C   0  0  0  0  0  0  0  0  0  0  0  0
   -0.4997   -2.9426    1.0194 O   0  0  0  0  0  0  0  0  0  0  0  0
   -1.1198   -0.9926    0.0674 N   0  0  0  0  0  0  0  0  0  0  0  0
   -1.8978   -0.4486   -0.2716 H   0  0  0  0  0  0  0  0  0  0  0  0
    0.1693   -0.2866    0.0854 C   0  0  1  0  0  0  0  0  0  0  0  0
    0.9043   -0.8713   -0.4705 H   0  0  0  0  0  0  0  0  0  0  0  0
    0.0106    1.0816   -0.6124 C   0  0  0  0  0  0  0  0  0  0  0  0
   -0.7357    1.6663   -0.0715 H   0  0  0  0  0  0  0  0  0  0  0  0
    0.9600    1.6184   -0.5546 H   0  0  0  0  0  0  0  0  0  0  0  0
   -0.4372    1.0007   -2.0802 C   0  0  0  0  0  0  0  0  0  0  0  0
    0.2894    0.3846   -2.8951 O   0  5  0  0  0  0  0  0  0  0  0  0
   -1.5040    1.5786   -2.3806 O   0  0  0  0  0  0  0  0  0  0  0  0
    0.6664   -0.1450    1.5428 C   0  0  0  0  0  0  0  0  0  0  0  0
    1.8485   -0.3724    1.8265 O   0  0  0  0  0  0  0  0  0  0  0  0
   -0.2161    0.2434    2.4686 N   0  0  0  0  0  0  0  0  0  0  0  0
   -1.1850    0.3219    2.1537 H   0  0  0  0  0  0  0  0  0  0  0  0
    0.0735    0.4128    3.8885 C   0  0  0  0  0  0  0  0  0  0  0  0
    1.0159    0.9483    4.0105 H   0  0  0  0  0  0  0  0  0  0  0  0
   -0.7315    0.9748    4.3613 H   0  0  0  0  0  0  0  0  0  0  0  0
    0.1564   -0.5677    4.3577 H   0  0  0  0  0  0  0  0  0  0  0  0
  5  6  2  0  0  0  0
  5  7  1  0  0  0  0
  2  3  1  0  0  0  0
  2  4  1  0  0  0  0
  2  5  1  0  0  0  0
  1  2  1  0  0  0  0
 17 18  2  0  0  0  0
 17 19  1  0  0  0  0
 14 15  1  0  0  0  0
 14 16  2  0  0  0  0
 11 12  1  0  0  0  0
 11 13  1  0  0  0  0
 11 14  1  0  0  0  0
  9 10  1  0  0  0  0
  9 11  1  0  0  0  0
  9 17  1  0  0  0  0
  7  8  1  0  0  0  0
  7  9  1  0  0  0  0
 21 22  1  0  0  0  0
 21 23  1  0  0  0  0
 21 24  1  0  0  0  0
 19 20  1  0  0  0  0
 19 21  1  0  0  0  0
M  CHG  1  15  -1
M  END
$$$$
default_name
  -OEChem-02102213163D

 24 23  0     1  0  0  0  0  0999 V2000
   -2.8347   -3.7166    0.8034 H   0  0  0  0  0  0  0  0  0  0  0  0
   -2.7728   -2.7096    0.3954 C   0  0  0  0  0  0  0  0  0  0  0  0
   -3.4267   -2.0426    0.9524 H   0  0  0  0  0  0  0  0  0  0  0  0
   -3.0538   -2.7186   -0.6556 H   0  0  0  0  0  0  0  0  0  0  0  0
   -1.3498   -2.2206    0.5184 C   0  0  0  0  0  0  0  0  0  0  0  0
   -0.4997   -2.9426    1.0194 O   0  0  0  0  0  0  0  0  0  0  0  0
   -1.1198   -0.9926    0.0674 N   0  0  0  0  0  0  0  0  0  0  0  0
   -1.8978   -0.4486   -0.2716 H   0  0  0  0  0  0  0  0  0  0  0  0
    0.1693   -0.2866    0.0854 C   0  0  1  0  0  0  0  0  0  0  0  0
    0.9043   -0.8713   -0.4705 H   0  0  0  0  0  0  0  0  0  0  0  0
    0.0106    1.0816   -0.6124 C   0  0  0  0  0  0  0  0  0  0  0  0
   -0.7357    1.6663   -0.0715 H   0  0  0  0  0  0  0  0  0  0  0  0
    0.9600    1.6184   -0.5546 H   0  0  0  0  0  0  0  0  0  0  0  0
   -0.4372    1.0007   -2.0802 C   0  0  0  0  0  0  0  0  0  0  0  0
    0.1175    0.1634   -2.8304 O   0  5  0  0  0  0  0  0  0  0  0  0
   -1.3263    1.7989   -2.4469 O   0  0  0  0  0  0  0  0  0  0  0  0
    0.6664   -0.1450    1.5428 C   0  0  0  0  0  0  0  0  0  0  0  0
    1.8485   -0.3724    1.8265 O   0  0  0  0  0  0  0  0  0  0  0  0
   -0.2161    0.2434    2.4686 N   0  0  0  0  0  0  0  0  0  0  0  0
   -1.1850    0.3219    2.1537 H   0  0  0  0  0  0  0  0  0  0  0  0
    0.0735    0.4128    3.8885 C   0  0  0  0  0  0  0  0  0  0  0  0
    1.0159    0.9483    4.0105 H   0  0  0  0  0  0  0  0  0  0  0  0
   -0.7315    0.9748    4.3613 H   0  0  0  0  0  0  0  0  0  0  0  0
    0.1564   -0.5677    4.3577 H   0  0  0  0  0  0  0  0  0  0  0  0
  5  6  2  0  0  0  0
  5  7  1  0  0  0  0
  2  3  1  0  0  0  0
  2  4  1  0  0  0  0
  2  5  1  0  0  0  0
  1  2  1  0  0  0  0
 17 18  2  0  0  0  0
 17 19  1  0  0  0  0
 14 15  1  0  0  0  0
 14 16  2  0  0  0  0
 11 12  1  0  0  0  0
 11 13  1  0  0  0  0
 11 14  1  0  0  0  0
  9 10  1  0  0  0  0
  9 11  1  0  0  0  0
  9 17  1  0  0  0  0
  7  8  1  0  0  0  0
  7  9  1  0  0  0  0
 21 22  1  0  0  0  0
 21 23  1  0  0  0  0
 21 24  1  0  0  0  0
 19 20  1  0  0  0  0
 19 21  1  0  0  0  0
M  CHG  1  15  -1
M  END
$$$$
default_name
  -OEChem-02102213163D

 24 23  0     1  0  0  0  0  0999 V2000
   -2.8347   -3.7166    0.8034 H   0  0  0  0  0  0  0  0  0  0  0  0
   -2.7728   -2.7096    0.3954 C   0  0  0  0  0  0  0  0  0  0  0  0
   -3.4267   -2.0426    0.9524 H   0  0  0  0  0  0  0  0  0  0  0  0
   -3.0538   -2.7186   -0.6556 H   0  0  0  0  0  0  0  0  0  0  0  0
   -1.3498   -2.2206    0.5184 C   0  0  0  0  0  0  0  0  0  0  0  0
   -0.4997   -2.9426    1.0194 O   0  0  0  0  0  0  0  0  0  0  0  0
   -1.1198   -0.9926    0.0674 N   0  0  0  0  0  0  0  0  0  0  0  0
   -1.8978   -0.4486   -0.2716 H   0  0  0  0  0  0  0  0  0  0  0  0
    0.1693   -0.2866    0.0854 C   0  0  1  0  0  0  0  0  0  0  0  0
    0.9043   -0.8713   -0.4705 H   0  0  0  0  0  0  0  0  0  0  0  0
    0.0106    1.0816   -0.6124 C   0  0  0  0  0  0  0  0  0  0  0  0
   -0.7357    1.6663   -0.0715 H   0  0  0  0  0  0  0  0  0  0  0  0
    0.9600    1.6184   -0.5546 H   0  0  0  0  0  0  0  0  0  0  0  0
   -0.4372    1.0007   -2.0802 C   0  0  0  0  0  0  0  0  0  0  0  0
   -0.1041   -0.0028   -2.7537 O   0  5  0  0  0  0  0  0  0  0  0  0
   -1.0993    1.9629   -2.5252 O   0  0  0  0  0  0  0  0  0  0  0  0
    0.6664   -0.1450    1.5428 C   0  0  0  0  0  0  0  0  0  0  0  0
    1.8485   -0.3724    1.8265 O   0  0  0  0  0  0  0  0  0  0  0  0
   -0.2161    0.2434    2.4686 N   0  0  0  0  0  0  0  0  0  0  0  0
   -1.1850    0.3219    2.1537 H   0  0  0  0  0  0  0  0  0  0  0  0
    0.0735    0.4128    3.8885 C   0  0  0  0  0  0  0  0  0  0  0  0
    1.0159    0.9483    4.0105 H   0  0  0  0  0  0  0  0  0  0  0  0
   -0.7315    0.9748    4.3613 H   0  0  0  0  0  0  0  0  0  0  0  0
    0.1564   -0.5677    4.3577 H   0  0  0  0  0  0  0  0  0  0  0  0
  5  6  2  0  0  0  0
  5  7  1  0  0  0  0
  2  3  1  0  0  0  0
  2  4  1  0  0  0  0
  2  5  1  0  0  0  0
  1  2  1  0  0  0  0
 17 18  2  0  0  0  0
 17 19  1  0  0  0  0
 14 15  1  0  0  0  0
 14 16  2  0  0  0  0
 11 12  1  0  0  0  0
 11 13  1  0  0  0  0
 11 14  1  0  0  0  0
  9 10  1  0  0  0  0
  9 11  1  0  0  0  0
  9 17  1  0  0  0  0
  7  8  1  0  0  0  0
  7  9  1  0  0  0  0
 21 22  1  0  0  0  0
 21 23  1  0  0  0  0
 21 24  1  0  0  0  0
 19 20  1  0  0  0  0
 19 21  1  0  0  0  0
M  CHG  1  15  -1
M  END
$$$$
default_name
  -OEChem-02102213163D

 24 23  0     1  0  0  0  0  0999 V2000
   -2.8347   -3.7166    0.8034 H   0  0  0  0  0  0  0  0  0  0  0  0
   -2.7728   -2.7096    0.3954 C   0  0  0  0  0  0  0  0  0  0  0  0
   -3.4267   -2.0426    0.9524 H   0  0  0  0  0  0  0  0  0  0  0  0
   -3.0538   -2.7186   -0.6556 H   0  0  0  0  0  0  0  0  0  0  0  0
   -1.3498   -2.2206    0.5184 C   0  0  0  0  0  0  0  0  0  0  0  0
   -0.4997   -2.9426    1.0194 O   0  0  0  0  0  0  0  0  0  0  0  0
   -1.1198   -0.9926    0.0674 N   0  0  0  0  0  0  0  0  0  0  0  0
   -1.8978   -0.4486   -0.2716 H   0  0  0  0  0  0  0  0  0  0  0  0
    0.1693   -0.2866    0.0854 C   0  0  1  0  0  0  0  0  0  0  0  0
    0.9043   -0.8713   -0.4705 H   0  0  0  0  0  0  0  0  0  0  0  0
    0.0106    1.0816   -0.6124 C   0  0  0  0  0  0  0  0  0  0  0  0
   -0.7357    1.6663   -0.0715 H   0  0  0  0  0  0  0  0  0  0  0  0
    0.9600    1.6184   -0.5546 H   0  0  0  0  0  0  0  0  0  0  0  0
   -0.4372    1.0007   -2.0802 C   0  0  0  0  0  0  0  0  0  0  0  0
   -0.3603   -0.1029   -2.6700 O   0  5  0  0  0  0  0  0  0  0  0  0
   -0.8385    2.0592   -2.6101 O   0  0  0  0  0  0  0  0  0  0  0  0
    0.6664   -0.1450    1.5428 C   0  0  0  0  0  0  0  0  0  0  0  0
    1.8485   -0.3724    1.8265 O   0  0  0  0  0  0  0  0  0  0  0  0
   -0.2161    0.2434    2.4686 N   0  0  0  0  0  0  0  0  0  0  0  0
   -1.1850    0.3219    2.1537 H   0  0  0  0  0  0  0  0  0  0  0  0
    0.0735    0.4128    3.8885 C   0  0  0  0  0  0  0  0  0  0  0  0
    1.0159    0.9483    4.0105 H   0  0  0  0  0  0  0  0  0  0  0  0
   -0.7315    0.9748    4.3613 H   0  0  0  0  0  0  0  0  0  0  0  0
    0.1564   -0.5677    4.3577 H   0  0  0  0  0  0  0  0  0  0  0  0
  5  6  2  0  0  0  0
  5  7  1  0  0  0  0
  2  3  1  0  0  0  0
  2  4  1  0  0  0  0
  2  5  1  0  0  0  0
  1  2  1  0  0  0  0
 17 18  2  0  0  0  0
 17 19  1  0  0  0  0
 14 15  1  0  0  0  0
 14 16  2  0  0  0  0
 11 12  1  0  0  0  0
 11 13  1  0  0  0  0
 11 14  1  0  0  0  0
  9 10  1  0  0  0  0
  9 11  1  0  0  0  0
  9 17  1  0  0  0  0
  7  8  1  0  0  0  0
  7  9  1  0  0  0  0
 21 22  1  0  0  0  0
 21 23  1  0  0  0  0
 21 24  1  0  0  0  0
 19 20  1  0  0  0  0
 19 21  1  0  0  0  0
M  CHG  1  15  -1
M  END
$$$$
default_name
  -OEChem-02102213163D

 24 23  0     1  0  0  0  0  0999 V2000
   -2.8347   -3.7166    0.8034 H   0  0  0  0  0  0  0  0  0  0  0  0
   -2.7728   -2.7096    0.3954 C   0  0  0  0  0  0  0  0  0  0  0  0
   -3.4267   -2.0426    0.9524 H   0  0  0  0  0  0  0  0  0  0  0  0
   -3.0538   -2.7186   -0.6556 H   0  0  0  0  0  0  0  0  0  0  0  0
   -1.3498   -2.2206    0.5184 C   0  0  0  0  0  0  0  0  0  0  0  0
   -0.4997   -2.9426    1.0194 O   0  0  0  0  0  0  0  0  0  0  0  0
   -1.1198   -0.9926    0.0674 N   0  0  0  0  0  0  0  0  0  0  0  0
   -1.8978   -0.4486   -0.2716 H   0  0  0  0  0  0  0  0  0  0  0  0
    0.1693   -0.2866    0.0854 C   0  0  1  0  0  0  0  0  0  0  0  0
    0.9043   -0.8713   -0.4705 H   0  0  0  0  0  0  0  0  0  0  0  0
    0.0106    1.0816   -0.6124 C   0  0  0  0  0  0  0  0  0  0  0  0
   -0.7357    1.6663   -0.0715 H   0  0  0  0  0  0  0  0  0  0  0  0
    0.9600    1.6184   -0.5546 H   0  0  0  0  0  0  0  0  0  0  0  0
   -0.4372    1.0007   -2.0802 C   0  0  0  0  0  0  0  0  0  0  0  0
   -0.6337   -0.1298   -2.5851 O   0  5  0  0  0  0  0  0  0  0  0  0
   -0.5615    2.0813   -2.6958 O   0  0  0  0  0  0  0  0  0  0  0  0
    0.6664   -0.1450    1.5428 C   0  0  0  0  0  0  0  0  0  0  0  0
    1.8485   -0.3724    1.8265 O   0  0  0  0  0  0  0  0  0  0  0  0
   -0.2161    0.2434    2.4686 N   0  0  0  0  0  0  0  0  0  0  0  0
   -1.1850    0.3219    2.1537 H   0  0  0  0  0  0  0  0  0  0  0  0
    0.0735    0.4128    3.8885 C   0  0  0  0  0  0  0  0  0  0  0  0
    1.0159    0.9483    4.0105 H   0  0  0  0  0  0  0  0  0  0  0  0
   -0.7315    0.9748    4.3613 H   0  0  0  0  0  0  0  0  0  0  0  0
    0.1564   -0.5677    4.3577 H   0  0  0  0  0  0  0  0  0  0  0  0
  5  6  2  0  0  0  0
  5  7  1  0  0  0  0
  2  3  1  0  0  0  0
  2  4  1  0  0  0  0
  2  5  1  0  0  0  0
  1  2  1  0  0  0  0
 17 18  2  0  0  0  0
 17 19  1  0  0  0  0
 14 15  1  0  0  0  0
 14 16  2  0  0  0  0
 11 12  1  0  0  0  0
 11 13  1  0  0  0  0
 11 14  1  0  0  0  0
  9 10  1  0  0  0  0
  9 11  1  0  0  0  0
  9 17  1  0  0  0  0
  7  8  1  0  0  0  0
  7  9  1  0  0  0  0
 21 22  1  0  0  0  0
 21 23  1  0  0  0  0
 21 24  1  0  0  0  0
 19 20  1  0  0  0  0
 19 21  1  0  0  0  0
M  CHG  1  15  -1
M  END
$$$$
default_name
  -OEChem-02102213163D

 24 23  0     1  0  0  0  0  0999 V2000
   -2.8347   -3.7166    0.8034 H   0  0  0  0  0  0  0  0  0  0  0  0
   -2.7728   -2.7096    0.3954 C   0  0  0  0  0  0  0  0  0  0  0  0
   -3.4267   -2.0426    0.9524 H   0  0  0  0  0  0  0  0  0  0  0  0
   -3.0538   -2.7186   -0.6556 H   0  0  0  0  0  0  0  0  0  0  0  0
   -1.3498   -2.2206    0.5184 C   0  0  0  0  0  0  0  0  0  0  0  0
   -0.4997   -2.9426    1.0194 O   0  0  0  0  0  0  0  0  0  0  0  0
   -1.1198   -0.9926    0.0674 N   0  0  0  0  0  0  0  0  0  0  0  0
   -1.8978   -0.4486   -0.2716 H   0  0  0  0  0  0  0  0  0  0  0  0
    0.1693   -0.2866    0.0854 C   0  0  1  0  0  0  0  0  0  0  0  0
    0.9043   -0.8713   -0.4705 H   0  0  0  0  0  0  0  0  0  0  0  0
    0.0106    1.0816   -0.6124 C   0  0  0  0  0  0  0  0  0  0  0  0
   -0.7357    1.6663   -0.0715 H   0  0  0  0  0  0  0  0  0  0  0  0
    0.9600    1.6184   -0.5546 H   0  0  0  0  0  0  0  0  0  0  0  0
   -0.4372    1.0007   -2.0802 C   0  0  0  0  0  0  0  0  0  0  0  0
   -0.9055   -0.0819   -2.5048 O   0  5  0  0  0  0  0  0  0  0  0  0
   -0.2874    2.0278   -2.7765 O   0  0  0  0  0  0  0  0  0  0  0  0
    0.6664   -0.1450    1.5428 C   0  0  0  0  0  0  0  0  0  0  0  0
    1.8485   -0.3724    1.8265 O   0  0  0  0  0  0  0  0  0  0  0  0
   -0.2161    0.2434    2.4686 N   0  0  0  0  0  0  0  0  0  0  0  0
   -1.1850    0.3219    2.1537 H   0  0  0  0  0  0  0  0  0  0  0  0
    0.0735    0.4128    3.8885 C   0  0  0  0  0  0  0  0  0  0  0  0
    1.0159    0.9483    4.0105 H   0  0  0  0  0  0  0  0  0  0  0  0
   -0.7315    0.9748    4.3613 H   0  0  0  0  0  0  0  0  0  0  0  0
    0.1564   -0.5677    4.3577 H   0  0  0  0  0  0  0  0  0  0  0  0
  5  6  2  0  0  0  0
  5  7  1  0  0  0  0
  2  3  1  0  0  0  0
  2  4  1  0  0  0  0
  2  5  1  0  0  0  0
  1  2  1  0  0  0  0
 17 18  2  0  0  0  0
 17 19  1  0  0  0  0
 14 15  1  0  0  0  0
 14 16  2  0  0  0  0
 11 12  1  0  0  0  0
 11 13  1  0  0  0  0
 11 14  1  0  0  0  0
  9 10  1  0  0  0  0
  9 11  1  0  0  0  0
  9 17  1  0  0  0  0
  7  8  1  0  0  0  0
  7  9  1  0  0  0  0
 21 22  1  0  0  0  0
 21 23  1  0  0  0  0
 21 24  1  0  0  0  0
 19 20  1  0  0  0  0
 19 21  1  0  0  0  0
M  CHG  1  15  -1
M  END
$$$$
default_name
  -OEChem-02102213163D

 24 23  0     1  0  0  0  0  0999 V2000
   -2.8347   -3.7166    0.8034 H   0  0  0  0  0  0  0  0  0  0  0  0
   -2.7728   -2.7096    0.3954 C   0  0  0  0  0  0  0  0  0  0  0  0
   -3.4267   -2.0426    0.9524 H   0  0  0  0  0  0  0  0  0  0  0  0
   -3.0538   -2.7186   -0.6556 H   0  0  0  0  0  0  0  0  0  0  0  0
   -1.3498   -2.2206    0.5184 C   0  0  0  0  0  0  0  0  0  0  0  0
   -0.4997   -2.9426    1.0194 O   0  0  0  0  0  0  0  0  0  0  0  0
   -1.1198   -0.9926    0.0674 N   0  0  0  0  0  0  0  0  0  0  0  0
   -1.8978   -0.4486   -0.2716 H   0  0  0  0  0  0  0  0  0  0  0  0
    0.1693   -0.2866    0.0854 C   0  0  1  0  0  0  0  0  0  0  0  0
    0.9043   -0.8713   -0.4705 H   0  0  0  0  0  0  0  0  0  0  0  0
    0.0106    1.0816   -0.6124 C   0  0  0  0  0  0  0  0  0  0  0  0
   -0.7357    1.6663   -0.0715 H   0  0  0  0  0  0  0  0  0  0  0  0
    0.9600    1.6184   -0.5546 H   0  0  0  0  0  0  0  0  0  0  0  0
   -0.4372    1.0007   -2.0802 C   0  0  0  0  0  0  0  0  0  0  0  0
   -1.1574    0.0377   -2.4346 O   0  5  0  0  0  0  0  0  0  0  0  0
   -0.0347    1.9023   -2.8466 O   0  0  0  0  0  0  0  0  0  0  0  0
    0.6664   -0.1450    1.5428 C   0  0  0  0  0  0  0  0  0  0  0  0
    1.8485   -0.3724    1.8265 O   0  0  0  0  0  0  0  0  0  0  0  0
   -0.2161    0.2434    2.4686 N   0  0  0  0  0  0  0  0  0  0  0  0
   -1.1850    0.3219    2.1537 H   0  0  0  0  0  0  0  0  0  0  0  0
    0.0735    0.4128    3.8885 C   0  0  0  0  0  0  0  0  0  0  0  0
    1.0159    0.9483    4.0105 H   0  0  0  0  0  0  0  0  0  0  0  0
   -0.7315    0.9748    4.3613 H   0  0  0  0  0  0  0  0  0  0  0  0
    0.1564   -0.5677    4.3577 H   0  0  0  0  0  0  0  0  0  0  0  0
  5  6  2  0  0  0  0
  5  7  1  0  0  0  0
  2  3  1  0  0  0  0
  2  4  1  0  0  0  0
  2  5  1  0  0  0  0
  1  2  1  0  0  0  0
 17 18  2  0  0  0  0
 17 19  1  0  0  0  0
 14 15  1  0  0  0  0
 14 16  2  0  0  0  0
 11 12  1  0  0  0  0
 11 13  1  0  0  0  0
 11 14  1  0  0  0  0
  9 10  1  0  0  0  0
  9 11  1  0  0  0  0
  9 17  1  0  0  0  0
  7  8  1  0  0  0  0
  7  9  1  0  0  0  0
 21 22  1  0  0  0  0
 21 23  1  0  0  0  0
 21 24  1  0  0  0  0
 19 20  1  0  0  0  0
 19 21  1  0  0  0  0
M  CHG  1  15  -1
M  END
$$$$
default_name
  -OEChem-02102213163D

 24 23  0     1  0  0  0  0  0999 V2000
   -2.8347   -3.7166    0.8034 H   0  0  0  0  0  0  0  0  0  0  0  0
   -2.7728   -2.7096    0.3954 C   0  0  0  0  0  0  0  0  0  0  0  0
   -3.4267   -2.0426    0.9524 H   0  0  0  0  0  0  0  0  0  0  0  0
   -3.0538   -2.7186   -0.6556 H   0  0  0  0  0  0  0  0  0  0  0  0
   -1.3498   -2.2206    0.5184 C   0  0  0  0  0  0  0  0  0  0  0  0
   -0.4997   -2.9426    1.0194 O   0  0  0  0  0  0  0  0  0  0  0  0
   -1.1198   -0.9926    0.0674 N   0  0  0  0  0  0  0  0  0  0  0  0
   -1.8978   -0.4486   -0.2716 H   0  0  0  0  0  0  0  0  0  0  0  0
    0.1693   -0.2866    0.0854 C   0  0  1  0  0  0  0  0  0  0  0  0
    0.9043   -0.8713   -0.4705 H   0  0  0  0  0  0  0  0  0  0  0  0
    0.0106    1.0816   -0.6124 C   0  0  0  0  0  0  0  0  0  0  0  0
   -0.7357    1.6663   -0.0715 H   0  0  0  0  0  0  0  0  0  0  0  0
    0.9600    1.6184   -0.5546 H   0  0  0  0  0  0  0  0  0  0  0  0
   -0.4372    1.0007   -2.0802 C   0  0  0  0  0  0  0  0  0  0  0  0
   -1.3720    0.2208   -2.3792 O   0  5  0  0  0  0  0  0  0  0  0  0
    0.1792    1.7132   -2.9015 O   0  0  0  0  0  0  0  0  0  0  0  0
    0.6664   -0.1450    1.5428 C   0  0  0  0  0  0  0  0  0  0  0  0
    1.8485   -0.3724    1.8265 O   0  0  0  0  0  0  0  0  0  0  0  0
   -0.2161    0.2434    2.4686 N   0  0  0  0  0  0  0  0  0  0  0  0
   -1.1850    0.3219    2.1537 H   0  0  0  0  0  0  0  0  0  0  0  0
    0.0735    0.4128    3.8885 C   0  0  0  0  0  0  0  0  0  0  0  0
    1.0159    0.9483    4.0105 H   0  0  0  0  0  0  0  0  0  0  0  0
   -0.7315    0.9748    4.3613 H   0  0  0  0  0  0  0  0  0  0  0  0
    0.1564   -0.5677    4.3577 H   0  0  0  0  0  0  0  0  0  0  0  0
  5  6  2  0  0  0  0
  5  7  1  0  0  0  0
  2  3  1  0  0  0  0
  2  4  1  0  0  0  0
  2  5  1  0  0  0  0
  1  2  1  0  0  0  0
 17 18  2  0  0  0  0
 17 19  1  0  0  0  0
 14 15  1  0  0  0  0
 14 16  2  0  0  0  0
 11 12  1  0  0  0  0
 11 13  1  0  0  0  0
 11 14  1  0  0  0  0
  9 10  1  0  0  0  0
  9 11  1  0  0  0  0
  9 17  1  0  0  0  0
  7  8  1  0  0  0  0
  7  9  1  0  0  0  0
 21 22  1  0  0  0  0
 21 23  1  0  0  0  0
 21 24  1  0  0  0  0
 19 20  1  0  0  0  0
 19 21  1  0  0  0  0
M  CHG  1  15  -1
M  END
$$$$
default_name
  -OEChem-02102213163D

 24 23  0     1  0  0  0  0  0999 V2000
   -2.8347   -3.7166    0.8034 H   0  0  0  0  0  0  0  0  0  0  0  0
   -2.7728   -2.7096    0.3954 C   0  0  0  0  0  0  0  0  0  0  0  0
   -3.4267   -2.0426    0.9524 H   0  0  0  0  0  0  0  0  0  0  0  0
   -3.0538   -2.7186   -0.6556 H   0  0  0  0  0  0  0  0  0  0  0  0
   -1.3498   -2.2206    0.5184 C   0  0  0  0  0  0  0  0  0  0  0  0
   -0.4997   -2.9426    1.0194 O   0  0  0  0  0  0  0  0  0  0  0  0
   -1.1198   -0.9926    0.0674 N   0  0  0  0  0  0  0  0  0  0  0  0
   -1.8978   -0.4486   -0.2716 H   0  0  0  0  0  0  0  0  0  0  0  0
    0.1693   -0.2866    0.0854 C   0  0  1  0  0  0  0  0  0  0  0  0
    0.9043   -0.8713   -0.4705 H   0  0  0  0  0  0  0  0  0  0  0  0
    0.0106    1.0816   -0.6124 C   0  0  0  0  0  0  0  0  0  0  0  0
   -0.7357    1.6663   -0.0715 H   0  0  0  0  0  0  0  0  0  0  0  0
    0.9600    1.6184   -0.5546 H   0  0  0  0  0  0  0  0  0  0  0  0
   -0.4372    1.0007   -2.0802 C   0  0  0  0  0  0  0  0  0  0  0  0
   -1.5349    0.4548   -2.3425 O   0  5  0  0  0  0  0  0  0  0  0  0
    0.3399    1.4736   -2.9373 O   0  0  0  0  0  0  0  0  0  0  0  0
    0.6664   -0.1450    1.5428 C   0  0  0  0  0  0  0  0  0  0  0  0
    1.8485   -0.3724    1.8265 O   0  0  0  0  0  0  0  0  0  0  0  0
   -0.2161    0.2434    2.4686 N   0  0  0  0  0  0  0  0  0  0  0  0
   -1.1850    0.3219    2.1537 H   0  0  0  0  0  0  0  0  0  0  0  0
    0.0735    0.4128    3.8885 C   0  0  0  0  0  0  0  0  0  0  0  0
    1.0159    0.9483    4.0105 H   0  0  0  0  0  0  0  0  0  0  0  0
   -0.7315    0.9748    4.3613 H   0  0  0  0  0  0  0  0  0  0  0  0
    0.1564   -0.5677    4.3577 H   0  0  0  0  0  0  0  0  0  0  0  0
  5  6  2  0  0  0  0
  5  7  1  0  0  0  0
  2  3  1  0  0  0  0
  2  4  1  0  0  0  0
  2  5  1  0  0  0  0
  1  2  1  0  0  0  0
 17 18  2  0  0  0  0
 17 19  1  0  0  0  0
 14 15  1  0  0  0  0
 14 16  2  0  0  0  0
 11 12  1  0  0  0  0
 11 13  1  0  0  0  0
 11 14  1  0  0  0  0
  9 10  1  0  0  0  0
  9 11  1  0  0  0  0
  9 17  1  0  0  0  0
  7  8  1  0  0  0  0
  7  9  1  0  0  0  0
 21 22  1  0  0  0  0
 21 23  1  0  0  0  0
 21 24  1  0  0  0  0
 19 20  1  0  0  0  0
 19 21  1  0  0  0  0
M  CHG  1  15  -1
M  END
$$$$
default_name
  -OEChem-02102213163D

 24 23  0     1  0  0  0  0  0999 V2000
   -2.8347   -3.7166    0.8034 H   0  0  0  0  0  0  0  0  0  0  0  0
   -2.7728   -2.7096    0.3954 C   0  0  0  0  0  0  0  0  0  0  0  0
   -3.4267   -2.0426    0.9524 H   0  0  0  0  0  0  0  0  0  0  0  0
   -3.0538   -2.7186   -0.6556 H   0  0  0  0  0  0  0  0  0  0  0  0
   -1.3498   -2.2206    0.5184 C   0  0  0  0  0  0  0  0  0  0  0  0
   -0.4997   -2.9426    1.0194 O   0  0  0  0  0  0  0  0  0  0  0  0
   -1.1198   -0.9926    0.0674 N   0  0  0  0  0  0  0  0  0  0  0  0
   -1.8978   -0.4486   -0.2716 H   0  0  0  0  0  0  0  0  0  0  0  0
    0.1693   -0.2866    0.0854 C   0  0  1  0  0  0  0  0  0  0  0  0
    0.9043   -0.8713   -0.4705 H   0  0  0  0  0  0  0  0  0  0  0  0
    0.0106    1.0816   -0.6124 C   0  0  0  0  0  0  0  0  0  0  0  0
   -0.7357    1.6663   -0.0715 H   0  0  0  0  0  0  0  0  0  0  0  0
    0.9600    1.6184   -0.5546 H   0  0  0  0  0  0  0  0  0  0  0  0
   -0.4372    1.0007   -2.0802 C   0  0  0  0  0  0  0  0  0  0  0  0
   -1.6348    0.7239   -2.3268 O   0  5  0  0  0  0  0  0  0  0  0  0
    0.4364    1.1997   -2.9516 O   0  0  0  0  0  0  0  0  0  0  0  0
    0.6664   -0.1450    1.5428 C   0  0  0  0  0  0  0  0  0  0  0  0
    1.8485   -0.3724    1.8265 O   0  0  0  0  0  0  0  0  0  0  0  0
   -0.2161    0.2434    2.4686 N   0  0  0  0  0  0  0  0  0  0  0  0
   -1.1850    0.3219    2.1537 H   0  0  0  0  0  0  0  0  0  0  0  0
    0.0735    0.4128    3.8885 C   0  0  0  0  0  0  0  0  0  0  0  0
    1.0159    0.9483    4.0105 H   0  0  0  0  0  0  0  0  0  0  0  0
   -0.7315    0.9748    4.3613 H   0  0  0  0  0  0  0  0  0  0  0  0
    0.1564   -0.5677    4.3577 H   0  0  0  0  0  0  0  0  0  0  0  0
  5  6  2  0  0  0  0
  5  7  1  0  0  0  0
  2  3  1  0  0  0  0
  2  4  1  0  0  0  0
  2  5  1  0  0  0  0
  1  2  1  0  0  0  0
 17 18  2  0  0  0  0
 17 19  1  0  0  0  0
 14 15  1  0  0  0  0
 14 16  2  0  0  0  0
 11 12  1  0  0  0  0
 11 13  1  0  0  0  0
 11 14  1  0  0  0  0
  9 10  1  0  0  0  0
  9 11  1  0  0  0  0
  9 17  1  0  0  0  0
  7  8  1  0  0  0  0
  7  9  1  0  0  0  0
 21 22  1  0  0  0  0
 21 23  1  0  0  0  0
 21 24  1  0  0  0  0
 19 20  1  0  0  0  0
 19 21  1  0  0  0  0
M  CHG  1  15  -1
M  END
$$$$
default_name
  -OEChem-02102213163D

 24 23  0     1  0  0  0  0  0999 V2000
   -2.8347   -3.7166    0.8034 H   0  0  0  0  0  0  0  0  0  0  0  0
   -2.7728   -2.7096    0.3954 C   0  0  0  0  0  0  0  0  0  0  0  0
   -3.4267   -2.0426    0.9524 H   0  0  0  0  0  0  0  0  0  0  0  0
   -3.0538   -2.7186   -0.6556 H   0  0  0  0  0  0  0  0  0  0  0  0
   -1.3498   -2.2206    0.5184 C   0  0  0  0  0  0  0  0  0  0  0  0
   -0.4997   -2.9426    1.0194 O   0  0  0  0  0  0  0  0  0  0  0  0
   -1.1198   -0.9926    0.0674 N   0  0  0  0  0  0  0  0  0  0  0  0
   -1.8978   -0.4486   -0.2716 H   0  0  0  0  0  0  0  0  0  0  0  0
    0.1693   -0.2866    0.0854 C   0  0  1  0  0  0  0  0  0  0  0  0
    0.9043   -0.8713   -0.4705 H   0  0  0  0  0  0  0  0  0  0  0  0
    0.0106    1.0816   -0.6124 C   0  0  0  0  0  0  0  0  0  0  0  0
   -0.7357    1.6663   -0.0715 H   0  0  0  0  0  0  0  0  0  0  0  0
    0.9600    1.6184   -0.5546 H   0  0  0  0  0  0  0  0  0  0  0  0
   -0.4372    1.0007   -2.0802 C   0  0  0  0  0  0  0  0  0  0  0  0
   -1.6650    1.0097   -2.3334 O   0  5  0  0  0  0  0  0  0  0  0  0
    0.4621    0.9103   -2.9435 O   0  0  0  0  0  0  0  0  0  0  0  0
    0.6664   -0.1450    1.5428 C   0  0  0  0  0  0  0  0  0  0  0  0
    1.8485   -0.3724    1.8265 O   0  0  0  0  0  0  0  0  0  0  0  0
   -0.2161    0.2434    2.4686 N   0  0  0  0  0  0  0  0  0  0  0  0
   -1.1850    0.3219    2.1537 H   0  0  0  0  0  0  0  0  0  0  0  0
    0.0735    0.4128    3.8885 C   0  0  0  0  0  0  0  0  0  0  0  0
    1.0159    0.9483    4.0105 H   0  0  0  0  0  0  0  0  0  0  0  0
   -0.7315    0.9748    4.3613 H   0  0  0  0  0  0  0  0  0  0  0  0
    0.1564   -0.5677    4.3577 H   0  0  0  0  0  0  0  0  0  0  0  0
  5  6  2  0  0  0  0
  5  7  1  0  0  0  0
  2  3  1  0  0  0  0
  2  4  1  0  0  0  0
  2  5  1  0  0  0  0
  1  2  1  0  0  0  0
 17 18  2  0  0  0  0
 17 19  1  0  0  0  0
 14 15  1  0  0  0  0
 14 16  2  0  0  0  0
 11 12  1  0  0  0  0
 11 13  1  0  0  0  0
 11 14  1  0  0  0  0
  9 10  1  0  0  0  0
  9 11  1  0  0  0  0
  9 17  1  0  0  0  0
  7  8  1  0  0  0  0
  7  9  1  0  0  0  0
 21 22  1  0  0  0  0
 21 23  1  0  0  0  0
 21 24  1  0  0  0  0
 19 20  1  0  0  0  0
 19 21  1  0  0  0  0
M  CHG  1  15  -1
M  END
$$$$
default_name
  -OEChem-02102213163D

 24 23  0     1  0  0  0  0  0999 V2000
   -2.8347   -3.7166    0.8034 H   0  0  0  0  0  0  0  0  0  0  0  0
   -2.7728   -2.7096    0.3954 C   0  0  0  0  0  0  0  0  0  0  0  0
   -3.4267   -2.0426    0.9524 H   0  0  0  0  0  0  0  0  0  0  0  0
   -3.0538   -2.7186   -0.6556 H   0  0  0  0  0  0  0  0  0  0  0  0
   -1.3498   -2.2206    0.5184 C   0  0  0  0  0  0  0  0  0  0  0  0
   -0.4997   -2.9426    1.0194 O   0  0  0  0  0  0  0  0  0  0  0  0
   -1.1198   -0.9926    0.0674 N   0  0  0  0  0  0  0  0  0  0  0  0
   -1.8978   -0.4486   -0.2716 H   0  0  0  0  0  0  0  0  0  0  0  0
    0.1693   -0.2866    0.0854 C   0  0  1  0  0  0  0  0  0  0  0  0
    0.9043   -0.8713   -0.4705 H   0  0  0  0  0  0  0  0  0  0  0  0
    0.0106    1.0816   -0.6124 C   0  0  0  0  0  0  0  0  0  0  0  0
   -0.7357    1.6663   -0.0715 H   0  0  0  0  0  0  0  0  0  0  0  0
    0.9600    1.6184   -0.5546 H   0  0  0  0  0  0  0  0  0  0  0  0
   -0.4372    1.0007   -2.0802 C   0  0  0  0  0  0  0  0  0  0  0  0
   -1.6234    1.2928   -2.3616 O   0  5  0  0  0  0  0  0  0  0  0  0
    0.4152    0.6249   -2.9135 O   0  0  0  0  0  0  0  0  0  0  0  0
    0.6664   -0.1450    1.5428 C   0  0  0  0  0  0  0  0  0  0  0  0
    1.8485   -0.3724    1.8265 O   0  0  0  0  0  0  0  0  0  0  0  0
   -0.2161    0.2434    2.4686 N   0  0  0  0  0  0  0  0  0  0  0  0
   -1.1850    0.3219    2.1537 H   0  0  0  0  0  0  0  0  0  0  0  0
    0.0735    0.4128    3.8885 C   0  0  0  0  0  0  0  0  0  0  0  0
    1.0159    0.9483    4.0105 H   0  0  0  0  0  0  0  0  0  0  0  0
   -0.7315    0.9748    4.3613 H   0  0  0  0  0  0  0  0  0  0  0  0
    0.1564   -0.5677    4.3577 H   0  0  0  0  0  0  0  0  0  0  0  0
  5  6  2  0  0  0  0
  5  7  1  0  0  0  0
  2  3  1  0  0  0  0
  2  4  1  0  0  0  0
  2  5  1  0  0  0  0
  1  2  1  0  0  0  0
 17 18  2  0  0  0  0
 17 19  1  0  0  0  0
 14 15  1  0  0  0  0
 14 16  2  0  0  0  0
 11 12  1  0  0  0  0
 11 13  1  0  0  0  0
 11 14  1  0  0  0  0
  9 10  1  0  0  0  0
  9 11  1  0  0  0  0
  9 17  1  0  0  0  0
  7  8  1  0  0  0  0
  7  9  1  0  0  0  0
 21 22  1  0  0  0  0
 21 23  1  0  0  0  0
 21 24  1  0  0  0  0
 19 20  1  0  0  0  0
 19 21  1  0  0  0  0
M  CHG  1  15  -1
M  END
$$$$
default_name
  -OEChem-02102213163D

 24 23  0     1  0  0  0  0  0999 V2000
   -2.8347   -3.7166    0.8034 H   0  0  0  0  0  0  0  0  0  0  0  0
   -2.7728   -2.7096    0.3954 C   0  0  0  0  0  0  0  0  0  0  0  0
   -3.4267   -2.0426    0.9524 H   0  0  0  0  0  0  0  0  0  0  0  0
   -3.0538   -2.7186   -0.6556 H   0  0  0  0  0  0  0  0  0  0  0  0
   -1.3498   -2.2206    0.5184 C   0  0  0  0  0  0  0  0  0  0  0  0
   -0.4997   -2.9426    1.0194 O   0  0  0  0  0  0  0  0  0  0  0  0
   -1.1198   -0.9926    0.0674 N   0  0  0  0  0  0  0  0  0  0  0  0
   -1.8978   -0.4486   -0.2716 H   0  0  0  0  0  0  0  0  0  0  0  0
    0.1693   -0.2866    0.0854 C   0  0  1  0  0  0  0  0  0  0  0  0
    0.9043   -0.8713   -0.4705 H   0  0  0  0  0  0  0  0  0  0  0  0
    0.0106    1.0816   -0.6124 C   0  0  0  0  0  0  0  0  0  0  0  0
   -0.7357    1.6663   -0.0715 H   0  0  0  0  0  0  0  0  0  0  0  0
    0.9600    1.6184   -0.5546 H   0  0  0  0  0  0  0  0  0  0  0  0
   -0.4372    1.0007   -2.0802 C   0  0  0  0  0  0  0  0  0  0  0  0
   -1.5129    1.5538   -2.4097 O   0  5  0  0  0  0  0  0  0  0  0  0
    0.2990    0.3631   -2.8636 O   0  0  0  0  0  0  0  0  0  0  0  0
    0.6664   -0.1450    1.5428 C   0  0  0  0  0  0  0  0  0  0  0  0
    1.8485   -0.3724    1.8265 O   0  0  0  0  0  0  0  0  0  0  0  0
   -0.2161    0.2434    2.4686 N   0  0  0  0  0  0  0  0  0  0  0  0
   -1.1850    0.3219    2.1537 H   0  0  0  0  0  0  0  0  0  0  0  0
    0.0735    0.4128    3.8885 C   0  0  0  0  0  0  0  0  0  0  0  0
    1.0159    0.9483    4.0105 H   0  0  0  0  0  0  0  0  0  0  0  0
   -0.7315    0.9748    4.3613 H   0  0  0  0  0  0  0  0  0  0  0  0
    0.1564   -0.5677    4.3577 H   0  0  0  0  0  0  0  0  0  0  0  0
  5  6  2  0  0  0  0
  5  7  1  0  0  0  0
  2  3  1  0  0  0  0
  2  4  1  0  0  0  0
  2  5  1  0  0  0  0
  1  2  1  0  0  0  0
 17 18  2  0  0  0  0
 17 19  1  0  0  0  0
 14 15  1  0  0  0  0
 14 16  2  0  0  0  0
 11 12  1  0  0  0  0
 11 13  1  0  0  0  0
 11 14  1  0  0  0  0
  9 10  1  0  0  0  0
  9 11  1  0  0  0  0
  9 17  1  0  0  0  0
  7  8  1  0  0  0  0
  7  9  1  0  0  0  0
 21 22  1  0  0  0  0
 21 23  1  0  0  0  0
 21 24  1  0  0  0  0
 19 20  1  0  0  0  0
 19 21  1  0  0  0  0
M  CHG  1  15  -1
M  END
$$$$
default_name
  -OEChem-02102213163D

 24 23  0     1  0  0  0  0  0999 V2000
   -2.8347   -3.7166    0.8034 H   0  0  0  0  0  0  0  0  0  0  0  0
   -2.7728   -2.7096    0.3954 C   0  0  0  0  0  0  0  0  0  0  0  0
   -3.4267   -2.0426    0.9524 H   0  0  0  0  0  0  0  0  0  0  0  0
   -3.0538   -2.7186   -0.6556 H   0  0  0  0  0  0  0  0  0  0  0  0
   -1.3498   -2.2206    0.5184 C   0  0  0  0  0  0  0  0  0  0  0  0
   -0.4997   -2.9426    1.0194 O   0  0  0  0  0  0  0  0  0  0  0  0
   -1.1198   -0.9926    0.0674 N   0  0  0  0  0  0  0  0  0  0  0  0
   -1.8978   -0.4486   -0.2716 H   0  0  0  0  0  0  0  0  0  0  0  0
    0.1693   -0.2866    0.0854 C   0  0  1  0  0  0  0  0  0  0  0  0
    0.9043   -0.8713   -0.4705 H   0  0  0  0  0  0  0  0  0  0  0  0
    0.0106    1.0816   -0.6124 C   0  0  0  0  0  0  0  0  0  0  0  0
   -0.7357    1.6663   -0.0715 H   0  0  0  0  0  0  0  0  0  0  0  0
    0.9600    1.6184   -0.5546 H   0  0  0  0  0  0  0  0  0  0  0  0
   -0.4372    1.0007   -2.0802 C   0  0  0  0  0  0  0  0  0  0  0  0
   -1.3410    1.7750   -2.4744 O   0  5  0  0  0  0  0  0  0  0  0  0
    0.1213    0.1428   -2.7972 O   0  0  0  0  0  0  0  0  0  0  0  0
    0.6664   -0.1450    1.5428 C   0  0  0  0  0  0  0  0  0  0  0  0
    1.8485   -0.3724    1.8265 O   0  0  0  0  0  0  0  0  0  0  0  0
   -0.2161    0.2434    2.4686 N   0  0  0  0  0  0  0  0  0  0  0  0
   -1.1850    0.3219    2.1537 H   0  0  0  0  0  0  0  0  0  0  0  0
    0.0735    0.4128    3.8885 C   0  0  0  0  0  0  0  0  0  0  0  0
    1.0159    0.9483    4.0105 H   0  0  0  0  0  0  0  0  0  0  0  0
   -0.7315    0.9748    4.3613 H   0  0  0  0  0  0  0  0  0  0  0  0
    0.1564   -0.5677    4.3577 H   0  0  0  0  0  0  0  0  0  0  0  0
  5  6  2  0  0  0  0
  5  7  1  0  0  0  0
  2  3  1  0  0  0  0
  2  4  1  0  0  0  0
  2  5  1  0  0  0  0
  1  2  1  0  0  0  0
 17 18  2  0  0  0  0
 17 19  1  0  0  0  0
 14 15  1  0  0  0  0
 14 16  2  0  0  0  0
 11 12  1  0  0  0  0
 11 13  1  0  0  0  0
 11 14  1  0  0  0  0
  9 10  1  0  0  0  0
  9 11  1  0  0  0  0
  9 17  1  0  0  0  0
  7  8  1  0  0  0  0
  7  9  1  0  0  0  0
 21 22  1  0  0  0  0
 21 23  1  0  0  0  0
 21 24  1  0  0  0  0
 19 20  1  0  0  0  0
 19 21  1  0  0  0  0
M  CHG  1  15  -1
M  END
$$$$
default_name
  -OEChem-02102213163D

 24 23  0     1  0  0  0  0  0999 V2000
   -2.8347   -3.7166    0.8034 H   0  0  0  0  0  0  0  0  0  0  0  0
   -2.7728   -2.7096    0.3954 C   0  0  0  0  0  0  0  0  0  0  0  0
   -3.4267   -2.0426    0.9524 H   0  0  0  0  0  0  0  0  0  0  0  0
   -3.0538   -2.7186   -0.6556 H   0  0  0  0  0  0  0  0  0  0  0  0
   -1.3498   -2.2206    0.5184 C   0  0  0  0  0  0  0  0  0  0  0  0
   -0.4997   -2.9426    1.0194 O   0  0  0  0  0  0  0  0  0  0  0  0
   -1.1198   -0.9926    0.0674 N   0  0  0  0  0  0  0  0  0  0  0  0
   -1.8978   -0.4486   -0.2716 H   0  0  0  0  0  0  0  0  0  0  0  0
    0.1693   -0.2866    0.0854 C   0  0  1  0  0  0  0  0  0  0  0  0
    0.9043   -0.8713   -0.4705 H   0  0  0  0  0  0  0  0  0  0  0  0
    0.0106    1.0816   -0.6124 C   0  0  0  0  0  0  0  0  0  0  0  0
   -0.7357    1.6663   -0.0715 H   0  0  0  0  0  0  0  0  0  0  0  0
    0.9600    1.6184   -0.5546 H   0  0  0  0  0  0  0  0  0  0  0  0
   -0.4372    1.0007   -2.0802 C   0  0  0  0  0  0  0  0  0  0  0  0
   -1.1194    1.9412   -2.5511 O   0  5  0  0  0  0  0  0  0  0  0  0
   -0.1057   -0.0212   -2.7190 O   0  0  0  0  0  0  0  0  0  0  0  0
    0.6664   -0.1450    1.5428 C   0  0  0  0  0  0  0  0  0  0  0  0
    1.8485   -0.3724    1.8265 O   0  0  0  0  0  0  0  0  0  0  0  0
   -0.2161    0.2434    2.4686 N   0  0  0  0  0  0  0  0  0  0  0  0
   -1.1850    0.3219    2.1537 H   0  0  0  0  0  0  0  0  0  0  0  0
    0.0735    0.4128    3.8885 C   0  0  0  0  0  0  0  0  0  0  0  0
    1.0159    0.9483    4.0105 H   0  0  0  0  0  0  0  0  0  0  0  0
   -0.7315    0.9748    4.3613 H   0  0  0  0  0  0  0  0  0  0  0  0
    0.1564   -0.5677    4.3577 H   0  0  0  0  0  0  0  0  0  0  0  0
  5  6  2  0  0  0  0
  5  7  1  0  0  0  0
  2  3  1  0  0  0  0
  2  4  1  0  0  0  0
  2  5  1  0  0  0  0
  1  2  1  0  0  0  0
 17 18  2  0  0  0  0
 17 19  1  0  0  0  0
 14 15  1  0  0  0  0
 14 16  2  0  0  0  0
 11 12  1  0  0  0  0
 11 13  1  0  0  0  0
 11 14  1  0  0  0  0
  9 10  1  0  0  0  0
  9 11  1  0  0  0  0
  9 17  1  0  0  0  0
  7  8  1  0  0  0  0
  7  9  1  0  0  0  0
 21 22  1  0  0  0  0
 21 23  1  0  0  0  0
 21 24  1  0  0  0  0
 19 20  1  0  0  0  0
 19 21  1  0  0  0  0
M  CHG  1  15  -1
M  END
$$$$
default_name
  -OEChem-02102213163D

 24 23  0     1  0  0  0  0  0999 V2000
   -2.8347   -3.7166    0.8034 H   0  0  0  0  0  0  0  0  0  0  0  0
   -2.7728   -2.7096    0.3954 C   0  0  0  0  0  0  0  0  0  0  0  0
   -3.4267   -2.0426    0.9524 H   0  0  0  0  0  0  0  0  0  0  0  0
   -3.0538   -2.7186   -0.6556 H   0  0  0  0  0  0  0  0  0  0  0  0
   -1.3498   -2.2206    0.5184 C   0  0  0  0  0  0  0  0  0  0  0  0
   -0.4997   -2.9426    1.0194 O   0  0  0  0  0  0  0  0  0  0  0  0
   -1.1198   -0.9926    0.0674 N   0  0  0  0  0  0  0  0  0  0  0  0
   -1.8978   -0.4486   -0.2716 H   0  0  0  0  0  0  0  0  0  0  0  0
    0.1693   -0.2866    0.0854 C   0  0  1  0  0  0  0  0  0  0  0  0
    0.9043   -0.8713   -0.4705 H   0  0  0  0  0  0  0  0  0  0  0  0
    0.0106    1.0816   -0.6124 C   0  0  0  0  0  0  0  0  0  0  0  0
   -0.7357    1.6663   -0.0715 H   0  0  0  0  0  0  0  0  0  0  0  0
    0.9600    1.6184   -0.5546 H   0  0  0  0  0  0  0  0  0  0  0  0
   -0.4372    1.0007   -2.0802 C   0  0  0  0  0  0  0  0  0  0  0  0
   -0.8631    2.0412   -2.6348 O   0  5  0  0  0  0  0  0  0  0  0  0
   -0.3665   -0.1175   -2.6341 O   0  0  0  0  0  0  0  0  0  0  0  0
    0.6664   -0.1450    1.5428 C   0  0  0  0  0  0  0  0  0  0  0  0
    1.8485   -0.3724    1.8265 O   0  0  0  0  0  0  0  0  0  0  0  0
   -0.2161    0.2434    2.4686 N   0  0  0  0  0  0  0  0  0  0  0  0
   -1.1850    0.3219    2.1537 H   0  0  0  0  0  0  0  0  0  0  0  0
    0.0735    0.4128    3.8885 C   0  0  0  0  0  0  0  0  0  0  0  0
    1.0159    0.9483    4.0105 H   0  0  0  0  0  0  0  0  0  0  0  0
   -0.7315    0.9748    4.3613 H   0  0  0  0  0  0  0  0  0  0  0  0
    0.1564   -0.5677    4.3577 H   0  0  0  0  0  0  0  0  0  0  0  0
  5  6  2  0  0  0  0
  5  7  1  0  0  0  0
  2  3  1  0  0  0  0
  2  4  1  0  0  0  0
  2  5  1  0  0  0  0
  1  2  1  0  0  0  0
 17 18  2  0  0  0  0
 17 19  1  0  0  0  0
 14 15  1  0  0  0  0
 14 16  2  0  0  0  0
 11 12  1  0  0  0  0
 11 13  1  0  0  0  0
 11 14  1  0  0  0  0
  9 10  1  0  0  0  0
  9 11  1  0  0  0  0
  9 17  1  0  0  0  0
  7  8  1  0  0  0  0
  7  9  1  0  0  0  0
 21 22  1  0  0  0  0
 21 23  1  0  0  0  0
 21 24  1  0  0  0  0
 19 20  1  0  0  0  0
 19 21  1  0  0  0  0
M  CHG  1  15  -1
M  END
$$$$
default_name
  -OEChem-02102213163D

 24 23  0     1  0  0  0  0  0999 V2000
   -2.8347   -3.7166    0.8034 H   0  0  0  0  0  0  0  0  0  0  0  0
   -2.7728   -2.7096    0.3954 C   0  0  0  0  0  0  0  0  0  0  0  0
   -3.4267   -2.0426    0.9524 H   0  0  0  0  0  0  0  0  0  0  0  0
   -3.0538   -2.7186   -0.6556 H   0  0  0  0  0  0  0  0  0  0  0  0
   -1.3498   -2.2206    0.5184 C   0  0  0  0  0  0  0  0  0  0  0  0
   -0.4997   -2.9426    1.0194 O   0  0  0  0  0  0  0  0  0  0  0  0
   -1.1198   -0.9926    0.0674 N   0  0  0  0  0  0  0  0  0  0  0  0
   -1.8978   -0.4486   -0.2716 H   0  0  0  0  0  0  0  0  0  0  0  0
    0.1693   -0.2866    0.0854 C   0  0  1  0  0  0  0  0  0  0  0  0
    0.9043   -0.8713   -0.4705 H   0  0  0  0  0  0  0  0  0  0  0  0
    0.0106    1.0816   -0.6124 C   0  0  0  0  0  0  0  0  0  0  0  0
   -0.5190    1.7586    0.0602 H   0  0  0  0  0  0  0  0  0  0  0  0
    1.0025    1.5012   -0.7940 H   0  0  0  0  0  0  0  0  0  0  0  0
   -0.7703    1.0361   -1.9352 C   0  0  0  0  0  0  0  0  0  0  0  0
   -0.9438    2.1057   -2.5655 O   0  5  0  0  0  0  0  0  0  0  0  0
   -1.2075   -0.0773   -2.2978 O   0  0  0  0  0  0  0  0  0  0  0  0
    0.6664   -0.1450    1.5428 C   0  0  0  0  0  0  0  0  0  0  0  0
    1.8485   -0.3724    1.8265 O   0  0  0  0  0  0  0  0  0  0  0  0
   -0.2161    0.2434    2.4686 N   0  0  0  0  0  0  0  0  0  0  0  0
   -1.1850    0.3219    2.1537 H   0  0  0  0  0  0  0  0  0  0  0  0
    0.0735    0.4128    3.8885 C   0  0  0  0  0  0  0  0  0  0  0  0
    1.0159    0.9483    4.0105 H   0  0  0  0  0  0  0  0  0  0  0  0
   -0.7315    0.9748    4.3613 H   0  0  0  0  0  0  0  0  0  0  0  0
    0.1564   -0.5677    4.3577 H   0  0  0  0  0  0  0  0  0  0  0  0
  5  6  2  0  0  0  0
  5  7  1  0  0  0  0
  2  3  1  0  0  0  0
  2  4  1  0  0  0  0
  2  5  1  0  0  0  0
  1  2  1  0  0  0  0
 17 18  2  0  0  0  0
 17 19  1  0  0  0  0
 14 15  1  0  0  0  0
 14 16  2  0  0  0  0
 11 12  1  0  0  0  0
 11 13  1  0  0  0  0
 11 14  1  0  0  0  0
  9 10  1  0  0  0  0
  9 11  1  0  0  0  0
  9 17  1  0  0  0  0
  7  8  1  0  0  0  0
  7  9  1  0  0  0  0
 21 22  1  0  0  0  0
 21 23  1  0  0  0  0
 21 24  1  0  0  0  0
 19 20  1  0  0  0  0
 19 21  1  0  0  0  0
M  CHG  1  15  -1
M  END
$$$$
default_name
  -OEChem-02102213163D

 24 23  0     1  0  0  0  0  0999 V2000
   -2.8347   -3.7166    0.8034 H   0  0  0  0  0  0  0  0  0  0  0  0
   -2.7728   -2.7096    0.3954 C   0  0  0  0  0  0  0  0  0  0  0  0
   -3.4267   -2.0426    0.9524 H   0  0  0  0  0  0  0  0  0  0  0  0
   -3.0538   -2.7186   -0.6556 H   0  0  0  0  0  0  0  0  0  0  0  0
   -1.3498   -2.2206    0.5184 C   0  0  0  0  0  0  0  0  0  0  0  0
   -0.4997   -2.9426    1.0194 O   0  0  0  0  0  0  0  0  0  0  0  0
   -1.1198   -0.9926    0.0674 N   0  0  0  0  0  0  0  0  0  0  0  0
   -1.8978   -0.4486   -0.2716 H   0  0  0  0  0  0  0  0  0  0  0  0
    0.1693   -0.2866    0.0854 C   0  0  1  0  0  0  0  0  0  0  0  0
    0.9043   -0.8713   -0.4705 H   0  0  0  0  0  0  0  0  0  0  0  0
    0.0106    1.0816   -0.6124 C   0  0  0  0  0  0  0  0  0  0  0  0
   -0.5190    1.7586    0.0602 H   0  0  0  0  0  0  0  0  0  0  0  0
    1.0025    1.5012   -0.7940 H   0  0  0  0  0  0  0  0  0  0  0  0
   -0.7703    1.0361   -1.9352 C   0  0  0  0  0  0  0  0  0  0  0  0
   -0.7052    2.0245   -2.7036 O   0  5  0  0  0  0  0  0  0  0  0  0
   -1.4477    0.0098   -2.1590 O   0  0  0  0  0  0  0  0  0  0  0  0
    0.6664   -0.1450    1.5428 C   0  0  0  0  0  0  0  0  0  0  0  0
    1.8485   -0.3724    1.8265 O   0  0  0  0  0  0  0  0  0  0  0  0
   -0.2161    0.2434    2.4686 N   0  0  0  0  0  0  0  0  0  0  0  0
   -1.1850    0.3219    2.1537 H   0  0  0  0  0  0  0  0  0  0  0  0
    0.0735    0.4128    3.8885 C   0  0  0  0  0  0  0  0  0  0  0  0
    1.0159    0.9483    4.0105 H   0  0  0  0  0  0  0  0  0  0  0  0
   -0.7315    0.9748    4.3613 H   0  0  0  0  0  0  0  0  0  0  0  0
    0.1564   -0.5677    4.3577 H   0  0  0  0  0  0  0  0  0  0  0  0
  5  6  2  0  0  0  0
  5  7  1  0  0  0  0
  2  3  1  0  0  0  0
  2  4  1  0  0  0  0
  2  5  1  0  0  0  0
  1  2  1  0  0  0  0
 17 18  2  0  0  0  0
 17 19  1  0  0  0  0
 14 15  1  0  0  0  0
 14 16  2  0  0  0  0
 11 12  1  0  0  0  0
 11 13  1  0  0  0  0
 11 14  1  0  0  0  0
  9 10  1  0  0  0  0
  9 11  1  0  0  0  0
  9 17  1  0  0  0  0
  7  8  1  0  0  0  0
  7  9  1  0  0  0  0
 21 22  1  0  0  0  0
 21 23  1  0  0  0  0
 21 24  1  0  0  0  0
 19 20  1  0  0  0  0
 19 21  1  0  0  0  0
M  CHG  1  15  -1
M  END
$$$$
default_name
  -OEChem-02102213163D

 24 23  0     1  0  0  0  0  0999 V2000
   -2.8347   -3.7166    0.8034 H   0  0  0  0  0  0  0  0  0  0  0  0
   -2.7728   -2.7096    0.3954 C   0  0  0  0  0  0  0  0  0  0  0  0
   -3.4267   -2.0426    0.9524 H   0  0  0  0  0  0  0  0  0  0  0  0
   -3.0538   -2.7186   -0.6556 H   0  0  0  0  0  0  0  0  0  0  0  0
   -1.3498   -2.2206    0.5184 C   0  0  0  0  0  0  0  0  0  0  0  0
   -0.4997   -2.9426    1.0194 O   0  0  0  0  0  0  0  0  0  0  0  0
   -1.1198   -0.9926    0.0674 N   0  0  0  0  0  0  0  0  0  0  0  0
   -1.8978   -0.4486   -0.2716 H   0  0  0  0  0  0  0  0  0  0  0  0
    0.1693   -0.2866    0.0854 C   0  0  1  0  0  0  0  0  0  0  0  0
    0.9043   -0.8713   -0.4705 H   0  0  0  0  0  0  0  0  0  0  0  0
    0.0106    1.0816   -0.6124 C   0  0  0  0  0  0  0  0  0  0  0  0
   -0.5190    1.7586    0.0602 H   0  0  0  0  0  0  0  0  0  0  0  0
    1.0025    1.5012   -0.7940 H   0  0  0  0  0  0  0  0  0  0  0  0
   -0.7703    1.0361   -1.9352 C   0  0  0  0  0  0  0  0  0  0  0  0
   -0.4917    1.8746   -2.8245 O   0  5  0  0  0  0  0  0  0  0  0  0
   -1.6613    0.1657   -2.0383 O   0  0  0  0  0  0  0  0  0  0  0  0
    0.6664   -0.1450    1.5428 C   0  0  0  0  0  0  0  0  0  0  0  0
    1.8485   -0.3724    1.8265 O   0  0  0  0  0  0  0  0  0  0  0  0
   -0.2161    0.2434    2.4686 N   0  0  0  0  0  0  0  0  0  0  0  0
   -1.1850    0.3219    2.1537 H   0  0  0  0  0  0  0  0  0  0  0  0
    0.0735    0.4128    3.8885 C   0  0  0  0  0  0  0  0  0  0  0  0
    1.0159    0.9483    4.0105 H   0  0  0  0  0  0  0  0  0  0  0  0
   -0.7315    0.9748    4.3613 H   0  0  0  0  0  0  0  0  0  0  0  0
    0.1564   -0.5677    4.3577 H   0  0  0  0  0  0  0  0  0  0  0  0
  5  6  2  0  0  0  0
  5  7  1  0  0  0  0
  2  3  1  0  0  0  0
  2  4  1  0  0  0  0
  2  5  1  0  0  0  0
  1  2  1  0  0  0  0
 17 18  2  0  0  0  0
 17 19  1  0  0  0  0
 14 15  1  0  0  0  0
 14 16  2  0  0  0  0
 11 12  1  0  0  0  0
 11 13  1  0  0  0  0
 11 14  1  0  0  0  0
  9 10  1  0  0  0  0
  9 11  1  0  0  0  0
  9 17  1  0  0  0  0
  7  8  1  0  0  0  0
  7  9  1  0  0  0  0
 21 22  1  0  0  0  0
 21 23  1  0  0  0  0
 21 24  1  0  0  0  0
 19 20  1  0  0  0  0
 19 21  1  0  0  0  0
M  CHG  1  15  -1
M  END
$$$$
default_name
  -OEChem-02102213163D

 24 23  0     1  0  0  0  0  0999 V2000
   -2.8347   -3.7166    0.8034 H   0  0  0  0  0  0  0  0  0  0  0  0
   -2.7728   -2.7096    0.3954 C   0  0  0  0  0  0  0  0  0  0  0  0
   -3.4267   -2.0426    0.9524 H   0  0  0  0  0  0  0  0  0  0  0  0
   -3.0538   -2.7186   -0.6556 H   0  0  0  0  0  0  0  0  0  0  0  0
   -1.3498   -2.2206    0.5184 C   0  0  0  0  0  0  0  0  0  0  0  0
   -0.4997   -2.9426    1.0194 O   0  0  0  0  0  0  0  0  0  0  0  0
   -1.1198   -0.9926    0.0674 N   0  0  0  0  0  0  0  0  0  0  0  0
   -1.8978   -0.4486   -0.2716 H   0  0  0  0  0  0  0  0  0  0  0  0
    0.1693   -0.2866    0.0854 C   0  0  1  0  0  0  0  0  0  0  0  0
    0.9043   -0.8713   -0.4705 H   0  0  0  0  0  0  0  0  0  0  0  0
    0.0106    1.0816   -0.6124 C   0  0  0  0  0  0  0  0  0  0  0  0
   -0.5190    1.7586    0.0602 H   0  0  0  0  0  0  0  0  0  0  0  0
    1.0025    1.5012   -0.7940 H   0  0  0  0  0  0  0  0  0  0  0  0
   -0.7703    1.0361   -1.9352 C   0  0  0  0  0  0  0  0  0  0  0  0
   -0.3179    1.6664   -2.9199 O   0  5  0  0  0  0  0  0  0  0  0  0
   -1.8339    0.3798   -1.9438 O   0  0  0  0  0  0  0  0  0  0  0  0
    0.6664   -0.1450    1.5428 C   0  0  0  0  0  0  0  0  0  0  0  0
    1.8485   -0.3724    1.8265 O   0  0  0  0  0  0  0  0  0  0  0  0
   -0.2161    0.2434    2.4686 N   0  0  0  0  0  0  0  0  0  0  0  0
   -1.1850    0.3219    2.1537 H   0  0  0  0  0  0  0  0  0  0  0  0
    0.0735    0.4128    3.8885 C   0  0  0  0  0  0  0  0  0  0  0  0
    1.0159    0.9483    4.0105 H   0  0  0  0  0  0  0  0  0  0  0  0
   -0.7315    0.9748    4.3613 H   0  0  0  0  0  0  0  0  0  0  0  0
    0.1564   -0.5677    4.3577 H   0  0  0  0  0  0  0  0  0  0  0  0
  5  6  2  0  0  0  0
  5  7  1  0  0  0  0
  2  3  1  0  0  0  0
  2  4  1  0  0  0  0
  2  5  1  0  0  0  0
  1  2  1  0  0  0  0
 17 18  2  0  0  0  0
 17 19  1  0  0  0  0
 14 15  1  0  0  0  0
 14 16  2  0  0  0  0
 11 12  1  0  0  0  0
 11 13  1  0  0  0  0
 11 14  1  0  0  0  0
  9 10  1  0  0  0  0
  9 11  1  0  0  0  0
  9 17  1  0  0  0  0
  7  8  1  0  0  0  0
  7  9  1  0  0  0  0
 21 22  1  0  0  0  0
 21 23  1  0  0  0  0
 21 24  1  0  0  0  0
 19 20  1  0  0  0  0
 19 21  1  0  0  0  0
M  CHG  1  15  -1
M  END
$$$$
default_name
  -OEChem-02102213163D

 24 23  0     1  0  0  0  0  0999 V2000
   -2.8347   -3.7166    0.8034 H   0  0  0  0  0  0  0  0  0  0  0  0
   -2.7728   -2.7096    0.3954 C   0  0  0  0  0  0  0  0  0  0  0  0
   -3.4267   -2.0426    0.9524 H   0  0  0  0  0  0  0  0  0  0  0  0
   -3.0538   -2.7186   -0.6556 H   0  0  0  0  0  0  0  0  0  0  0  0
   -1.3498   -2.2206    0.5184 C   0  0  0  0  0  0  0  0  0  0  0  0
   -0.4997   -2.9426    1.0194 O   0  0  0  0  0  0  0  0  0  0  0  0
   -1.1198   -0.9926    0.0674 N   0  0  0  0  0  0  0  0  0  0  0  0
   -1.8978   -0.4486   -0.2716 H   0  0  0  0  0  0  0  0  0  0  0  0
    0.1693   -0.2866    0.0854 C   0  0  1  0  0  0  0  0  0  0  0  0
    0.9043   -0.8713   -0.4705 H   0  0  0  0  0  0  0  0  0  0  0  0
    0.0106    1.0816   -0.6124 C   0  0  0  0  0  0  0  0  0  0  0  0
   -0.5190    1.7586    0.0602 H   0  0  0  0  0  0  0  0  0  0  0  0
    1.0025    1.5012   -0.7940 H   0  0  0  0  0  0  0  0  0  0  0  0
   -0.7703    1.0361   -1.9352 C   0  0  0  0  0  0  0  0  0  0  0  0
   -0.1957    1.4140   -2.9833 O   0  5  0  0  0  0  0  0  0  0  0  0
   -1.9536    0.6374   -1.8820 O   0  0  0  0  0  0  0  0  0  0  0  0
    0.6664   -0.1450    1.5428 C   0  0  0  0  0  0  0  0  0  0  0  0
    1.8485   -0.3724    1.8265 O   0  0  0  0  0  0  0  0  0  0  0  0
   -0.2161    0.2434    2.4686 N   0  0  0  0  0  0  0  0  0  0  0  0
   -1.1850    0.3219    2.1537 H   0  0  0  0  0  0  0  0  0  0  0  0
    0.0735    0.4128    3.8885 C   0  0  0  0  0  0  0  0  0  0  0  0
    1.0159    0.9483    4.0105 H   0  0  0  0  0  0  0  0  0  0  0  0
   -0.7315    0.9748    4.3613 H   0  0  0  0  0  0  0  0  0  0  0  0
    0.1564   -0.5677    4.3577 H   0  0  0  0  0  0  0  0  0  0  0  0
  5  6  2  0  0  0  0
  5  7  1  0  0  0  0
  2  3  1  0  0  0  0
  2  4  1  0  0  0  0
  2  5  1  0  0  0  0
  1  2  1  0  0  0  0
 17 18  2  0  0  0  0
 17 19  1  0  0  0  0
 14 15  1  0  0  0  0
 14 16  2  0  0  0  0
 11 12  1  0  0  0  0
 11 13  1  0  0  0  0
 11 14  1  0  0  0  0
  9 10  1  0  0  0  0
  9 11  1  0  0  0  0
  9 17  1  0  0  0  0
  7  8  1  0  0  0  0
  7  9  1  0  0  0  0
 21 22  1  0  0  0  0
 21 23  1  0  0  0  0
 21 24  1  0  0  0  0
 19 20  1  0  0  0  0
 19 21  1  0  0  0  0
M  CHG  1  15  -1
M  END
$$$$
default_name
  -OEChem-02102213163D

 24 23  0     1  0  0  0  0  0999 V2000
   -2.8347   -3.7166    0.8034 H   0  0  0  0  0  0  0  0  0  0  0  0
   -2.7728   -2.7096    0.3954 C   0  0  0  0  0  0  0  0  0  0  0  0
   -3.4267   -2.0426    0.9524 H   0  0  0  0  0  0  0  0  0  0  0  0
   -3.0538   -2.7186   -0.6556 H   0  0  0  0  0  0  0  0  0  0  0  0
   -1.3498   -2.2206    0.5184 C   0  0  0  0  0  0  0  0  0  0  0  0
   -0.4997   -2.9426    1.0194 O   0  0  0  0  0  0  0  0  0  0  0  0
   -1.1198   -0.9926    0.0674 N   0  0  0  0  0  0  0  0  0  0  0  0
   -1.8978   -0.4486   -0.2716 H   0  0  0  0  0  0  0  0  0  0  0  0
    0.1693   -0.2866    0.0854 C   0  0  1  0  0  0  0  0  0  0  0  0
    0.9043   -0.8713   -0.4705 H   0  0  0  0  0  0  0  0  0  0  0  0
    0.0106    1.0816   -0.6124 C   0  0  0  0  0  0  0  0  0  0  0  0
   -0.5190    1.7586    0.0602 H   0  0  0  0  0  0  0  0  0  0  0  0
    1.0025    1.5012   -0.7940 H   0  0  0  0  0  0  0  0  0  0  0  0
   -0.7703    1.0361   -1.9352 C   0  0  0  0  0  0  0  0  0  0  0  0
   -0.1334    1.1347   -3.0105 O   0  5  0  0  0  0  0  0  0  0  0  0
   -2.0124    0.9210   -1.8571 O   0  0  0  0  0  0  0  0  0  0  0  0
    0.6664   -0.1450    1.5428 C   0  0  0  0  0  0  0  0  0  0  0  0
    1.8485   -0.3724    1.8265 O   0  0  0  0  0  0  0  0  0  0  0  0
   -0.2161    0.2434    2.4686 N   0  0  0  0  0  0  0  0  0  0  0  0
   -1.1850    0.3219    2.1537 H   0  0  0  0  0  0  0  0  0  0  0  0
    0.0735    0.4128    3.8885 C   0  0  0  0  0  0  0  0  0  0  0  0
    1.0159    0.9483    4.0105 H   0  0  0  0  0  0  0  0  0  0  0  0
   -0.7315    0.9748    4.3613 H   0  0  0  0  0  0  0  0  0  0  0  0
    0.1564   -0.5677    4.3577 H   0  0  0  0  0  0  0  0  0  0  0  0
  5  6  2  0  0  0  0
  5  7  1  0  0  0  0
  2  3  1  0  0  0  0
  2  4  1  0  0  0  0
  2  5  1  0  0  0  0
  1  2  1  0  0  0  0
 17 18  2  0  0  0  0
 17 19  1  0  0  0  0
 14 15  1  0  0  0  0
 14 16  2  0  0  0  0
 11 12  1  0  0  0  0
 11 13  1  0  0  0  0
 11 14  1  0  0  0  0
  9 10  1  0  0  0  0
  9 11  1  0  0  0  0
  9 17  1  0  0  0  0
  7  8  1  0  0  0  0
  7  9  1  0  0  0  0
 21 22  1  0  0  0  0
 21 23  1  0  0  0  0
 21 24  1  0  0  0  0
 19 20  1  0  0  0  0
 19 21  1  0  0  0  0
M  CHG  1  15  -1
M  END
$$$$
default_name
  -OEChem-02102213163D

 24 23  0     1  0  0  0  0  0999 V2000
   -2.8347   -3.7166    0.8034 H   0  0  0  0  0  0  0  0  0  0  0  0
   -2.7728   -2.7096    0.3954 C   0  0  0  0  0  0  0  0  0  0  0  0
   -3.4267   -2.0426    0.9524 H   0  0  0  0  0  0  0  0  0  0  0  0
   -3.0538   -2.7186   -0.6556 H   0  0  0  0  0  0  0  0  0  0  0  0
   -1.3498   -2.2206    0.5184 C   0  0  0  0  0  0  0  0  0  0  0  0
   -0.4997   -2.9426    1.0194 O   0  0  0  0  0  0  0  0  0  0  0  0
   -1.1198   -0.9926    0.0674 N   0  0  0  0  0  0  0  0  0  0  0  0
   -1.8978   -0.4486   -0.2716 H   0  0  0  0  0  0  0  0  0  0  0  0
    0.1693   -0.2866    0.0854 C   0  0  1  0  0  0  0  0  0  0  0  0
    0.9043   -0.8713   -0.4705 H   0  0  0  0  0  0  0  0  0  0  0  0
    0.0106    1.0816   -0.6124 C   0  0  0  0  0  0  0  0  0  0  0  0
   -0.5190    1.7586    0.0602 H   0  0  0  0  0  0  0  0  0  0  0  0
    1.0025    1.5012   -0.7940 H   0  0  0  0  0  0  0  0  0  0  0  0
   -0.7703    1.0361   -1.9352 C   0  0  0  0  0  0  0  0  0  0  0  0
   -0.1352    0.8474   -2.9995 O   0  5  0  0  0  0  0  0  0  0  0  0
   -2.0061    1.2114   -1.8708 O   0  0  0  0  0  0  0  0  0  0  0  0
    0.6664   -0.1450    1.5428 C   0  0  0  0  0  0  0  0  0  0  0  0
    1.8485   -0.3724    1.8265 O   0  0  0  0  0  0  0  0  0  0  0  0
   -0.2161    0.2434    2.4686 N   0  0  0  0  0  0  0  0  0  0  0  0
   -1.1850    0.3219    2.1537 H   0  0  0  0  0  0  0  0  0  0  0  0
    0.0735    0.4128    3.8885 C   0  0  0  0  0  0  0  0  0  0  0  0
    1.0159    0.9483    4.0105 H   0  0  0  0  0  0  0  0  0  0  0  0
   -0.7315    0.9748    4.3613 H   0  0  0  0  0  0  0  0  0  0  0  0
    0.1564   -0.5677    4.3577 H   0  0  0  0  0  0  0  0  0  0  0  0
  5  6  2  0  0  0  0
  5  7  1  0  0  0  0
  2  3  1  0  0  0  0
  2  4  1  0  0  0  0
  2  5  1  0  0  0  0
  1  2  1  0  0  0  0
 17 18  2  0  0  0  0
 17 19  1  0  0  0  0
 14 15  1  0  0  0  0
 14 16  2  0  0  0  0
 11 12  1  0  0  0  0
 11 13  1  0  0  0  0
 11 14  1  0  0  0  0
  9 10  1  0  0  0  0
  9 11  1  0  0  0  0
  9 17  1  0  0  0  0
  7  8  1  0  0  0  0
  7  9  1  0  0  0  0
 21 22  1  0  0  0  0
 21 23  1  0  0  0  0
 21 24  1  0  0  0  0
 19 20  1  0  0  0  0
 19 21  1  0  0  0  0
M  CHG  1  15  -1
M  END
$$$$
default_name
  -OEChem-02102213163D

 24 23  0     1  0  0  0  0  0999 V2000
   -2.8347   -3.7166    0.8034 H   0  0  0  0  0  0  0  0  0  0  0  0
   -2.7728   -2.7096    0.3954 C   0  0  0  0  0  0  0  0  0  0  0  0
   -3.4267   -2.0426    0.9524 H   0  0  0  0  0  0  0  0  0  0  0  0
   -3.0538   -2.7186   -0.6556 H   0  0  0  0  0  0  0  0  0  0  0  0
   -1.3498   -2.2206    0.5184 C   0  0  0  0  0  0  0  0  0  0  0  0
   -0.4997   -2.9426    1.0194 O   0  0  0  0  0  0  0  0  0  0  0  0
   -1.1198   -0.9926    0.0674 N   0  0  0  0  0  0  0  0  0  0  0  0
   -1.8978   -0.4486   -0.2716 H   0  0  0  0  0  0  0  0  0  0  0  0
    0.1693   -0.2866    0.0854 C   0  0  1  0  0  0  0  0  0  0  0  0
    0.9043   -0.8713   -0.4705 H   0  0  0  0  0  0  0  0  0  0  0  0
    0.0106    1.0816   -0.6124 C   0  0  0  0  0  0  0  0  0  0  0  0
   -0.5190    1.7586    0.0602 H   0  0  0  0  0  0  0  0  0  0  0  0
    1.0025    1.5012   -0.7940 H   0  0  0  0  0  0  0  0  0  0  0  0
   -0.7703    1.0361   -1.9352 C   0  0  0  0  0  0  0  0  0  0  0  0
   -0.2011    0.5718   -2.9511 O   0  5  0  0  0  0  0  0  0  0  0  0
   -1.9352    1.4886   -1.9222 O   0  0  0  0  0  0  0  0  0  0  0  0
    0.6664   -0.1450    1.5428 C   0  0  0  0  0  0  0  0  0  0  0  0
    1.8485   -0.3724    1.8265 O   0  0  0  0  0  0  0  0  0  0  0  0
   -0.2161    0.2434    2.4686 N   0  0  0  0  0  0  0  0  0  0  0  0
   -1.1850    0.3219    2.1537 H   0  0  0  0  0  0  0  0  0  0  0  0
    0.0735    0.4128    3.8885 C   0  0  0  0  0  0  0  0  0  0  0  0
    1.0159    0.9483    4.0105 H   0  0  0  0  0  0  0  0  0  0  0  0
   -0.7315    0.9748    4.3613 H   0  0  0  0  0  0  0  0  0  0  0  0
    0.1564   -0.5677    4.3577 H   0  0  0  0  0  0  0  0  0  0  0  0
  5  6  2  0  0  0  0
  5  7  1  0  0  0  0
  2  3  1  0  0  0  0
  2  4  1  0  0  0  0
  2  5  1  0  0  0  0
  1  2  1  0  0  0  0
 17 18  2  0  0  0  0
 17 19  1  0  0  0  0
 14 15  1  0  0  0  0
 14 16  2  0  0  0  0
 11 12  1  0  0  0  0
 11 13  1  0  0  0  0
 11 14  1  0  0  0  0
  9 10  1  0  0  0  0
  9 11  1  0  0  0  0
  9 17  1  0  0  0  0
  7  8  1  0  0  0  0
  7  9  1  0  0  0  0
 21 22  1  0  0  0  0
 21 23  1  0  0  0  0
 21 24  1  0  0  0  0
 19 20  1  0  0  0  0
 19 21  1  0  0  0  0
M  CHG  1  15  -1
M  END
$$$$
default_name
  -OEChem-02102213163D

 24 23  0     1  0  0  0  0  0999 V2000
   -2.8347   -3.7166    0.8034 H   0  0  0  0  0  0  0  0  0  0  0  0
   -2.7728   -2.7096    0.3954 C   0  0  0  0  0  0  0  0  0  0  0  0
   -3.4267   -2.0426    0.9524 H   0  0  0  0  0  0  0  0  0  0  0  0
   -3.0538   -2.7186   -0.6556 H   0  0  0  0  0  0  0  0  0  0  0  0
   -1.3498   -2.2206    0.5184 C   0  0  0  0  0  0  0  0  0  0  0  0
   -0.4997   -2.9426    1.0194 O   0  0  0  0  0  0  0  0  0  0  0  0
   -1.1198   -0.9926    0.0674 N   0  0  0  0  0  0  0  0  0  0  0  0
   -1.8978   -0.4486   -0.2716 H   0  0  0  0  0  0  0  0  0  0  0  0
    0.1693   -0.2866    0.0854 C   0  0  1  0  0  0  0  0  0  0  0  0
    0.9043   -0.8713   -0.4705 H   0  0  0  0  0  0  0  0  0  0  0  0
    0.0106    1.0816   -0.6124 C   0  0  0  0  0  0  0  0  0  0  0  0
   -0.5190    1.7586    0.0602 H   0  0  0  0  0  0  0  0  0  0  0  0
    1.0025    1.5012   -0.7940 H   0  0  0  0  0  0  0  0  0  0  0  0
   -0.7703    1.0361   -1.9352 C   0  0  0  0  0  0  0  0  0  0  0  0
   -0.3265    0.3266   -2.8686 O   0  5  0  0  0  0  0  0  0  0  0  0
   -1.8046    1.7339   -2.0077 O   0  0  0  0  0  0  0  0  0  0  0  0
    0.6664   -0.1450    1.5428 C   0  0  0  0  0  0  0  0  0  0  0  0
    1.8485   -0.3724    1.8265 O   0  0  0  0  0  0  0  0  0  0  0  0
   -0.2161    0.2434    2.4686 N   0  0  0  0  0  0  0  0  0  0  0  0
   -1.1850    0.3219    2.1537 H   0  0  0  0  0  0  0  0  0  0  0  0
    0.0735    0.4128    3.8885 C   0  0  0  0  0  0  0  0  0  0  0  0
    1.0159    0.9483    4.0105 H   0  0  0  0  0  0  0  0  0  0  0  0
   -0.7315    0.9748    4.3613 H   0  0  0  0  0  0  0  0  0  0  0  0
    0.1564   -0.5677    4.3577 H   0  0  0  0  0  0  0  0  0  0  0  0
  5  6  2  0  0  0  0
  5  7  1  0  0  0  0
  2  3  1  0  0  0  0
  2  4  1  0  0  0  0
  2  5  1  0  0  0  0
  1  2  1  0  0  0  0
 17 18  2  0  0  0  0
 17 19  1  0  0  0  0
 14 15  1  0  0  0  0
 14 16  2  0  0  0  0
 11 12  1  0  0  0  0
 11 13  1  0  0  0  0
 11 14  1  0  0  0  0
  9 10  1  0  0  0  0
  9 11  1  0  0  0  0
  9 17  1  0  0  0  0
  7  8  1  0  0  0  0
  7  9  1  0  0  0  0
 21 22  1  0  0  0  0
 21 23  1  0  0  0  0
 21 24  1  0  0  0  0
 19 20  1  0  0  0  0
 19 21  1  0  0  0  0
M  CHG  1  15  -1
M  END
$$$$
default_name
  -OEChem-02102213163D

 24 23  0     1  0  0  0  0  0999 V2000
   -2.8347   -3.7166    0.8034 H   0  0  0  0  0  0  0  0  0  0  0  0
   -2.7728   -2.7096    0.3954 C   0  0  0  0  0  0  0  0  0  0  0  0
   -3.4267   -2.0426    0.9524 H   0  0  0  0  0  0  0  0  0  0  0  0
   -3.0538   -2.7186   -0.6556 H   0  0  0  0  0  0  0  0  0  0  0  0
   -1.3498   -2.2206    0.5184 C   0  0  0  0  0  0  0  0  0  0  0  0
   -0.4997   -2.9426    1.0194 O   0  0  0  0  0  0  0  0  0  0  0  0
   -1.1198   -0.9926    0.0674 N   0  0  0  0  0  0  0  0  0  0  0  0
   -1.8978   -0.4486   -0.2716 H   0  0  0  0  0  0  0  0  0  0  0  0
    0.1693   -0.2866    0.0854 C   0  0  1  0  0  0  0  0  0  0  0  0
    0.9043   -0.8713   -0.4705 H   0  0  0  0  0  0  0  0  0  0  0  0
    0.0106    1.0816   -0.6124 C   0  0  0  0  0  0  0  0  0  0  0  0
   -0.5190    1.7586    0.0602 H   0  0  0  0  0  0  0  0  0  0  0  0
    1.0025    1.5012   -0.7940 H   0  0  0  0  0  0  0  0  0  0  0  0
   -0.7703    1.0361   -1.9352 C   0  0  0  0  0  0  0  0  0  0  0  0
   -0.5029    0.1285   -2.7577 O   0  5  0  0  0  0  0  0  0  0  0  0
   -1.6232    1.9304   -2.1216 O   0  0  0  0  0  0  0  0  0  0  0  0
    0.6664   -0.1450    1.5428 C   0  0  0  0  0  0  0  0  0  0  0  0
    1.8485   -0.3724    1.8265 O   0  0  0  0  0  0  0  0  0  0  0  0
   -0.2161    0.2434    2.4686 N   0  0  0  0  0  0  0  0  0  0  0  0
   -1.1850    0.3219    2.1537 H   0  0  0  0  0  0  0  0  0  0  0  0
    0.0735    0.4128    3.8885 C   0  0  0  0  0  0  0  0  0  0  0  0
    1.0159    0.9483    4.0105 H   0  0  0  0  0  0  0  0  0  0  0  0
   -0.7315    0.9748    4.3613 H   0  0  0  0  0  0  0  0  0  0  0  0
    0.1564   -0.5677    4.3577 H   0  0  0  0  0  0  0  0  0  0  0  0
  5  6  2  0  0  0  0
  5  7  1  0  0  0  0
  2  3  1  0  0  0  0
  2  4  1  0  0  0  0
  2  5  1  0  0  0  0
  1  2  1  0  0  0  0
 17 18  2  0  0  0  0
 17 19  1  0  0  0  0
 14 15  1  0  0  0  0
 14 16  2  0  0  0  0
 11 12  1  0  0  0  0
 11 13  1  0  0  0  0
 11 14  1  0  0  0  0
  9 10  1  0  0  0  0
  9 11  1  0  0  0  0
  9 17  1  0  0  0  0
  7  8  1  0  0  0  0
  7  9  1  0  0  0  0
 21 22  1  0  0  0  0
 21 23  1  0  0  0  0
 21 24  1  0  0  0  0
 19 20  1  0  0  0  0
 19 21  1  0  0  0  0
M  CHG  1  15  -1
M  END
$$$$
default_name
  -OEChem-02102213163D

 24 23  0     1  0  0  0  0  0999 V2000
   -2.8347   -3.7166    0.8034 H   0  0  0  0  0  0  0  0  0  0  0  0
   -2.7728   -2.7096    0.3954 C   0  0  0  0  0  0  0  0  0  0  0  0
   -3.4267   -2.0426    0.9524 H   0  0  0  0  0  0  0  0  0  0  0  0
   -3.0538   -2.7186   -0.6556 H   0  0  0  0  0  0  0  0  0  0  0  0
   -1.3498   -2.2206    0.5184 C   0  0  0  0  0  0  0  0  0  0  0  0
   -0.4997   -2.9426    1.0194 O   0  0  0  0  0  0  0  0  0  0  0  0
   -1.1198   -0.9926    0.0674 N   0  0  0  0  0  0  0  0  0  0  0  0
   -1.8978   -0.4486   -0.2716 H   0  0  0  0  0  0  0  0  0  0  0  0
    0.1693   -0.2866    0.0854 C   0  0  1  0  0  0  0  0  0  0  0  0
    0.9043   -0.8713   -0.4705 H   0  0  0  0  0  0  0  0  0  0  0  0
    0.0106    1.0816   -0.6124 C   0  0  0  0  0  0  0  0  0  0  0  0
   -0.5190    1.7586    0.0602 H   0  0  0  0  0  0  0  0  0  0  0  0
    1.0025    1.5012   -0.7940 H   0  0  0  0  0  0  0  0  0  0  0  0
   -0.7703    1.0361   -1.9352 C   0  0  0  0  0  0  0  0  0  0  0  0
   -0.7182   -0.0089   -2.6258 O   0  5  0  0  0  0  0  0  0  0  0  0
   -1.4033    2.0649   -2.2560 O   0  0  0  0  0  0  0  0  0  0  0  0
    0.6664   -0.1450    1.5428 C   0  0  0  0  0  0  0  0  0  0  0  0
    1.8485   -0.3724    1.8265 O   0  0  0  0  0  0  0  0  0  0  0  0
   -0.2161    0.2434    2.4686 N   0  0  0  0  0  0  0  0  0  0  0  0
   -1.1850    0.3219    2.1537 H   0  0  0  0  0  0  0  0  0  0  0  0
    0.0735    0.4128    3.8885 C   0  0  0  0  0  0  0  0  0  0  0  0
    1.0159    0.9483    4.0105 H   0  0  0  0  0  0  0  0  0  0  0  0
   -0.7315    0.9748    4.3613 H   0  0  0  0  0  0  0  0  0  0  0  0
    0.1564   -0.5677    4.3577 H   0  0  0  0  0  0  0  0  0  0  0  0
  5  6  2  0  0  0  0
  5  7  1  0  0  0  0
  2  3  1  0  0  0  0
  2  4  1  0  0  0  0
  2  5  1  0  0  0  0
  1  2  1  0  0  0  0
 17 18  2  0  0  0  0
 17 19  1  0  0  0  0
 14 15  1  0  0  0  0
 14 16  2  0  0  0  0
 11 12  1  0  0  0  0
 11 13  1  0  0  0  0
 11 14  1  0  0  0  0
  9 10  1  0  0  0  0
  9 11  1  0  0  0  0
  9 17  1  0  0  0  0
  7  8  1  0  0  0  0
  7  9  1  0  0  0  0
 21 22  1  0  0  0  0
 21 23  1  0  0  0  0
 21 24  1  0  0  0  0
 19 20  1  0  0  0  0
 19 21  1  0  0  0  0
M  CHG  1  15  -1
M  END
$$$$
default_name
  -OEChem-02102213163D

 24 23  0     1  0  0  0  0  0999 V2000
   -2.8347   -3.7166    0.8034 H   0  0  0  0  0  0  0  0  0  0  0  0
   -2.7728   -2.7096    0.3954 C   0  0  0  0  0  0  0  0  0  0  0  0
   -3.4267   -2.0426    0.9524 H   0  0  0  0  0  0  0  0  0  0  0  0
   -3.0538   -2.7186   -0.6556 H   0  0  0  0  0  0  0  0  0  0  0  0
   -1.3498   -2.2206    0.5184 C   0  0  0  0  0  0  0  0  0  0  0  0
   -0.4997   -2.9426    1.0194 O   0  0  0  0  0  0  0  0  0  0  0  0
   -1.1198   -0.9926    0.0674 N   0  0  0  0  0  0  0  0  0  0  0  0
   -1.8978   -0.4486   -0.2716 H   0  0  0  0  0  0  0  0  0  0  0  0
    0.1693   -0.2866    0.0854 C   0  0  1  0  0  0  0  0  0  0  0  0
    0.9043   -0.8713   -0.4705 H   0  0  0  0  0  0  0  0  0  0  0  0
    0.0106    1.0816   -0.6124 C   0  0  0  0  0  0  0  0  0  0  0  0
   -0.5190    1.7586    0.0602 H   0  0  0  0  0  0  0  0  0  0  0  0
    1.0025    1.5012   -0.7940 H   0  0  0  0  0  0  0  0  0  0  0  0
   -0.7703    1.0361   -1.9352 C   0  0  0  0  0  0  0  0  0  0  0  0
   -0.9579   -0.0763   -2.4821 O   0  5  0  0  0  0  0  0  0  0  0  0
   -1.1599    2.1281   -2.4019 O   0  0  0  0  0  0  0  0  0  0  0  0
    0.6664   -0.1450    1.5428 C   0  0  0  0  0  0  0  0  0  0  0  0
    1.8485   -0.3724    1.8265 O   0  0  0  0  0  0  0  0  0  0  0  0
   -0.2161    0.2434    2.4686 N   0  0  0  0  0  0  0  0  0  0  0  0
   -1.1850    0.3219    2.1537 H   0  0  0  0  0  0  0  0  0  0  0  0
    0.0735    0.4128    3.8885 C   0  0  0  0  0  0  0  0  0  0  0  0
    1.0159    0.9483    4.0105 H   0  0  0  0  0  0  0  0  0  0  0  0
   -0.7315    0.9748    4.3613 H   0  0  0  0  0  0  0  0  0  0  0  0
    0.1564   -0.5677    4.3577 H   0  0  0  0  0  0  0  0  0  0  0  0
  5  6  2  0  0  0  0
  5  7  1  0  0  0  0
  2  3  1  0  0  0  0
  2  4  1  0  0  0  0
  2  5  1  0  0  0  0
  1  2  1  0  0  0  0
 17 18  2  0  0  0  0
 17 19  1  0  0  0  0
 14 15  1  0  0  0  0
 14 16  2  0  0  0  0
 11 12  1  0  0  0  0
 11 13  1  0  0  0  0
 11 14  1  0  0  0  0
  9 10  1  0  0  0  0
  9 11  1  0  0  0  0
  9 17  1  0  0  0  0
  7  8  1  0  0  0  0
  7  9  1  0  0  0  0
 21 22  1  0  0  0  0
 21 23  1  0  0  0  0
 21 24  1  0  0  0  0
 19 20  1  0  0  0  0
 19 21  1  0  0  0  0
M  CHG  1  15  -1
M  END
$$$$
default_name
  -OEChem-02102213163D

 24 23  0     1  0  0  0  0  0999 V2000
   -2.8347   -3.7166    0.8034 H   0  0  0  0  0  0  0  0  0  0  0  0
   -2.7728   -2.7096    0.3954 C   0  0  0  0  0  0  0  0  0  0  0  0
   -3.4267   -2.0426    0.9524 H   0  0  0  0  0  0  0  0  0  0  0  0
   -3.0538   -2.7186   -0.6556 H   0  0  0  0  0  0  0  0  0  0  0  0
   -1.3498   -2.2206    0.5184 C   0  0  0  0  0  0  0  0  0  0  0  0
   -0.4997   -2.9426    1.0194 O   0  0  0  0  0  0  0  0  0  0  0  0
   -1.1198   -0.9926    0.0674 N   0  0  0  0  0  0  0  0  0  0  0  0
   -1.8978   -0.4486   -0.2716 H   0  0  0  0  0  0  0  0  0  0  0  0
    0.1693   -0.2866    0.0854 C   0  0  1  0  0  0  0  0  0  0  0  0
    0.9043   -0.8713   -0.4705 H   0  0  0  0  0  0  0  0  0  0  0  0
    0.0106    1.0816   -0.6124 C   0  0  0  0  0  0  0  0  0  0  0  0
   -0.5190    1.7586    0.0602 H   0  0  0  0  0  0  0  0  0  0  0  0
    1.0025    1.5012   -0.7940 H   0  0  0  0  0  0  0  0  0  0  0  0
   -0.7703    1.0361   -1.9352 C   0  0  0  0  0  0  0  0  0  0  0  0
   -1.2055   -0.0691   -2.3362 O   0  5  0  0  0  0  0  0  0  0  0  0
   -0.9095    2.1157   -2.5492 O   0  0  0  0  0  0  0  0  0  0  0  0
    0.6664   -0.1450    1.5428 C   0  0  0  0  0  0  0  0  0  0  0  0
    1.8485   -0.3724    1.8265 O   0  0  0  0  0  0  0  0  0  0  0  0
   -0.2161    0.2434    2.4686 N   0  0  0  0  0  0  0  0  0  0  0  0
   -1.1850    0.3219    2.1537 H   0  0  0  0  0  0  0  0  0  0  0  0
    0.0735    0.4128    3.8885 C   0  0  0  0  0  0  0  0  0  0  0  0
    1.0159    0.9483    4.0105 H   0  0  0  0  0  0  0  0  0  0  0  0
   -0.7315    0.9748    4.3613 H   0  0  0  0  0  0  0  0  0  0  0  0
    0.1564   -0.5677    4.3577 H   0  0  0  0  0  0  0  0  0  0  0  0
  5  6  2  0  0  0  0
  5  7  1  0  0  0  0
  2  3  1  0  0  0  0
  2  4  1  0  0  0  0
  2  5  1  0  0  0  0
  1  2  1  0  0  0  0
 17 18  2  0  0  0  0
 17 19  1  0  0  0  0
 14 15  1  0  0  0  0
 14 16  2  0  0  0  0
 11 12  1  0  0  0  0
 11 13  1  0  0  0  0
 11 14  1  0  0  0  0
  9 10  1  0  0  0  0
  9 11  1  0  0  0  0
  9 17  1  0  0  0  0
  7  8  1  0  0  0  0
  7  9  1  0  0  0  0
 21 22  1  0  0  0  0
 21 23  1  0  0  0  0
 21 24  1  0  0  0  0
 19 20  1  0  0  0  0
 19 21  1  0  0  0  0
M  CHG  1  15  -1
M  END
$$$$
default_name
  -OEChem-02102213163D

 24 23  0     1  0  0  0  0  0999 V2000
   -2.8347   -3.7166    0.8034 H   0  0  0  0  0  0  0  0  0  0  0  0
   -2.7728   -2.7096    0.3954 C   0  0  0  0  0  0  0  0  0  0  0  0
   -3.4267   -2.0426    0.9524 H   0  0  0  0  0  0  0  0  0  0  0  0
   -3.0538   -2.7186   -0.6556 H   0  0  0  0  0  0  0  0  0  0  0  0
   -1.3498   -2.2206    0.5184 C   0  0  0  0  0  0  0  0  0  0  0  0
   -0.4997   -2.9426    1.0194 O   0  0  0  0  0  0  0  0  0  0  0  0
   -1.1198   -0.9926    0.0674 N   0  0  0  0  0  0  0  0  0  0  0  0
   -1.8978   -0.4486   -0.2716 H   0  0  0  0  0  0  0  0  0  0  0  0
    0.1693   -0.2866    0.0854 C   0  0  1  0  0  0  0  0  0  0  0  0
    0.9043   -0.8713   -0.4705 H   0  0  0  0  0  0  0  0  0  0  0  0
    0.0106    1.0816   -0.6124 C   0  0  0  0  0  0  0  0  0  0  0  0
   -0.5190    1.7586    0.0602 H   0  0  0  0  0  0  0  0  0  0  0  0
    1.0025    1.5012   -0.7940 H   0  0  0  0  0  0  0  0  0  0  0  0
   -0.7703    1.0361   -1.9352 C   0  0  0  0  0  0  0  0  0  0  0  0
   -1.4441    0.0121   -2.1981 O   0  5  0  0  0  0  0  0  0  0  0  0
   -0.6694    2.0286   -2.6880 O   0  0  0  0  0  0  0  0  0  0  0  0
    0.6664   -0.1450    1.5428 C   0  0  0  0  0  0  0  0  0  0  0  0
    1.8485   -0.3724    1.8265 O   0  0  0  0  0  0  0  0  0  0  0  0
   -0.2161    0.2434    2.4686 N   0  0  0  0  0  0  0  0  0  0  0  0
   -1.1850    0.3219    2.1537 H   0  0  0  0  0  0  0  0  0  0  0  0
    0.0735    0.4128    3.8885 C   0  0  0  0  0  0  0  0  0  0  0  0
    1.0159    0.9483    4.0105 H   0  0  0  0  0  0  0  0  0  0  0  0
   -0.7315    0.9748    4.3613 H   0  0  0  0  0  0  0  0  0  0  0  0
    0.1564   -0.5677    4.3577 H   0  0  0  0  0  0  0  0  0  0  0  0
  5  6  2  0  0  0  0
  5  7  1  0  0  0  0
  2  3  1  0  0  0  0
  2  4  1  0  0  0  0
  2  5  1  0  0  0  0
  1  2  1  0  0  0  0
 17 18  2  0  0  0  0
 17 19  1  0  0  0  0
 14 15  1  0  0  0  0
 14 16  2  0  0  0  0
 11 12  1  0  0  0  0
 11 13  1  0  0  0  0
 11 14  1  0  0  0  0
  9 10  1  0  0  0  0
  9 11  1  0  0  0  0
  9 17  1  0  0  0  0
  7  8  1  0  0  0  0
  7  9  1  0  0  0  0
 21 22  1  0  0  0  0
 21 23  1  0  0  0  0
 21 24  1  0  0  0  0
 19 20  1  0  0  0  0
 19 21  1  0  0  0  0
M  CHG  1  15  -1
M  END
$$$$
default_name
  -OEChem-02102213163D

 24 23  0     1  0  0  0  0  0999 V2000
   -2.8347   -3.7166    0.8034 H   0  0  0  0  0  0  0  0  0  0  0  0
   -2.7728   -2.7096    0.3954 C   0  0  0  0  0  0  0  0  0  0  0  0
   -3.4267   -2.0426    0.9524 H   0  0  0  0  0  0  0  0  0  0  0  0
   -3.0538   -2.7186   -0.6556 H   0  0  0  0  0  0  0  0  0  0  0  0
   -1.3498   -2.2206    0.5184 C   0  0  0  0  0  0  0  0  0  0  0  0
   -0.4997   -2.9426    1.0194 O   0  0  0  0  0  0  0  0  0  0  0  0
   -1.1198   -0.9926    0.0674 N   0  0  0  0  0  0  0  0  0  0  0  0
   -1.8978   -0.4486   -0.2716 H   0  0  0  0  0  0  0  0  0  0  0  0
    0.1693   -0.2866    0.0854 C   0  0  1  0  0  0  0  0  0  0  0  0
    0.9043   -0.8713   -0.4705 H   0  0  0  0  0  0  0  0  0  0  0  0
    0.0106    1.0816   -0.6124 C   0  0  0  0  0  0  0  0  0  0  0  0
   -0.5190    1.7586    0.0602 H   0  0  0  0  0  0  0  0  0  0  0  0
    1.0025    1.5012   -0.7940 H   0  0  0  0  0  0  0  0  0  0  0  0
   -0.7703    1.0361   -1.9352 C   0  0  0  0  0  0  0  0  0  0  0  0
   -1.6577    0.1620   -2.0772 O   0  5  0  0  0  0  0  0  0  0  0  0
   -0.4557    1.8728   -2.8088 O   0  0  0  0  0  0  0  0  0  0  0  0
    0.6664   -0.1450    1.5428 C   0  0  0  0  0  0  0  0  0  0  0  0
    1.8485   -0.3724    1.8265 O   0  0  0  0  0  0  0  0  0  0  0  0
   -0.2161    0.2434    2.4686 N   0  0  0  0  0  0  0  0  0  0  0  0
   -1.1850    0.3219    2.1537 H   0  0  0  0  0  0  0  0  0  0  0  0
    0.0735    0.4128    3.8885 C   0  0  0  0  0  0  0  0  0  0  0  0
    1.0159    0.9483    4.0105 H   0  0  0  0  0  0  0  0  0  0  0  0
   -0.7315    0.9748    4.3613 H   0  0  0  0  0  0  0  0  0  0  0  0
    0.1564   -0.5677    4.3577 H   0  0  0  0  0  0  0  0  0  0  0  0
  5  6  2  0  0  0  0
  5  7  1  0  0  0  0
  2  3  1  0  0  0  0
  2  4  1  0  0  0  0
  2  5  1  0  0  0  0
  1  2  1  0  0  0  0
 17 18  2  0  0  0  0
 17 19  1  0  0  0  0
 14 15  1  0  0  0  0
 14 16  2  0  0  0  0
 11 12  1  0  0  0  0
 11 13  1  0  0  0  0
 11 14  1  0  0  0  0
  9 10  1  0  0  0  0
  9 11  1  0  0  0  0
  9 17  1  0  0  0  0
  7  8  1  0  0  0  0
  7  9  1  0  0  0  0
 21 22  1  0  0  0  0
 21 23  1  0  0  0  0
 21 24  1  0  0  0  0
 19 20  1  0  0  0  0
 19 21  1  0  0  0  0
M  CHG  1  15  -1
M  END
$$$$
default_name
  -OEChem-02102213163D

 24 23  0     1  0  0  0  0  0999 V2000
   -2.8347   -3.7166    0.8034 H   0  0  0  0  0  0  0  0  0  0  0  0
   -2.7728   -2.7096    0.3954 C   0  0  0  0  0  0  0  0  0  0  0  0
   -3.4267   -2.0426    0.9524 H   0  0  0  0  0  0  0  0  0  0  0  0
   -3.0538   -2.7186   -0.6556 H   0  0  0  0  0  0  0  0  0  0  0  0
   -1.3498   -2.2206    0.5184 C   0  0  0  0  0  0  0  0  0  0  0  0
   -0.4997   -2.9426    1.0194 O   0  0  0  0  0  0  0  0  0  0  0  0
   -1.1198   -0.9926    0.0674 N   0  0  0  0  0  0  0  0  0  0  0  0
   -1.8978   -0.4486   -0.2716 H   0  0  0  0  0  0  0  0  0  0  0  0
    0.1693   -0.2866    0.0854 C   0  0  1  0  0  0  0  0  0  0  0  0
    0.9043   -0.8713   -0.4705 H   0  0  0  0  0  0  0  0  0  0  0  0
    0.0106    1.0816   -0.6124 C   0  0  0  0  0  0  0  0  0  0  0  0
   -0.5190    1.7586    0.0602 H   0  0  0  0  0  0  0  0  0  0  0  0
    1.0025    1.5012   -0.7940 H   0  0  0  0  0  0  0  0  0  0  0  0
   -0.7703    1.0361   -1.9352 C   0  0  0  0  0  0  0  0  0  0  0  0
   -1.8314    0.3702   -1.9818 O   0  5  0  0  0  0  0  0  0  0  0  0
   -0.2831    1.6587   -2.9032 O   0  0  0  0  0  0  0  0  0  0  0  0
    0.6664   -0.1450    1.5428 C   0  0  0  0  0  0  0  0  0  0  0  0
    1.8485   -0.3724    1.8265 O   0  0  0  0  0  0  0  0  0  0  0  0
   -0.2161    0.2434    2.4686 N   0  0  0  0  0  0  0  0  0  0  0  0
   -1.1850    0.3219    2.1537 H   0  0  0  0  0  0  0  0  0  0  0  0
    0.0735    0.4128    3.8885 C   0  0  0  0  0  0  0  0  0  0  0  0
    1.0159    0.9483    4.0105 H   0  0  0  0  0  0  0  0  0  0  0  0
   -0.7315    0.9748    4.3613 H   0  0  0  0  0  0  0  0  0  0  0  0
    0.1564   -0.5677    4.3577 H   0  0  0  0  0  0  0  0  0  0  0  0
  5  6  2  0  0  0  0
  5  7  1  0  0  0  0
  2  3  1  0  0  0  0
  2  4  1  0  0  0  0
  2  5  1  0  0  0  0
  1  2  1  0  0  0  0
 17 18  2  0  0  0  0
 17 19  1  0  0  0  0
 14 15  1  0  0  0  0
 14 16  2  0  0  0  0
 11 12  1  0  0  0  0
 11 13  1  0  0  0  0
 11 14  1  0  0  0  0
  9 10  1  0  0  0  0
  9 11  1  0  0  0  0
  9 17  1  0  0  0  0
  7  8  1  0  0  0  0
  7  9  1  0  0  0  0
 21 22  1  0  0  0  0
 21 23  1  0  0  0  0
 21 24  1  0  0  0  0
 19 20  1  0  0  0  0
 19 21  1  0  0  0  0
M  CHG  1  15  -1
M  END
$$$$
default_name
  -OEChem-02102213163D

 24 23  0     1  0  0  0  0  0999 V2000
   -2.8347   -3.7166    0.8034 H   0  0  0  0  0  0  0  0  0  0  0  0
   -2.7728   -2.7096    0.3954 C   0  0  0  0  0  0  0  0  0  0  0  0
   -3.4267   -2.0426    0.9524 H   0  0  0  0  0  0  0  0  0  0  0  0
   -3.0538   -2.7186   -0.6556 H   0  0  0  0  0  0  0  0  0  0  0  0
   -1.3498   -2.2206    0.5184 C   0  0  0  0  0  0  0  0  0  0  0  0
   -0.4997   -2.9426    1.0194 O   0  0  0  0  0  0  0  0  0  0  0  0
   -1.1198   -0.9926    0.0674 N   0  0  0  0  0  0  0  0  0  0  0  0
   -1.8978   -0.4486   -0.2716 H   0  0  0  0  0  0  0  0  0  0  0  0
    0.1693   -0.2866    0.0854 C   0  0  1  0  0  0  0  0  0  0  0  0
    0.9043   -0.8713   -0.4705 H   0  0  0  0  0  0  0  0  0  0  0  0
    0.0106    1.0816   -0.6124 C   0  0  0  0  0  0  0  0  0  0  0  0
   -0.5190    1.7586    0.0602 H   0  0  0  0  0  0  0  0  0  0  0  0
    1.0025    1.5012   -0.7940 H   0  0  0  0  0  0  0  0  0  0  0  0
   -0.7703    1.0361   -1.9352 C   0  0  0  0  0  0  0  0  0  0  0  0
   -1.9536    0.6226   -1.9183 O   0  5  0  0  0  0  0  0  0  0  0  0
   -0.1634    1.4011   -2.9650 O   0  0  0  0  0  0  0  0  0  0  0  0
    0.6664   -0.1450    1.5428 C   0  0  0  0  0  0  0  0  0  0  0  0
    1.8485   -0.3724    1.8265 O   0  0  0  0  0  0  0  0  0  0  0  0
   -0.2161    0.2434    2.4686 N   0  0  0  0  0  0  0  0  0  0  0  0
   -1.1850    0.3219    2.1537 H   0  0  0  0  0  0  0  0  0  0  0  0
    0.0735    0.4128    3.8885 C   0  0  0  0  0  0  0  0  0  0  0  0
    1.0159    0.9483    4.0105 H   0  0  0  0  0  0  0  0  0  0  0  0
   -0.7315    0.9748    4.3613 H   0  0  0  0  0  0  0  0  0  0  0  0
    0.1564   -0.5677    4.3577 H   0  0  0  0  0  0  0  0  0  0  0  0
  5  6  2  0  0  0  0
  5  7  1  0  0  0  0
  2  3  1  0  0  0  0
  2  4  1  0  0  0  0
  2  5  1  0  0  0  0
  1  2  1  0  0  0  0
 17 18  2  0  0  0  0
 17 19  1  0  0  0  0
 14 15  1  0  0  0  0
 14 16  2  0  0  0  0
 11 12  1  0  0  0  0
 11 13  1  0  0  0  0
 11 14  1  0  0  0  0
  9 10  1  0  0  0  0
  9 11  1  0  0  0  0
  9 17  1  0  0  0  0
  7  8  1  0  0  0  0
  7  9  1  0  0  0  0
 21 22  1  0  0  0  0
 21 23  1  0  0  0  0
 21 24  1  0  0  0  0
 19 20  1  0  0  0  0
 19 21  1  0  0  0  0
M  CHG  1  15  -1
M  END
$$$$
default_name
  -OEChem-02102213163D

 24 23  0     1  0  0  0  0  0999 V2000
   -2.8347   -3.7166    0.8034 H   0  0  0  0  0  0  0  0  0  0  0  0
   -2.7728   -2.7096    0.3954 C   0  0  0  0  0  0  0  0  0  0  0  0
   -3.4267   -2.0426    0.9524 H   0  0  0  0  0  0  0  0  0  0  0  0
   -3.0538   -2.7186   -0.6556 H   0  0  0  0  0  0  0  0  0  0  0  0
   -1.3498   -2.2206    0.5184 C   0  0  0  0  0  0  0  0  0  0  0  0
   -0.4997   -2.9426    1.0194 O   0  0  0  0  0  0  0  0  0  0  0  0
   -1.1198   -0.9926    0.0674 N   0  0  0  0  0  0  0  0  0  0  0  0
   -1.8978   -0.4486   -0.2716 H   0  0  0  0  0  0  0  0  0  0  0  0
    0.1693   -0.2866    0.0854 C   0  0  1  0  0  0  0  0  0  0  0  0
    0.9043   -0.8713   -0.4705 H   0  0  0  0  0  0  0  0  0  0  0  0
    0.0106    1.0816   -0.6124 C   0  0  0  0  0  0  0  0  0  0  0  0
   -0.5190    1.7586    0.0602 H   0  0  0  0  0  0  0  0  0  0  0  0
    1.0025    1.5012   -0.7940 H   0  0  0  0  0  0  0  0  0  0  0  0
   -0.7703    1.0361   -1.9352 C   0  0  0  0  0  0  0  0  0  0  0  0
   -2.0159    0.9019   -1.8912 O   0  5  0  0  0  0  0  0  0  0  0  0
   -0.1047    1.1174   -2.9899 O   0  0  0  0  0  0  0  0  0  0  0  0
    0.6664   -0.1450    1.5428 C   0  0  0  0  0  0  0  0  0  0  0  0
    1.8485   -0.3724    1.8265 O   0  0  0  0  0  0  0  0  0  0  0  0
   -0.2161    0.2434    2.4686 N   0  0  0  0  0  0  0  0  0  0  0  0
   -1.1850    0.3219    2.1537 H   0  0  0  0  0  0  0  0  0  0  0  0
    0.0735    0.4128    3.8885 C   0  0  0  0  0  0  0  0  0  0  0  0
    1.0159    0.9483    4.0105 H   0  0  0  0  0  0  0  0  0  0  0  0
   -0.7315    0.9748    4.3613 H   0  0  0  0  0  0  0  0  0  0  0  0
    0.1564   -0.5677    4.3577 H   0  0  0  0  0  0  0  0  0  0  0  0
  5  6  2  0  0  0  0
  5  7  1  0  0  0  0
  2  3  1  0  0  0  0
  2  4  1  0  0  0  0
  2  5  1  0  0  0  0
  1  2  1  0  0  0  0
 17 18  2  0  0  0  0
 17 19  1  0  0  0  0
 14 15  1  0  0  0  0
 14 16  2  0  0  0  0
 11 12  1  0  0  0  0
 11 13  1  0  0  0  0
 11 14  1  0  0  0  0
  9 10  1  0  0  0  0
  9 11  1  0  0  0  0
  9 17  1  0  0  0  0
  7  8  1  0  0  0  0
  7  9  1  0  0  0  0
 21 22  1  0  0  0  0
 21 23  1  0  0  0  0
 21 24  1  0  0  0  0
 19 20  1  0  0  0  0
 19 21  1  0  0  0  0
M  CHG  1  15  -1
M  END
$$$$
default_name
  -OEChem-02102213163D

 24 23  0     1  0  0  0  0  0999 V2000
   -2.8347   -3.7166    0.8034 H   0  0  0  0  0  0  0  0  0  0  0  0
   -2.7728   -2.7096    0.3954 C   0  0  0  0  0  0  0  0  0  0  0  0
   -3.4267   -2.0426    0.9524 H   0  0  0  0  0  0  0  0  0  0  0  0
   -3.0538   -2.7186   -0.6556 H   0  0  0  0  0  0  0  0  0  0  0  0
   -1.3498   -2.2206    0.5184 C   0  0  0  0  0  0  0  0  0  0  0  0
   -0.4997   -2.9426    1.0194 O   0  0  0  0  0  0  0  0  0  0  0  0
   -1.1198   -0.9926    0.0674 N   0  0  0  0  0  0  0  0  0  0  0  0
   -1.8978   -0.4486   -0.2716 H   0  0  0  0  0  0  0  0  0  0  0  0
    0.1693   -0.2866    0.0854 C   0  0  1  0  0  0  0  0  0  0  0  0
    0.9043   -0.8713   -0.4705 H   0  0  0  0  0  0  0  0  0  0  0  0
    0.0106    1.0816   -0.6124 C   0  0  0  0  0  0  0  0  0  0  0  0
   -0.5190    1.7586    0.0602 H   0  0  0  0  0  0  0  0  0  0  0  0
    1.0025    1.5012   -0.7940 H   0  0  0  0  0  0  0  0  0  0  0  0
   -0.7703    1.0361   -1.9352 C   0  0  0  0  0  0  0  0  0  0  0  0
   -2.0141    1.1892   -1.9022 O   0  5  0  0  0  0  0  0  0  0  0  0
   -0.1110    0.8271   -2.9762 O   0  0  0  0  0  0  0  0  0  0  0  0
    0.6664   -0.1450    1.5428 C   0  0  0  0  0  0  0  0  0  0  0  0
    1.8485   -0.3724    1.8265 O   0  0  0  0  0  0  0  0  0  0  0  0
   -0.2161    0.2434    2.4686 N   0  0  0  0  0  0  0  0  0  0  0  0
   -1.1850    0.3219    2.1537 H   0  0  0  0  0  0  0  0  0  0  0  0
    0.0735    0.4128    3.8885 C   0  0  0  0  0  0  0  0  0  0  0  0
    1.0159    0.9483    4.0105 H   0  0  0  0  0  0  0  0  0  0  0  0
   -0.7315    0.9748    4.3613 H   0  0  0  0  0  0  0  0  0  0  0  0
    0.1564   -0.5677    4.3577 H   0  0  0  0  0  0  0  0  0  0  0  0
  5  6  2  0  0  0  0
  5  7  1  0  0  0  0
  2  3  1  0  0  0  0
  2  4  1  0  0  0  0
  2  5  1  0  0  0  0
  1  2  1  0  0  0  0
 17 18  2  0  0  0  0
 17 19  1  0  0  0  0
 14 15  1  0  0  0  0
 14 16  2  0  0  0  0
 11 12  1  0  0  0  0
 11 13  1  0  0  0  0
 11 14  1  0  0  0  0
  9 10  1  0  0  0  0
  9 11  1  0  0  0  0
  9 17  1  0  0  0  0
  7  8  1  0  0  0  0
  7  9  1  0  0  0  0
 21 22  1  0  0  0  0
 21 23  1  0  0  0  0
 21 24  1  0  0  0  0
 19 20  1  0  0  0  0
 19 21  1  0  0  0  0
M  CHG  1  15  -1
M  END
$$$$
default_name
  -OEChem-02102213163D

 24 23  0     1  0  0  0  0  0999 V2000
   -2.8347   -3.7166    0.8034 H   0  0  0  0  0  0  0  0  0  0  0  0
   -2.7728   -2.7096    0.3954 C   0  0  0  0  0  0  0  0  0  0  0  0
   -3.4267   -2.0426    0.9524 H   0  0  0  0  0  0  0  0  0  0  0  0
   -3.0538   -2.7186   -0.6556 H   0  0  0  0  0  0  0  0  0  0  0  0
   -1.3498   -2.2206    0.5184 C   0  0  0  0  0  0  0  0  0  0  0  0
   -0.4997   -2.9426    1.0194 O   0  0  0  0  0  0  0  0  0  0  0  0
   -1.1198   -0.9926    0.0674 N   0  0  0  0  0  0  0  0  0  0  0  0
   -1.8978   -0.4486   -0.2716 H   0  0  0  0  0  0  0  0  0  0  0  0
    0.1693   -0.2866    0.0854 C   0  0  1  0  0  0  0  0  0  0  0  0
    0.9043   -0.8713   -0.4705 H   0  0  0  0  0  0  0  0  0  0  0  0
    0.0106    1.0816   -0.6124 C   0  0  0  0  0  0  0  0  0  0  0  0
   -0.5190    1.7586    0.0602 H   0  0  0  0  0  0  0  0  0  0  0  0
    1.0025    1.5012   -0.7940 H   0  0  0  0  0  0  0  0  0  0  0  0
   -0.7703    1.0361   -1.9352 C   0  0  0  0  0  0  0  0  0  0  0  0
   -1.9482    1.4648   -1.9506 O   0  5  0  0  0  0  0  0  0  0  0  0
   -0.1818    0.5499   -2.9249 O   0  0  0  0  0  0  0  0  0  0  0  0
    0.6664   -0.1450    1.5428 C   0  0  0  0  0  0  0  0  0  0  0  0
    1.8485   -0.3724    1.8265 O   0  0  0  0  0  0  0  0  0  0  0  0
   -0.2161    0.2434    2.4686 N   0  0  0  0  0  0  0  0  0  0  0  0
   -1.1850    0.3219    2.1537 H   0  0  0  0  0  0  0  0  0  0  0  0
    0.0735    0.4128    3.8885 C   0  0  0  0  0  0  0  0  0  0  0  0
    1.0159    0.9483    4.0105 H   0  0  0  0  0  0  0  0  0  0  0  0
   -0.7315    0.9748    4.3613 H   0  0  0  0  0  0  0  0  0  0  0  0
    0.1564   -0.5677    4.3577 H   0  0  0  0  0  0  0  0  0  0  0  0
  5  6  2  0  0  0  0
  5  7  1  0  0  0  0
  2  3  1  0  0  0  0
  2  4  1  0  0  0  0
  2  5  1  0  0  0  0
  1  2  1  0  0  0  0
 17 18  2  0  0  0  0
 17 19  1  0  0  0  0
 14 15  1  0  0  0  0
 14 16  2  0  0  0  0
 11 12  1  0  0  0  0
 11 13  1  0  0  0  0
 11 14  1  0  0  0  0
  9 10  1  0  0  0  0
  9 11  1  0  0  0  0
  9 17  1  0  0  0  0
  7  8  1  0  0  0  0
  7  9  1  0  0  0  0
 21 22  1  0  0  0  0
 21 23  1  0  0  0  0
 21 24  1  0  0  0  0
 19 20  1  0  0  0  0
 19 21  1  0  0  0  0
M  CHG  1  15  -1
M  END
$$$$
default_name
  -OEChem-02102213163D

 24 23  0     1  0  0  0  0  0999 V2000
   -2.8347   -3.7166    0.8034 H   0  0  0  0  0  0  0  0  0  0  0  0
   -2.7728   -2.7096    0.3954 C   0  0  0  0  0  0  0  0  0  0  0  0
   -3.4267   -2.0426    0.9524 H   0  0  0  0  0  0  0  0  0  0  0  0
   -3.0538   -2.7186   -0.6556 H   0  0  0  0  0  0  0  0  0  0  0  0
   -1.3498   -2.2206    0.5184 C   0  0  0  0  0  0  0  0  0  0  0  0
   -0.4997   -2.9426    1.0194 O   0  0  0  0  0  0  0  0  0  0  0  0
   -1.1198   -0.9926    0.0674 N   0  0  0  0  0  0  0  0  0  0  0  0
   -1.8978   -0.4486   -0.2716 H   0  0  0  0  0  0  0  0  0  0  0  0
    0.1693   -0.2866    0.0854 C   0  0  1  0  0  0  0  0  0  0  0  0
    0.9043   -0.8713   -0.4705 H   0  0  0  0  0  0  0  0  0  0  0  0
    0.0106    1.0816   -0.6124 C   0  0  0  0  0  0  0  0  0  0  0  0
   -0.5190    1.7586    0.0602 H   0  0  0  0  0  0  0  0  0  0  0  0
    1.0025    1.5012   -0.7940 H   0  0  0  0  0  0  0  0  0  0  0  0
   -0.7703    1.0361   -1.9352 C   0  0  0  0  0  0  0  0  0  0  0  0
   -1.8228    1.7100   -2.0330 O   0  5  0  0  0  0  0  0  0  0  0  0
   -0.3124    0.3046   -2.8393 O   0  0  0  0  0  0  0  0  0  0  0  0
    0.6664   -0.1450    1.5428 C   0  0  0  0  0  0  0  0  0  0  0  0
    1.8485   -0.3724    1.8265 O   0  0  0  0  0  0  0  0  0  0  0  0
   -0.2161    0.2434    2.4686 N   0  0  0  0  0  0  0  0  0  0  0  0
   -1.1850    0.3219    2.1537 H   0  0  0  0  0  0  0  0  0  0  0  0
    0.0735    0.4128    3.8885 C   0  0  0  0  0  0  0  0  0  0  0  0
    1.0159    0.9483    4.0105 H   0  0  0  0  0  0  0  0  0  0  0  0
   -0.7315    0.9748    4.3613 H   0  0  0  0  0  0  0  0  0  0  0  0
    0.1564   -0.5677    4.3577 H   0  0  0  0  0  0  0  0  0  0  0  0
  5  6  2  0  0  0  0
  5  7  1  0  0  0  0
  2  3  1  0  0  0  0
  2  4  1  0  0  0  0
  2  5  1  0  0  0  0
  1  2  1  0  0  0  0
 17 18  2  0  0  0  0
 17 19  1  0  0  0  0
 14 15  1  0  0  0  0
 14 16  2  0  0  0  0
 11 12  1  0  0  0  0
 11 13  1  0  0  0  0
 11 14  1  0  0  0  0
  9 10  1  0  0  0  0
  9 11  1  0  0  0  0
  9 17  1  0  0  0  0
  7  8  1  0  0  0  0
  7  9  1  0  0  0  0
 21 22  1  0  0  0  0
 21 23  1  0  0  0  0
 21 24  1  0  0  0  0
 19 20  1  0  0  0  0
 19 21  1  0  0  0  0
M  CHG  1  15  -1
M  END
$$$$
default_name
  -OEChem-02102213163D

 24 23  0     1  0  0  0  0  0999 V2000
   -2.8347   -3.7166    0.8034 H   0  0  0  0  0  0  0  0  0  0  0  0
   -2.7728   -2.7096    0.3954 C   0  0  0  0  0  0  0  0  0  0  0  0
   -3.4267   -2.0426    0.9524 H   0  0  0  0  0  0  0  0  0  0  0  0
   -3.0538   -2.7186   -0.6556 H   0  0  0  0  0  0  0  0  0  0  0  0
   -1.3498   -2.2206    0.5184 C   0  0  0  0  0  0  0  0  0  0  0  0
   -0.4997   -2.9426    1.0194 O   0  0  0  0  0  0  0  0  0  0  0  0
   -1.1198   -0.9926    0.0674 N   0  0  0  0  0  0  0  0  0  0  0  0
   -1.8978   -0.4486   -0.2716 H   0  0  0  0  0  0  0  0  0  0  0  0
    0.1693   -0.2866    0.0854 C   0  0  1  0  0  0  0  0  0  0  0  0
    0.9043   -0.8713   -0.4705 H   0  0  0  0  0  0  0  0  0  0  0  0
    0.0106    1.0816   -0.6124 C   0  0  0  0  0  0  0  0  0  0  0  0
   -0.5190    1.7586    0.0602 H   0  0  0  0  0  0  0  0  0  0  0  0
    1.0025    1.5012   -0.7940 H   0  0  0  0  0  0  0  0  0  0  0  0
   -0.7703    1.0361   -1.9352 C   0  0  0  0  0  0  0  0  0  0  0  0
   -1.6464    1.9080   -2.1440 O   0  5  0  0  0  0  0  0  0  0  0  0
   -0.4938    0.1080   -2.7254 O   0  0  0  0  0  0  0  0  0  0  0  0
    0.6664   -0.1450    1.5428 C   0  0  0  0  0  0  0  0  0  0  0  0
    1.8485   -0.3724    1.8265 O   0  0  0  0  0  0  0  0  0  0  0  0
   -0.2161    0.2434    2.4686 N   0  0  0  0  0  0  0  0  0  0  0  0
   -1.1850    0.3219    2.1537 H   0  0  0  0  0  0  0  0  0  0  0  0
    0.0735    0.4128    3.8885 C   0  0  0  0  0  0  0  0  0  0  0  0
    1.0159    0.9483    4.0105 H   0  0  0  0  0  0  0  0  0  0  0  0
   -0.7315    0.9748    4.3613 H   0  0  0  0  0  0  0  0  0  0  0  0
    0.1564   -0.5677    4.3577 H   0  0  0  0  0  0  0  0  0  0  0  0
  5  6  2  0  0  0  0
  5  7  1  0  0  0  0
  2  3  1  0  0  0  0
  2  4  1  0  0  0  0
  2  5  1  0  0  0  0
  1  2  1  0  0  0  0
 17 18  2  0  0  0  0
 17 19  1  0  0  0  0
 14 15  1  0  0  0  0
 14 16  2  0  0  0  0
 11 12  1  0  0  0  0
 11 13  1  0  0  0  0
 11 14  1  0  0  0  0
  9 10  1  0  0  0  0
  9 11  1  0  0  0  0
  9 17  1  0  0  0  0
  7  8  1  0  0  0  0
  7  9  1  0  0  0  0
 21 22  1  0  0  0  0
 21 23  1  0  0  0  0
 21 24  1  0  0  0  0
 19 20  1  0  0  0  0
 19 21  1  0  0  0  0
M  CHG  1  15  -1
M  END
$$$$
default_name
  -OEChem-02102213163D

 24 23  0     1  0  0  0  0  0999 V2000
   -2.8347   -3.7166    0.8034 H   0  0  0  0  0  0  0  0  0  0  0  0
   -2.7728   -2.7096    0.3954 C   0  0  0  0  0  0  0  0  0  0  0  0
   -3.4267   -2.0426    0.9524 H   0  0  0  0  0  0  0  0  0  0  0  0
   -3.0538   -2.7186   -0.6556 H   0  0  0  0  0  0  0  0  0  0  0  0
   -1.3498   -2.2206    0.5184 C   0  0  0  0  0  0  0  0  0  0  0  0
   -0.4997   -2.9426    1.0194 O   0  0  0  0  0  0  0  0  0  0  0  0
   -1.1198   -0.9926    0.0674 N   0  0  0  0  0  0  0  0  0  0  0  0
   -1.8978   -0.4486   -0.2716 H   0  0  0  0  0  0  0  0  0  0  0  0
    0.1693   -0.2866    0.0854 C   0  0  1  0  0  0  0  0  0  0  0  0
    0.9043   -0.8713   -0.4705 H   0  0  0  0  0  0  0  0  0  0  0  0
    0.0106    1.0816   -0.6124 C   0  0  0  0  0  0  0  0  0  0  0  0
   -0.5190    1.7586    0.0602 H   0  0  0  0  0  0  0  0  0  0  0  0
    1.0025    1.5012   -0.7940 H   0  0  0  0  0  0  0  0  0  0  0  0
   -0.7703    1.0361   -1.9352 C   0  0  0  0  0  0  0  0  0  0  0  0
   -1.4311    2.0455   -2.2758 O   0  5  0  0  0  0  0  0  0  0  0  0
   -0.7138   -0.0264   -2.5910 O   0  0  0  0  0  0  0  0  0  0  0  0
    0.6664   -0.1450    1.5428 C   0  0  0  0  0  0  0  0  0  0  0  0
    1.8485   -0.3724    1.8265 O   0  0  0  0  0  0  0  0  0  0  0  0
   -0.2161    0.2434    2.4686 N   0  0  0  0  0  0  0  0  0  0  0  0
   -1.1850    0.3219    2.1537 H   0  0  0  0  0  0  0  0  0  0  0  0
    0.0735    0.4128    3.8885 C   0  0  0  0  0  0  0  0  0  0  0  0
    1.0159    0.9483    4.0105 H   0  0  0  0  0  0  0  0  0  0  0  0
   -0.7315    0.9748    4.3613 H   0  0  0  0  0  0  0  0  0  0  0  0
    0.1564   -0.5677    4.3577 H   0  0  0  0  0  0  0  0  0  0  0  0
  5  6  2  0  0  0  0
  5  7  1  0  0  0  0
  2  3  1  0  0  0  0
  2  4  1  0  0  0  0
  2  5  1  0  0  0  0
  1  2  1  0  0  0  0
 17 18  2  0  0  0  0
 17 19  1  0  0  0  0
 14 15  1  0  0  0  0
 14 16  2  0  0  0  0
 11 12  1  0  0  0  0
 11 13  1  0  0  0  0
 11 14  1  0  0  0  0
  9 10  1  0  0  0  0
  9 11  1  0  0  0  0
  9 17  1  0  0  0  0
  7  8  1  0  0  0  0
  7  9  1  0  0  0  0
 21 22  1  0  0  0  0
 21 23  1  0  0  0  0
 21 24  1  0  0  0  0
 19 20  1  0  0  0  0
 19 21  1  0  0  0  0
M  CHG  1  15  -1
M  END
$$$$
default_name
  -OEChem-02102213163D

 24 23  0     1  0  0  0  0  0999 V2000
   -2.8347   -3.7166    0.8034 H   0  0  0  0  0  0  0  0  0  0  0  0
   -2.7728   -2.7096    0.3954 C   0  0  0  0  0  0  0  0  0  0  0  0
   -3.4267   -2.0426    0.9524 H   0  0  0  0  0  0  0  0  0  0  0  0
   -3.0538   -2.7186   -0.6556 H   0  0  0  0  0  0  0  0  0  0  0  0
   -1.3498   -2.2206    0.5184 C   0  0  0  0  0  0  0  0  0  0  0  0
   -0.4997   -2.9426    1.0194 O   0  0  0  0  0  0  0  0  0  0  0  0
   -1.1198   -0.9926    0.0674 N   0  0  0  0  0  0  0  0  0  0  0  0
   -1.8978   -0.4486   -0.2716 H   0  0  0  0  0  0  0  0  0  0  0  0
    0.1693   -0.2866    0.0854 C   0  0  1  0  0  0  0  0  0  0  0  0
    0.9043   -0.8713   -0.4705 H   0  0  0  0  0  0  0  0  0  0  0  0
    0.0106    1.0816   -0.6124 C   0  0  0  0  0  0  0  0  0  0  0  0
   -0.5190    1.7586    0.0602 H   0  0  0  0  0  0  0  0  0  0  0  0
    1.0025    1.5012   -0.7940 H   0  0  0  0  0  0  0  0  0  0  0  0
   -0.7703    1.0361   -1.9352 C   0  0  0  0  0  0  0  0  0  0  0  0
   -1.1915    2.1129   -2.4196 O   0  5  0  0  0  0  0  0  0  0  0  0
   -0.9572   -0.0896   -2.4451 O   0  0  0  0  0  0  0  0  0  0  0  0
    0.6664   -0.1450    1.5428 C   0  0  0  0  0  0  0  0  0  0  0  0
    1.8485   -0.3724    1.8265 O   0  0  0  0  0  0  0  0  0  0  0  0
   -0.2161    0.2434    2.4686 N   0  0  0  0  0  0  0  0  0  0  0  0
   -1.1850    0.3219    2.1537 H   0  0  0  0  0  0  0  0  0  0  0  0
    0.0735    0.4128    3.8885 C   0  0  0  0  0  0  0  0  0  0  0  0
    1.0159    0.9483    4.0105 H   0  0  0  0  0  0  0  0  0  0  0  0
   -0.7315    0.9748    4.3613 H   0  0  0  0  0  0  0  0  0  0  0  0
    0.1564   -0.5677    4.3577 H   0  0  0  0  0  0  0  0  0  0  0  0
  5  6  2  0  0  0  0
  5  7  1  0  0  0  0
  2  3  1  0  0  0  0
  2  4  1  0  0  0  0
  2  5  1  0  0  0  0
  1  2  1  0  0  0  0
 17 18  2  0  0  0  0
 17 19  1  0  0  0  0
 14 15  1  0  0  0  0
 14 16  2  0  0  0  0
 11 12  1  0  0  0  0
 11 13  1  0  0  0  0
 11 14  1  0  0  0  0
  9 10  1  0  0  0  0
  9 11  1  0  0  0  0
  9 17  1  0  0  0  0
  7  8  1  0  0  0  0
  7  9  1  0  0  0  0
 21 22  1  0  0  0  0
 21 23  1  0  0  0  0
 21 24  1  0  0  0  0
 19 20  1  0  0  0  0
 19 21  1  0  0  0  0
M  CHG  1  15  -1
M  END
$$$$
default_name
  -OEChem-02102213163D

 24 23  0     1  0  0  0  0  0999 V2000
   -2.8347   -3.7166    0.8034 H   0  0  0  0  0  0  0  0  0  0  0  0
   -2.7728   -2.7096    0.3954 C   0  0  0  0  0  0  0  0  0  0  0  0
   -3.4267   -2.0426    0.9524 H   0  0  0  0  0  0  0  0  0  0  0  0
   -3.0538   -2.7186   -0.6556 H   0  0  0  0  0  0  0  0  0  0  0  0
   -1.3498   -2.2206    0.5184 C   0  0  0  0  0  0  0  0  0  0  0  0
   -0.4997   -2.9426    1.0194 O   0  0  0  0  0  0  0  0  0  0  0  0
   -1.1198   -0.9926    0.0674 N   0  0  0  0  0  0  0  0  0  0  0  0
   -1.8978   -0.4486   -0.2716 H   0  0  0  0  0  0  0  0  0  0  0  0
    0.1693   -0.2866    0.0854 C   0  0  1  0  0  0  0  0  0  0  0  0
    0.9043   -0.8713   -0.4705 H   0  0  0  0  0  0  0  0  0  0  0  0
    0.0106    1.0816   -0.6124 C   0  0  0  0  0  0  0  0  0  0  0  0
   -0.2688    1.8259    0.1354 H   0  0  0  0  0  0  0  0  0  0  0  0
    0.9749    1.3767   -1.0319 H   0  0  0  0  0  0  0  0  0  0  0  0
   -1.0546    1.1130   -1.7196 C   0  0  0  0  0  0  0  0  0  0  0  0
   -1.2461    2.1875   -2.3364 O   0  5  0  0  0  0  0  0  0  0  0  0
   -1.6876    0.0556   -1.9280 O   0  0  0  0  0  0  0  0  0  0  0  0
    0.6664   -0.1450    1.5428 C   0  0  0  0  0  0  0  0  0  0  0  0
    1.8485   -0.3724    1.8265 O   0  0  0  0  0  0  0  0  0  0  0  0
   -0.2161    0.2434    2.4686 N   0  0  0  0  0  0  0  0  0  0  0  0
   -1.1850    0.3219    2.1537 H   0  0  0  0  0  0  0  0  0  0  0  0
    0.0735    0.4128    3.8885 C   0  0  0  0  0  0  0  0  0  0  0  0
    1.0159    0.9483    4.0105 H   0  0  0  0  0  0  0  0  0  0  0  0
   -0.7315    0.9748    4.3613 H   0  0  0  0  0  0  0  0  0  0  0  0
    0.1564   -0.5677    4.3577 H   0  0  0  0  0  0  0  0  0  0  0  0
  5  6  2  0  0  0  0
  5  7  1  0  0  0  0
  2  3  1  0  0  0  0
  2  4  1  0  0  0  0
  2  5  1  0  0  0  0
  1  2  1  0  0  0  0
 17 18  2  0  0  0  0
 17 19  1  0  0  0  0
 14 15  1  0  0  0  0
 14 16  2  0  0  0  0
 11 12  1  0  0  0  0
 11 13  1  0  0  0  0
 11 14  1  0  0  0  0
  9 10  1  0  0  0  0
  9 11  1  0  0  0  0
  9 17  1  0  0  0  0
  7  8  1  0  0  0  0
  7  9  1  0  0  0  0
 21 22  1  0  0  0  0
 21 23  1  0  0  0  0
 21 24  1  0  0  0  0
 19 20  1  0  0  0  0
 19 21  1  0  0  0  0
M  CHG  1  15  -1
M  END
$$$$
default_name
  -OEChem-02102213163D

 24 23  0     1  0  0  0  0  0999 V2000
   -2.8347   -3.7166    0.8034 H   0  0  0  0  0  0  0  0  0  0  0  0
   -2.7728   -2.7096    0.3954 C   0  0  0  0  0  0  0  0  0  0  0  0
   -3.4267   -2.0426    0.9524 H   0  0  0  0  0  0  0  0  0  0  0  0
   -3.0538   -2.7186   -0.6556 H   0  0  0  0  0  0  0  0  0  0  0  0
   -1.3498   -2.2206    0.5184 C   0  0  0  0  0  0  0  0  0  0  0  0
   -0.4997   -2.9426    1.0194 O   0  0  0  0  0  0  0  0  0  0  0  0
   -1.1198   -0.9926    0.0674 N   0  0  0  0  0  0  0  0  0  0  0  0
   -1.8978   -0.4486   -0.2716 H   0  0  0  0  0  0  0  0  0  0  0  0
    0.1693   -0.2866    0.0854 C   0  0  1  0  0  0  0  0  0  0  0  0
    0.9043   -0.8713   -0.4705 H   0  0  0  0  0  0  0  0  0  0  0  0
    0.0106    1.0816   -0.6124 C   0  0  0  0  0  0  0  0  0  0  0  0
   -0.2688    1.8259    0.1354 H   0  0  0  0  0  0  0  0  0  0  0  0
    0.9749    1.3767   -1.0319 H   0  0  0  0  0  0  0  0  0  0  0  0
   -1.0546    1.1130   -1.7196 C   0  0  0  0  0  0  0  0  0  0  0  0
   -1.0566    2.0764   -2.5218 O   0  5  0  0  0  0  0  0  0  0  0  0
   -1.8777    0.1727   -1.7418 O   0  0  0  0  0  0  0  0  0  0  0  0
    0.6664   -0.1450    1.5428 C   0  0  0  0  0  0  0  0  0  0  0  0
    1.8485   -0.3724    1.8265 O   0  0  0  0  0  0  0  0  0  0  0  0
   -0.2161    0.2434    2.4686 N   0  0  0  0  0  0  0  0  0  0  0  0
   -1.1850    0.3219    2.1537 H   0  0  0  0  0  0  0  0  0  0  0  0
    0.0735    0.4128    3.8885 C   0  0  0  0  0  0  0  0  0  0  0  0
    1.0159    0.9483    4.0105 H   0  0  0  0  0  0  0  0  0  0  0  0
   -0.7315    0.9748    4.3613 H   0  0  0  0  0  0  0  0  0  0  0  0
    0.1564   -0.5677    4.3577 H   0  0  0  0  0  0  0  0  0  0  0  0
  5  6  2  0  0  0  0
  5  7  1  0  0  0  0
  2  3  1  0  0  0  0
  2  4  1  0  0  0  0
  2  5  1  0  0  0  0
  1  2  1  0  0  0  0
 17 18  2  0  0  0  0
 17 19  1  0  0  0  0
 14 15  1  0  0  0  0
 14 16  2  0  0  0  0
 11 12  1  0  0  0  0
 11 13  1  0  0  0  0
 11 14  1  0  0  0  0
  9 10  1  0  0  0  0
  9 11  1  0  0  0  0
  9 17  1  0  0  0  0
  7  8  1  0  0  0  0
  7  9  1  0  0  0  0
 21 22  1  0  0  0  0
 21 23  1  0  0  0  0
 21 24  1  0  0  0  0
 19 20  1  0  0  0  0
 19 21  1  0  0  0  0
M  CHG  1  15  -1
M  END
$$$$
default_name
  -OEChem-02102213163D

 24 23  0     1  0  0  0  0  0999 V2000
   -2.8347   -3.7166    0.8034 H   0  0  0  0  0  0  0  0  0  0  0  0
   -2.7728   -2.7096    0.3954 C   0  0  0  0  0  0  0  0  0  0  0  0
   -3.4267   -2.0426    0.9524 H   0  0  0  0  0  0  0  0  0  0  0  0
   -3.0538   -2.7186   -0.6556 H   0  0  0  0  0  0  0  0  0  0  0  0
   -1.3498   -2.2206    0.5184 C   0  0  0  0  0  0  0  0  0  0  0  0
   -0.4997   -2.9426    1.0194 O   0  0  0  0  0  0  0  0  0  0  0  0
   -1.1198   -0.9926    0.0674 N   0  0  0  0  0  0  0  0  0  0  0  0
   -1.8978   -0.4486   -0.2716 H   0  0  0  0  0  0  0  0  0  0  0  0
    0.1693   -0.2866    0.0854 C   0  0  1  0  0  0  0  0  0  0  0  0
    0.9043   -0.8713   -0.4705 H   0  0  0  0  0  0  0  0  0  0  0  0
    0.0106    1.0816   -0.6124 C   0  0  0  0  0  0  0  0  0  0  0  0
   -0.2688    1.8259    0.1354 H   0  0  0  0  0  0  0  0  0  0  0  0
    0.9749    1.3767   -1.0319 H   0  0  0  0  0  0  0  0  0  0  0  0
   -1.0546    1.1130   -1.7196 C   0  0  0  0  0  0  0  0  0  0  0  0
   -0.8953    1.9004   -2.6820 O   0  5  0  0  0  0  0  0  0  0  0  0
   -2.0385    0.3547   -1.5819 O   0  0  0  0  0  0  0  0  0  0  0  0
    0.6664   -0.1450    1.5428 C   0  0  0  0  0  0  0  0  0  0  0  0
    1.8485   -0.3724    1.8265 O   0  0  0  0  0  0  0  0  0  0  0  0
   -0.2161    0.2434    2.4686 N   0  0  0  0  0  0  0  0  0  0  0  0
   -1.1850    0.3219    2.1537 H   0  0  0  0  0  0  0  0  0  0  0  0
    0.0735    0.4128    3.8885 C   0  0  0  0  0  0  0  0  0  0  0  0
    1.0159    0.9483    4.0105 H   0  0  0  0  0  0  0  0  0  0  0  0
   -0.7315    0.9748    4.3613 H   0  0  0  0  0  0  0  0  0  0  0  0
    0.1564   -0.5677    4.3577 H   0  0  0  0  0  0  0  0  0  0  0  0
  5  6  2  0  0  0  0
  5  7  1  0  0  0  0
  2  3  1  0  0  0  0
  2  4  1  0  0  0  0
  2  5  1  0  0  0  0
  1  2  1  0  0  0  0
 17 18  2  0  0  0  0
 17 19  1  0  0  0  0
 14 15  1  0  0  0  0
 14 16  2  0  0  0  0
 11 12  1  0  0  0  0
 11 13  1  0  0  0  0
 11 14  1  0  0  0  0
  9 10  1  0  0  0  0
  9 11  1  0  0  0  0
  9 17  1  0  0  0  0
  7  8  1  0  0  0  0
  7  9  1  0  0  0  0
 21 22  1  0  0  0  0
 21 23  1  0  0  0  0
 21 24  1  0  0  0  0
 19 20  1  0  0  0  0
 19 21  1  0  0  0  0
M  CHG  1  15  -1
M  END
$$$$
default_name
  -OEChem-02102213163D

 24 23  0     1  0  0  0  0  0999 V2000
   -2.8347   -3.7166    0.8034 H   0  0  0  0  0  0  0  0  0  0  0  0
   -2.7728   -2.7096    0.3954 C   0  0  0  0  0  0  0  0  0  0  0  0
   -3.4267   -2.0426    0.9524 H   0  0  0  0  0  0  0  0  0  0  0  0
   -3.0538   -2.7186   -0.6556 H   0  0  0  0  0  0  0  0  0  0  0  0
   -1.3498   -2.2206    0.5184 C   0  0  0  0  0  0  0  0  0  0  0  0
   -0.4997   -2.9426    1.0194 O   0  0  0  0  0  0  0  0  0  0  0  0
   -1.1198   -0.9926    0.0674 N   0  0  0  0  0  0  0  0  0  0  0  0
   -1.8978   -0.4486   -0.2716 H   0  0  0  0  0  0  0  0  0  0  0  0
    0.1693   -0.2866    0.0854 C   0  0  1  0  0  0  0  0  0  0  0  0
    0.9043   -0.8713   -0.4705 H   0  0  0  0  0  0  0  0  0  0  0  0
    0.0106    1.0816   -0.6124 C   0  0  0  0  0  0  0  0  0  0  0  0
   -0.2688    1.8259    0.1354 H   0  0  0  0  0  0  0  0  0  0  0  0
    0.9749    1.3767   -1.0319 H   0  0  0  0  0  0  0  0  0  0  0  0
   -1.0546    1.1130   -1.7196 C   0  0  0  0  0  0  0  0  0  0  0  0
   -0.7731    1.6717   -2.8060 O   0  5  0  0  0  0  0  0  0  0  0  0
   -2.1591    0.5891   -1.4593 O   0  0  0  0  0  0  0  0  0  0  0  0
    0.6664   -0.1450    1.5428 C   0  0  0  0  0  0  0  0  0  0  0  0
    1.8485   -0.3724    1.8265 O   0  0  0  0  0  0  0  0  0  0  0  0
   -0.2161    0.2434    2.4686 N   0  0  0  0  0  0  0  0  0  0  0  0
   -1.1850    0.3219    2.1537 H   0  0  0  0  0  0  0  0  0  0  0  0
    0.0735    0.4128    3.8885 C   0  0  0  0  0  0  0  0  0  0  0  0
    1.0159    0.9483    4.0105 H   0  0  0  0  0  0  0  0  0  0  0  0
   -0.7315    0.9748    4.3613 H   0  0  0  0  0  0  0  0  0  0  0  0
    0.1564   -0.5677    4.3577 H   0  0  0  0  0  0  0  0  0  0  0  0
  5  6  2  0  0  0  0
  5  7  1  0  0  0  0
  2  3  1  0  0  0  0
  2  4  1  0  0  0  0
  2  5  1  0  0  0  0
  1  2  1  0  0  0  0
 17 18  2  0  0  0  0
 17 19  1  0  0  0  0
 14 15  1  0  0  0  0
 14 16  2  0  0  0  0
 11 12  1  0  0  0  0
 11 13  1  0  0  0  0
 11 14  1  0  0  0  0
  9 10  1  0  0  0  0
  9 11  1  0  0  0  0
  9 17  1  0  0  0  0
  7  8  1  0  0  0  0
  7  9  1  0  0  0  0
 21 22  1  0  0  0  0
 21 23  1  0  0  0  0
 21 24  1  0  0  0  0
 19 20  1  0  0  0  0
 19 21  1  0  0  0  0
M  CHG  1  15  -1
M  END
$$$$
default_name
  -OEChem-02102213163D

 24 23  0     1  0  0  0  0  0999 V2000
   -2.8347   -3.7166    0.8034 H   0  0  0  0  0  0  0  0  0  0  0  0
   -2.7728   -2.7096    0.3954 C   0  0  0  0  0  0  0  0  0  0  0  0
   -3.4267   -2.0426    0.9524 H   0  0  0  0  0  0  0  0  0  0  0  0
   -3.0538   -2.7186   -0.6556 H   0  0  0  0  0  0  0  0  0  0  0  0
   -1.3498   -2.2206    0.5184 C   0  0  0  0  0  0  0  0  0  0  0  0
   -0.4997   -2.9426    1.0194 O   0  0  0  0  0  0  0  0  0  0  0  0
   -1.1198   -0.9926    0.0674 N   0  0  0  0  0  0  0  0  0  0  0  0
   -1.8978   -0.4486   -0.2716 H   0  0  0  0  0  0  0  0  0  0  0  0
    0.1693   -0.2866    0.0854 C   0  0  1  0  0  0  0  0  0  0  0  0
    0.9043   -0.8713   -0.4705 H   0  0  0  0  0  0  0  0  0  0  0  0
    0.0106    1.0816   -0.6124 C   0  0  0  0  0  0  0  0  0  0  0  0
   -0.2688    1.8259    0.1354 H   0  0  0  0  0  0  0  0  0  0  0  0
    0.9749    1.3767   -1.0319 H   0  0  0  0  0  0  0  0  0  0  0  0
   -1.0546    1.1130   -1.7196 C   0  0  0  0  0  0  0  0  0  0  0  0
   -0.6984    1.4057   -2.8854 O   0  5  0  0  0  0  0  0  0  0  0  0
   -2.2312    0.8600   -1.3823 O   0  0  0  0  0  0  0  0  0  0  0  0
    0.6664   -0.1450    1.5428 C   0  0  0  0  0  0  0  0  0  0  0  0
    1.8485   -0.3724    1.8265 O   0  0  0  0  0  0  0  0  0  0  0  0
   -0.2161    0.2434    2.4686 N   0  0  0  0  0  0  0  0  0  0  0  0
   -1.1850    0.3219    2.1537 H   0  0  0  0  0  0  0  0  0  0  0  0
    0.0735    0.4128    3.8885 C   0  0  0  0  0  0  0  0  0  0  0  0
    1.0159    0.9483    4.0105 H   0  0  0  0  0  0  0  0  0  0  0  0
   -0.7315    0.9748    4.3613 H   0  0  0  0  0  0  0  0  0  0  0  0
    0.1564   -0.5677    4.3577 H   0  0  0  0  0  0  0  0  0  0  0  0
  5  6  2  0  0  0  0
  5  7  1  0  0  0  0
  2  3  1  0  0  0  0
  2  4  1  0  0  0  0
  2  5  1  0  0  0  0
  1  2  1  0  0  0  0
 17 18  2  0  0  0  0
 17 19  1  0  0  0  0
 14 15  1  0  0  0  0
 14 16  2  0  0  0  0
 11 12  1  0  0  0  0
 11 13  1  0  0  0  0
 11 14  1  0  0  0  0
  9 10  1  0  0  0  0
  9 11  1  0  0  0  0
  9 17  1  0  0  0  0
  7  8  1  0  0  0  0
  7  9  1  0  0  0  0
 21 22  1  0  0  0  0
 21 23  1  0  0  0  0
 21 24  1  0  0  0  0
 19 20  1  0  0  0  0
 19 21  1  0  0  0  0
M  CHG  1  15  -1
M  END
$$$$
default_name
  -OEChem-02102213163D

 24 23  0     1  0  0  0  0  0999 V2000
   -2.8347   -3.7166    0.8034 H   0  0  0  0  0  0  0  0  0  0  0  0
   -2.7728   -2.7096    0.3954 C   0  0  0  0  0  0  0  0  0  0  0  0
   -3.4267   -2.0426    0.9524 H   0  0  0  0  0  0  0  0  0  0  0  0
   -3.0538   -2.7186   -0.6556 H   0  0  0  0  0  0  0  0  0  0  0  0
   -1.3498   -2.2206    0.5184 C   0  0  0  0  0  0  0  0  0  0  0  0
   -0.4997   -2.9426    1.0194 O   0  0  0  0  0  0  0  0  0  0  0  0
   -1.1198   -0.9926    0.0674 N   0  0  0  0  0  0  0  0  0  0  0  0
   -1.8978   -0.4486   -0.2716 H   0  0  0  0  0  0  0  0  0  0  0  0
    0.1693   -0.2866    0.0854 C   0  0  1  0  0  0  0  0  0  0  0  0
    0.9043   -0.8713   -0.4705 H   0  0  0  0  0  0  0  0  0  0  0  0
    0.0106    1.0816   -0.6124 C   0  0  0  0  0  0  0  0  0  0  0  0
   -0.2688    1.8259    0.1354 H   0  0  0  0  0  0  0  0  0  0  0  0
    0.9749    1.3767   -1.0319 H   0  0  0  0  0  0  0  0  0  0  0  0
   -1.0546    1.1130   -1.7196 C   0  0  0  0  0  0  0  0  0  0  0  0
   -0.6762    1.1205   -2.9148 O   0  5  0  0  0  0  0  0  0  0  0  0
   -2.2499    1.1490   -1.3561 O   0  0  0  0  0  0  0  0  0  0  0  0
    0.6664   -0.1450    1.5428 C   0  0  0  0  0  0  0  0  0  0  0  0
    1.8485   -0.3724    1.8265 O   0  0  0  0  0  0  0  0  0  0  0  0
   -0.2161    0.2434    2.4686 N   0  0  0  0  0  0  0  0  0  0  0  0
   -1.1850    0.3219    2.1537 H   0  0  0  0  0  0  0  0  0  0  0  0
    0.0735    0.4128    3.8885 C   0  0  0  0  0  0  0  0  0  0  0  0
    1.0159    0.9483    4.0105 H   0  0  0  0  0  0  0  0  0  0  0  0
   -0.7315    0.9748    4.3613 H   0  0  0  0  0  0  0  0  0  0  0  0
    0.1564   -0.5677    4.3577 H   0  0  0  0  0  0  0  0  0  0  0  0
  5  6  2  0  0  0  0
  5  7  1  0  0  0  0
  2  3  1  0  0  0  0
  2  4  1  0  0  0  0
  2  5  1  0  0  0  0
  1  2  1  0  0  0  0
 17 18  2  0  0  0  0
 17 19  1  0  0  0  0
 14 15  1  0  0  0  0
 14 16  2  0  0  0  0
 11 12  1  0  0  0  0
 11 13  1  0  0  0  0
 11 14  1  0  0  0  0
  9 10  1  0  0  0  0
  9 11  1  0  0  0  0
  9 17  1  0  0  0  0
  7  8  1  0  0  0  0
  7  9  1  0  0  0  0
 21 22  1  0  0  0  0
 21 23  1  0  0  0  0
 21 24  1  0  0  0  0
 19 20  1  0  0  0  0
 19 21  1  0  0  0  0
M  CHG  1  15  -1
M  END
$$$$
default_name
  -OEChem-02102213163D

 24 23  0     1  0  0  0  0  0999 V2000
   -2.8347   -3.7166    0.8034 H   0  0  0  0  0  0  0  0  0  0  0  0
   -2.7728   -2.7096    0.3954 C   0  0  0  0  0  0  0  0  0  0  0  0
   -3.4267   -2.0426    0.9524 H   0  0  0  0  0  0  0  0  0  0  0  0
   -3.0538   -2.7186   -0.6556 H   0  0  0  0  0  0  0  0  0  0  0  0
   -1.3498   -2.2206    0.5184 C   0  0  0  0  0  0  0  0  0  0  0  0
   -0.4997   -2.9426    1.0194 O   0  0  0  0  0  0  0  0  0  0  0  0
   -1.1198   -0.9926    0.0674 N   0  0  0  0  0  0  0  0  0  0  0  0
   -1.8978   -0.4486   -0.2716 H   0  0  0  0  0  0  0  0  0  0  0  0
    0.1693   -0.2866    0.0854 C   0  0  1  0  0  0  0  0  0  0  0  0
    0.9043   -0.8713   -0.4705 H   0  0  0  0  0  0  0  0  0  0  0  0
    0.0106    1.0816   -0.6124 C   0  0  0  0  0  0  0  0  0  0  0  0
   -0.2688    1.8259    0.1354 H   0  0  0  0  0  0  0  0  0  0  0  0
    0.9749    1.3767   -1.0319 H   0  0  0  0  0  0  0  0  0  0  0  0
   -1.0546    1.1130   -1.7196 C   0  0  0  0  0  0  0  0  0  0  0  0
   -0.7082    0.8357   -2.8921 O   0  5  0  0  0  0  0  0  0  0  0  0
   -2.2139    1.4363   -1.3826 O   0  0  0  0  0  0  0  0  0  0  0  0
    0.6664   -0.1450    1.5428 C   0  0  0  0  0  0  0  0  0  0  0  0
    1.8485   -0.3724    1.8265 O   0  0  0  0  0  0  0  0  0  0  0  0
   -0.2161    0.2434    2.4686 N   0  0  0  0  0  0  0  0  0  0  0  0
   -1.1850    0.3219    2.1537 H   0  0  0  0  0  0  0  0  0  0  0  0
    0.0735    0.4128    3.8885 C   0  0  0  0  0  0  0  0  0  0  0  0
    1.0159    0.9483    4.0105 H   0  0  0  0  0  0  0  0  0  0  0  0
   -0.7315    0.9748    4.3613 H   0  0  0  0  0  0  0  0  0  0  0  0
    0.1564   -0.5677    4.3577 H   0  0  0  0  0  0  0  0  0  0  0  0
  5  6  2  0  0  0  0
  5  7  1  0  0  0  0
  2  3  1  0  0  0  0
  2  4  1  0  0  0  0
  2  5  1  0  0  0  0
  1  2  1  0  0  0  0
 17 18  2  0  0  0  0
 17 19  1  0  0  0  0
 14 15  1  0  0  0  0
 14 16  2  0  0  0  0
 11 12  1  0  0  0  0
 11 13  1  0  0  0  0
 11 14  1  0  0  0  0
  9 10  1  0  0  0  0
  9 11  1  0  0  0  0
  9 17  1  0  0  0  0
  7  8  1  0  0  0  0
  7  9  1  0  0  0  0
 21 22  1  0  0  0  0
 21 23  1  0  0  0  0
 21 24  1  0  0  0  0
 19 20  1  0  0  0  0
 19 21  1  0  0  0  0
M  CHG  1  15  -1
M  END
$$$$
default_name
  -OEChem-02102213163D

 24 23  0     1  0  0  0  0  0999 V2000
   -2.8347   -3.7166    0.8034 H   0  0  0  0  0  0  0  0  0  0  0  0
   -2.7728   -2.7096    0.3954 C   0  0  0  0  0  0  0  0  0  0  0  0
   -3.4267   -2.0426    0.9524 H   0  0  0  0  0  0  0  0  0  0  0  0
   -3.0538   -2.7186   -0.6556 H   0  0  0  0  0  0  0  0  0  0  0  0
   -1.3498   -2.2206    0.5184 C   0  0  0  0  0  0  0  0  0  0  0  0
   -0.4997   -2.9426    1.0194 O   0  0  0  0  0  0  0  0  0  0  0  0
   -1.1198   -0.9926    0.0674 N   0  0  0  0  0  0  0  0  0  0  0  0
   -1.8978   -0.4486   -0.2716 H   0  0  0  0  0  0  0  0  0  0  0  0
    0.1693   -0.2866    0.0854 C   0  0  1  0  0  0  0  0  0  0  0  0
    0.9043   -0.8713   -0.4705 H   0  0  0  0  0  0  0  0  0  0  0  0
    0.0106    1.0816   -0.6124 C   0  0  0  0  0  0  0  0  0  0  0  0
   -0.2688    1.8259    0.1354 H   0  0  0  0  0  0  0  0  0  0  0  0
    0.9749    1.3767   -1.0319 H   0  0  0  0  0  0  0  0  0  0  0  0
   -1.0546    1.1130   -1.7196 C   0  0  0  0  0  0  0  0  0  0  0  0
   -0.7921    0.5707   -2.8190 O   0  5  0  0  0  0  0  0  0  0  0  0
   -2.1258    1.7023   -1.4598 O   0  0  0  0  0  0  0  0  0  0  0  0
    0.6664   -0.1450    1.5428 C   0  0  0  0  0  0  0  0  0  0  0  0
    1.8485   -0.3724    1.8265 O   0  0  0  0  0  0  0  0  0  0  0  0
   -0.2161    0.2434    2.4686 N   0  0  0  0  0  0  0  0  0  0  0  0
   -1.1850    0.3219    2.1537 H   0  0  0  0  0  0  0  0  0  0  0  0
    0.0735    0.4128    3.8885 C   0  0  0  0  0  0  0  0  0  0  0  0
    1.0159    0.9483    4.0105 H   0  0  0  0  0  0  0  0  0  0  0  0
   -0.7315    0.9748    4.3613 H   0  0  0  0  0  0  0  0  0  0  0  0
    0.1564   -0.5677    4.3577 H   0  0  0  0  0  0  0  0  0  0  0  0
  5  6  2  0  0  0  0
  5  7  1  0  0  0  0
  2  3  1  0  0  0  0
  2  4  1  0  0  0  0
  2  5  1  0  0  0  0
  1  2  1  0  0  0  0
 17 18  2  0  0  0  0
 17 19  1  0  0  0  0
 14 15  1  0  0  0  0
 14 16  2  0  0  0  0
 11 12  1  0  0  0  0
 11 13  1  0  0  0  0
 11 14  1  0  0  0  0
  9 10  1  0  0  0  0
  9 11  1  0  0  0  0
  9 17  1  0  0  0  0
  7  8  1  0  0  0  0
  7  9  1  0  0  0  0
 21 22  1  0  0  0  0
 21 23  1  0  0  0  0
 21 24  1  0  0  0  0
 19 20  1  0  0  0  0
 19 21  1  0  0  0  0
M  CHG  1  15  -1
M  END
$$$$
default_name
  -OEChem-02102213163D

 24 23  0     1  0  0  0  0  0999 V2000
   -2.8347   -3.7166    0.8034 H   0  0  0  0  0  0  0  0  0  0  0  0
   -2.7728   -2.7096    0.3954 C   0  0  0  0  0  0  0  0  0  0  0  0
   -3.4267   -2.0426    0.9524 H   0  0  0  0  0  0  0  0  0  0  0  0
   -3.0538   -2.7186   -0.6556 H   0  0  0  0  0  0  0  0  0  0  0  0
   -1.3498   -2.2206    0.5184 C   0  0  0  0  0  0  0  0  0  0  0  0
   -0.4997   -2.9426    1.0194 O   0  0  0  0  0  0  0  0  0  0  0  0
   -1.1198   -0.9926    0.0674 N   0  0  0  0  0  0  0  0  0  0  0  0
   -1.8978   -0.4486   -0.2716 H   0  0  0  0  0  0  0  0  0  0  0  0
    0.1693   -0.2866    0.0854 C   0  0  1  0  0  0  0  0  0  0  0  0
    0.9043   -0.8713   -0.4705 H   0  0  0  0  0  0  0  0  0  0  0  0
    0.0106    1.0816   -0.6124 C   0  0  0  0  0  0  0  0  0  0  0  0
   -0.2688    1.8259    0.1354 H   0  0  0  0  0  0  0  0  0  0  0  0
    0.9749    1.3767   -1.0319 H   0  0  0  0  0  0  0  0  0  0  0  0
   -1.0546    1.1130   -1.7196 C   0  0  0  0  0  0  0  0  0  0  0  0
   -0.9221    0.3434   -2.7003 O   0  5  0  0  0  0  0  0  0  0  0  0
   -1.9914    1.9290   -1.5827 O   0  0  0  0  0  0  0  0  0  0  0  0
    0.6664   -0.1450    1.5428 C   0  0  0  0  0  0  0  0  0  0  0  0
    1.8485   -0.3724    1.8265 O   0  0  0  0  0  0  0  0  0  0  0  0
   -0.2161    0.2434    2.4686 N   0  0  0  0  0  0  0  0  0  0  0  0
   -1.1850    0.3219    2.1537 H   0  0  0  0  0  0  0  0  0  0  0  0
    0.0735    0.4128    3.8885 C   0  0  0  0  0  0  0  0  0  0  0  0
    1.0159    0.9483    4.0105 H   0  0  0  0  0  0  0  0  0  0  0  0
   -0.7315    0.9748    4.3613 H   0  0  0  0  0  0  0  0  0  0  0  0
    0.1564   -0.5677    4.3577 H   0  0  0  0  0  0  0  0  0  0  0  0
  5  6  2  0  0  0  0
  5  7  1  0  0  0  0
  2  3  1  0  0  0  0
  2  4  1  0  0  0  0
  2  5  1  0  0  0  0
  1  2  1  0  0  0  0
 17 18  2  0  0  0  0
 17 19  1  0  0  0  0
 14 15  1  0  0  0  0
 14 16  2  0  0  0  0
 11 12  1  0  0  0  0
 11 13  1  0  0  0  0
 11 14  1  0  0  0  0
  9 10  1  0  0  0  0
  9 11  1  0  0  0  0
  9 17  1  0  0  0  0
  7  8  1  0  0  0  0
  7  9  1  0  0  0  0
 21 22  1  0  0  0  0
 21 23  1  0  0  0  0
 21 24  1  0  0  0  0
 19 20  1  0  0  0  0
 19 21  1  0  0  0  0
M  CHG  1  15  -1
M  END
$$$$
default_name
  -OEChem-02102213163D

 24 23  0     1  0  0  0  0  0999 V2000
   -2.8347   -3.7166    0.8034 H   0  0  0  0  0  0  0  0  0  0  0  0
   -2.7728   -2.7096    0.3954 C   0  0  0  0  0  0  0  0  0  0  0  0
   -3.4267   -2.0426    0.9524 H   0  0  0  0  0  0  0  0  0  0  0  0
   -3.0538   -2.7186   -0.6556 H   0  0  0  0  0  0  0  0  0  0  0  0
   -1.3498   -2.2206    0.5184 C   0  0  0  0  0  0  0  0  0  0  0  0
   -0.4997   -2.9426    1.0194 O   0  0  0  0  0  0  0  0  0  0  0  0
   -1.1198   -0.9926    0.0674 N   0  0  0  0  0  0  0  0  0  0  0  0
   -1.8978   -0.4486   -0.2716 H   0  0  0  0  0  0  0  0  0  0  0  0
    0.1693   -0.2866    0.0854 C   0  0  1  0  0  0  0  0  0  0  0  0
    0.9043   -0.8713   -0.4705 H   0  0  0  0  0  0  0  0  0  0  0  0
    0.0106    1.0816   -0.6124 C   0  0  0  0  0  0  0  0  0  0  0  0
   -0.2688    1.8259    0.1354 H   0  0  0  0  0  0  0  0  0  0  0  0
    0.9749    1.3767   -1.0319 H   0  0  0  0  0  0  0  0  0  0  0  0
   -1.0546    1.1130   -1.7196 C   0  0  0  0  0  0  0  0  0  0  0  0
   -1.0895    0.1694   -2.5442 O   0  5  0  0  0  0  0  0  0  0  0  0
   -1.8200    2.1008   -1.7427 O   0  0  0  0  0  0  0  0  0  0  0  0
    0.6664   -0.1450    1.5428 C   0  0  0  0  0  0  0  0  0  0  0  0
    1.8485   -0.3724    1.8265 O   0  0  0  0  0  0  0  0  0  0  0  0
   -0.2161    0.2434    2.4686 N   0  0  0  0  0  0  0  0  0  0  0  0
   -1.1850    0.3219    2.1537 H   0  0  0  0  0  0  0  0  0  0  0  0
    0.0735    0.4128    3.8885 C   0  0  0  0  0  0  0  0  0  0  0  0
    1.0159    0.9483    4.0105 H   0  0  0  0  0  0  0  0  0  0  0  0
   -0.7315    0.9748    4.3613 H   0  0  0  0  0  0  0  0  0  0  0  0
    0.1564   -0.5677    4.3577 H   0  0  0  0  0  0  0  0  0  0  0  0
  5  6  2  0  0  0  0
  5  7  1  0  0  0  0
  2  3  1  0  0  0  0
  2  4  1  0  0  0  0
  2  5  1  0  0  0  0
  1  2  1  0  0  0  0
 17 18  2  0  0  0  0
 17 19  1  0  0  0  0
 14 15  1  0  0  0  0
 14 16  2  0  0  0  0
 11 12  1  0  0  0  0
 11 13  1  0  0  0  0
 11 14  1  0  0  0  0
  9 10  1  0  0  0  0
  9 11  1  0  0  0  0
  9 17  1  0  0  0  0
  7  8  1  0  0  0  0
  7  9  1  0  0  0  0
 21 22  1  0  0  0  0
 21 23  1  0  0  0  0
 21 24  1  0  0  0  0
 19 20  1  0  0  0  0
 19 21  1  0  0  0  0
M  CHG  1  15  -1
M  END
$$$$
default_name
  -OEChem-02102213163D

 24 23  0     1  0  0  0  0  0999 V2000
   -2.8347   -3.7166    0.8034 H   0  0  0  0  0  0  0  0  0  0  0  0
   -2.7728   -2.7096    0.3954 C   0  0  0  0  0  0  0  0  0  0  0  0
   -3.4267   -2.0426    0.9524 H   0  0  0  0  0  0  0  0  0  0  0  0
   -3.0538   -2.7186   -0.6556 H   0  0  0  0  0  0  0  0  0  0  0  0
   -1.3498   -2.2206    0.5184 C   0  0  0  0  0  0  0  0  0  0  0  0
   -0.4997   -2.9426    1.0194 O   0  0  0  0  0  0  0  0  0  0  0  0
   -1.1198   -0.9926    0.0674 N   0  0  0  0  0  0  0  0  0  0  0  0
   -1.8978   -0.4486   -0.2716 H   0  0  0  0  0  0  0  0  0  0  0  0
    0.1693   -0.2866    0.0854 C   0  0  1  0  0  0  0  0  0  0  0  0
    0.9043   -0.8713   -0.4705 H   0  0  0  0  0  0  0  0  0  0  0  0
    0.0106    1.0816   -0.6124 C   0  0  0  0  0  0  0  0  0  0  0  0
   -0.2688    1.8259    0.1354 H   0  0  0  0  0  0  0  0  0  0  0  0
    0.9749    1.3767   -1.0319 H   0  0  0  0  0  0  0  0  0  0  0  0
   -1.0546    1.1130   -1.7196 C   0  0  0  0  0  0  0  0  0  0  0  0
   -1.2828    0.0605   -2.3614 O   0  5  0  0  0  0  0  0  0  0  0  0
   -1.6232    2.2062   -1.9290 O   0  0  0  0  0  0  0  0  0  0  0  0
    0.6664   -0.1450    1.5428 C   0  0  0  0  0  0  0  0  0  0  0  0
    1.8485   -0.3724    1.8265 O   0  0  0  0  0  0  0  0  0  0  0  0
   -0.2161    0.2434    2.4686 N   0  0  0  0  0  0  0  0  0  0  0  0
   -1.1850    0.3219    2.1537 H   0  0  0  0  0  0  0  0  0  0  0  0
    0.0735    0.4128    3.8885 C   0  0  0  0  0  0  0  0  0  0  0  0
    1.0159    0.9483    4.0105 H   0  0  0  0  0  0  0  0  0  0  0  0
   -0.7315    0.9748    4.3613 H   0  0  0  0  0  0  0  0  0  0  0  0
    0.1564   -0.5677    4.3577 H   0  0  0  0  0  0  0  0  0  0  0  0
  5  6  2  0  0  0  0
  5  7  1  0  0  0  0
  2  3  1  0  0  0  0
  2  4  1  0  0  0  0
  2  5  1  0  0  0  0
  1  2  1  0  0  0  0
 17 18  2  0  0  0  0
 17 19  1  0  0  0  0
 14 15  1  0  0  0  0
 14 16  2  0  0  0  0
 11 12  1  0  0  0  0
 11 13  1  0  0  0  0
 11 14  1  0  0  0  0
  9 10  1  0  0  0  0
  9 11  1  0  0  0  0
  9 17  1  0  0  0  0
  7  8  1  0  0  0  0
  7  9  1  0  0  0  0
 21 22  1  0  0  0  0
 21 23  1  0  0  0  0
 21 24  1  0  0  0  0
 19 20  1  0  0  0  0
 19 21  1  0  0  0  0
M  CHG  1  15  -1
M  END
$$$$
default_name
  -OEChem-02102213163D

 24 23  0     1  0  0  0  0  0999 V2000
   -2.8347   -3.7166    0.8034 H   0  0  0  0  0  0  0  0  0  0  0  0
   -2.7728   -2.7096    0.3954 C   0  0  0  0  0  0  0  0  0  0  0  0
   -3.4267   -2.0426    0.9524 H   0  0  0  0  0  0  0  0  0  0  0  0
   -3.0538   -2.7186   -0.6556 H   0  0  0  0  0  0  0  0  0  0  0  0
   -1.3498   -2.2206    0.5184 C   0  0  0  0  0  0  0  0  0  0  0  0
   -0.4997   -2.9426    1.0194 O   0  0  0  0  0  0  0  0  0  0  0  0
   -1.1198   -0.9926    0.0674 N   0  0  0  0  0  0  0  0  0  0  0  0
   -1.8978   -0.4486   -0.2716 H   0  0  0  0  0  0  0  0  0  0  0  0
    0.1693   -0.2866    0.0854 C   0  0  1  0  0  0  0  0  0  0  0  0
    0.9043   -0.8713   -0.4705 H   0  0  0  0  0  0  0  0  0  0  0  0
    0.0106    1.0816   -0.6124 C   0  0  0  0  0  0  0  0  0  0  0  0
   -0.2688    1.8259    0.1354 H   0  0  0  0  0  0  0  0  0  0  0  0
    0.9749    1.3767   -1.0319 H   0  0  0  0  0  0  0  0  0  0  0  0
   -1.0546    1.1130   -1.7196 C   0  0  0  0  0  0  0  0  0  0  0  0
   -1.4888    0.0242   -2.1642 O   0  5  0  0  0  0  0  0  0  0  0  0
   -1.4145    2.2378   -2.1289 O   0  0  0  0  0  0  0  0  0  0  0  0
    0.6664   -0.1450    1.5428 C   0  0  0  0  0  0  0  0  0  0  0  0
    1.8485   -0.3724    1.8265 O   0  0  0  0  0  0  0  0  0  0  0  0
   -0.2161    0.2434    2.4686 N   0  0  0  0  0  0  0  0  0  0  0  0
   -1.1850    0.3219    2.1537 H   0  0  0  0  0  0  0  0  0  0  0  0
    0.0735    0.4128    3.8885 C   0  0  0  0  0  0  0  0  0  0  0  0
    1.0159    0.9483    4.0105 H   0  0  0  0  0  0  0  0  0  0  0  0
   -0.7315    0.9748    4.3613 H   0  0  0  0  0  0  0  0  0  0  0  0
    0.1564   -0.5677    4.3577 H   0  0  0  0  0  0  0  0  0  0  0  0
  5  6  2  0  0  0  0
  5  7  1  0  0  0  0
  2  3  1  0  0  0  0
  2  4  1  0  0  0  0
  2  5  1  0  0  0  0
  1  2  1  0  0  0  0
 17 18  2  0  0  0  0
 17 19  1  0  0  0  0
 14 15  1  0  0  0  0
 14 16  2  0  0  0  0
 11 12  1  0  0  0  0
 11 13  1  0  0  0  0
 11 14  1  0  0  0  0
  9 10  1  0  0  0  0
  9 11  1  0  0  0  0
  9 17  1  0  0  0  0
  7  8  1  0  0  0  0
  7  9  1  0  0  0  0
 21 22  1  0  0  0  0
 21 23  1  0  0  0  0
 21 24  1  0  0  0  0
 19 20  1  0  0  0  0
 19 21  1  0  0  0  0
M  CHG  1  15  -1
M  END
$$$$
default_name
  -OEChem-02102213163D

 24 23  0     1  0  0  0  0  0999 V2000
   -2.8347   -3.7166    0.8034 H   0  0  0  0  0  0  0  0  0  0  0  0
   -2.7728   -2.7096    0.3954 C   0  0  0  0  0  0  0  0  0  0  0  0
   -3.4267   -2.0426    0.9524 H   0  0  0  0  0  0  0  0  0  0  0  0
   -3.0538   -2.7186   -0.6556 H   0  0  0  0  0  0  0  0  0  0  0  0
   -1.3498   -2.2206    0.5184 C   0  0  0  0  0  0  0  0  0  0  0  0
   -0.4997   -2.9426    1.0194 O   0  0  0  0  0  0  0  0  0  0  0  0
   -1.1198   -0.9926    0.0674 N   0  0  0  0  0  0  0  0  0  0  0  0
   -1.8978   -0.4486   -0.2716 H   0  0  0  0  0  0  0  0  0  0  0  0
    0.1693   -0.2866    0.0854 C   0  0  1  0  0  0  0  0  0  0  0  0
    0.9043   -0.8713   -0.4705 H   0  0  0  0  0  0  0  0  0  0  0  0
    0.0106    1.0816   -0.6124 C   0  0  0  0  0  0  0  0  0  0  0  0
   -0.2688    1.8259    0.1354 H   0  0  0  0  0  0  0  0  0  0  0  0
    0.9749    1.3767   -1.0319 H   0  0  0  0  0  0  0  0  0  0  0  0
   -1.0546    1.1130   -1.7196 C   0  0  0  0  0  0  0  0  0  0  0  0
   -1.6935    0.0630   -1.9661 O   0  5  0  0  0  0  0  0  0  0  0  0
   -1.2080    2.1935   -2.3288 O   0  0  0  0  0  0  0  0  0  0  0  0
    0.6664   -0.1450    1.5428 C   0  0  0  0  0  0  0  0  0  0  0  0
    1.8485   -0.3724    1.8265 O   0  0  0  0  0  0  0  0  0  0  0  0
   -0.2161    0.2434    2.4686 N   0  0  0  0  0  0  0  0  0  0  0  0
   -1.1850    0.3219    2.1537 H   0  0  0  0  0  0  0  0  0  0  0  0
    0.0735    0.4128    3.8885 C   0  0  0  0  0  0  0  0  0  0  0  0
    1.0159    0.9483    4.0105 H   0  0  0  0  0  0  0  0  0  0  0  0
   -0.7315    0.9748    4.3613 H   0  0  0  0  0  0  0  0  0  0  0  0
    0.1564   -0.5677    4.3577 H   0  0  0  0  0  0  0  0  0  0  0  0
  5  6  2  0  0  0  0
  5  7  1  0  0  0  0
  2  3  1  0  0  0  0
  2  4  1  0  0  0  0
  2  5  1  0  0  0  0
  1  2  1  0  0  0  0
 17 18  2  0  0  0  0
 17 19  1  0  0  0  0
 14 15  1  0  0  0  0
 14 16  2  0  0  0  0
 11 12  1  0  0  0  0
 11 13  1  0  0  0  0
 11 14  1  0  0  0  0
  9 10  1  0  0  0  0
  9 11  1  0  0  0  0
  9 17  1  0  0  0  0
  7  8  1  0  0  0  0
  7  9  1  0  0  0  0
 21 22  1  0  0  0  0
 21 23  1  0  0  0  0
 21 24  1  0  0  0  0
 19 20  1  0  0  0  0
 19 21  1  0  0  0  0
M  CHG  1  15  -1
M  END
$$$$
default_name
  -OEChem-02102213163D

 24 23  0     1  0  0  0  0  0999 V2000
   -2.8347   -3.7166    0.8034 H   0  0  0  0  0  0  0  0  0  0  0  0
   -2.7728   -2.7096    0.3954 C   0  0  0  0  0  0  0  0  0  0  0  0
   -3.4267   -2.0426    0.9524 H   0  0  0  0  0  0  0  0  0  0  0  0
   -3.0538   -2.7186   -0.6556 H   0  0  0  0  0  0  0  0  0  0  0  0
   -1.3498   -2.2206    0.5184 C   0  0  0  0  0  0  0  0  0  0  0  0
   -0.4997   -2.9426    1.0194 O   0  0  0  0  0  0  0  0  0  0  0  0
   -1.1198   -0.9926    0.0674 N   0  0  0  0  0  0  0  0  0  0  0  0
   -1.8978   -0.4486   -0.2716 H   0  0  0  0  0  0  0  0  0  0  0  0
    0.1693   -0.2866    0.0854 C   0  0  1  0  0  0  0  0  0  0  0  0
    0.9043   -0.8713   -0.4705 H   0  0  0  0  0  0  0  0  0  0  0  0
    0.0106    1.0816   -0.6124 C   0  0  0  0  0  0  0  0  0  0  0  0
   -0.2688    1.8259    0.1354 H   0  0  0  0  0  0  0  0  0  0  0  0
    0.9749    1.3767   -1.0319 H   0  0  0  0  0  0  0  0  0  0  0  0
   -1.0546    1.1130   -1.7196 C   0  0  0  0  0  0  0  0  0  0  0  0
   -1.8830    0.1741   -1.7807 O   0  5  0  0  0  0  0  0  0  0  0  0
   -1.0179    2.0765   -2.5150 O   0  0  0  0  0  0  0  0  0  0  0  0
    0.6664   -0.1450    1.5428 C   0  0  0  0  0  0  0  0  0  0  0  0
    1.8485   -0.3724    1.8265 O   0  0  0  0  0  0  0  0  0  0  0  0
   -0.2161    0.2434    2.4686 N   0  0  0  0  0  0  0  0  0  0  0  0
   -1.1850    0.3219    2.1537 H   0  0  0  0  0  0  0  0  0  0  0  0
    0.0735    0.4128    3.8885 C   0  0  0  0  0  0  0  0  0  0  0  0
    1.0159    0.9483    4.0105 H   0  0  0  0  0  0  0  0  0  0  0  0
   -0.7315    0.9748    4.3613 H   0  0  0  0  0  0  0  0  0  0  0  0
    0.1564   -0.5677    4.3577 H   0  0  0  0  0  0  0  0  0  0  0  0
  5  6  2  0  0  0  0
  5  7  1  0  0  0  0
  2  3  1  0  0  0  0
  2  4  1  0  0  0  0
  2  5  1  0  0  0  0
  1  2  1  0  0  0  0
 17 18  2  0  0  0  0
 17 19  1  0  0  0  0
 14 15  1  0  0  0  0
 14 16  2  0  0  0  0
 11 12  1  0  0  0  0
 11 13  1  0  0  0  0
 11 14  1  0  0  0  0
  9 10  1  0  0  0  0
  9 11  1  0  0  0  0
  9 17  1  0  0  0  0
  7  8  1  0  0  0  0
  7  9  1  0  0  0  0
 21 22  1  0  0  0  0
 21 23  1  0  0  0  0
 21 24  1  0  0  0  0
 19 20  1  0  0  0  0
 19 21  1  0  0  0  0
M  CHG  1  15  -1
M  END
$$$$
default_name
  -OEChem-02102213163D

 24 23  0     1  0  0  0  0  0999 V2000
   -2.8347   -3.7166    0.8034 H   0  0  0  0  0  0  0  0  0  0  0  0
   -2.7728   -2.7096    0.3954 C   0  0  0  0  0  0  0  0  0  0  0  0
   -3.4267   -2.0426    0.9524 H   0  0  0  0  0  0  0  0  0  0  0  0
   -3.0538   -2.7186   -0.6556 H   0  0  0  0  0  0  0  0  0  0  0  0
   -1.3498   -2.2206    0.5184 C   0  0  0  0  0  0  0  0  0  0  0  0
   -0.4997   -2.9426    1.0194 O   0  0  0  0  0  0  0  0  0  0  0  0
   -1.1198   -0.9926    0.0674 N   0  0  0  0  0  0  0  0  0  0  0  0
   -1.8978   -0.4486   -0.2716 H   0  0  0  0  0  0  0  0  0  0  0  0
    0.1693   -0.2866    0.0854 C   0  0  1  0  0  0  0  0  0  0  0  0
    0.9043   -0.8713   -0.4705 H   0  0  0  0  0  0  0  0  0  0  0  0
    0.0106    1.0816   -0.6124 C   0  0  0  0  0  0  0  0  0  0  0  0
   -0.2688    1.8259    0.1354 H   0  0  0  0  0  0  0  0  0  0  0  0
    0.9749    1.3767   -1.0319 H   0  0  0  0  0  0  0  0  0  0  0  0
   -1.0546    1.1130   -1.7196 C   0  0  0  0  0  0  0  0  0  0  0  0
   -2.0444    0.3500   -1.6205 O   0  5  0  0  0  0  0  0  0  0  0  0
   -0.8571    1.8945   -2.6748 O   0  0  0  0  0  0  0  0  0  0  0  0
    0.6664   -0.1450    1.5428 C   0  0  0  0  0  0  0  0  0  0  0  0
    1.8485   -0.3724    1.8265 O   0  0  0  0  0  0  0  0  0  0  0  0
   -0.2161    0.2434    2.4686 N   0  0  0  0  0  0  0  0  0  0  0  0
   -1.1850    0.3219    2.1537 H   0  0  0  0  0  0  0  0  0  0  0  0
    0.0735    0.4128    3.8885 C   0  0  0  0  0  0  0  0  0  0  0  0
    1.0159    0.9483    4.0105 H   0  0  0  0  0  0  0  0  0  0  0  0
   -0.7315    0.9748    4.3613 H   0  0  0  0  0  0  0  0  0  0  0  0
    0.1564   -0.5677    4.3577 H   0  0  0  0  0  0  0  0  0  0  0  0
  5  6  2  0  0  0  0
  5  7  1  0  0  0  0
  2  3  1  0  0  0  0
  2  4  1  0  0  0  0
  2  5  1  0  0  0  0
  1  2  1  0  0  0  0
 17 18  2  0  0  0  0
 17 19  1  0  0  0  0
 14 15  1  0  0  0  0
 14 16  2  0  0  0  0
 11 12  1  0  0  0  0
 11 13  1  0  0  0  0
 11 14  1  0  0  0  0
  9 10  1  0  0  0  0
  9 11  1  0  0  0  0
  9 17  1  0  0  0  0
  7  8  1  0  0  0  0
  7  9  1  0  0  0  0
 21 22  1  0  0  0  0
 21 23  1  0  0  0  0
 21 24  1  0  0  0  0
 19 20  1  0  0  0  0
 19 21  1  0  0  0  0
M  CHG  1  15  -1
M  END
$$$$
default_name
  -OEChem-02102213163D

 24 23  0     1  0  0  0  0  0999 V2000
   -2.8347   -3.7166    0.8034 H   0  0  0  0  0  0  0  0  0  0  0  0
   -2.7728   -2.7096    0.3954 C   0  0  0  0  0  0  0  0  0  0  0  0
   -3.4267   -2.0426    0.9524 H   0  0  0  0  0  0  0  0  0  0  0  0
   -3.0538   -2.7186   -0.6556 H   0  0  0  0  0  0  0  0  0  0  0  0
   -1.3498   -2.2206    0.5184 C   0  0  0  0  0  0  0  0  0  0  0  0
   -0.4997   -2.9426    1.0194 O   0  0  0  0  0  0  0  0  0  0  0  0
   -1.1198   -0.9926    0.0674 N   0  0  0  0  0  0  0  0  0  0  0  0
   -1.8978   -0.4486   -0.2716 H   0  0  0  0  0  0  0  0  0  0  0  0
    0.1693   -0.2866    0.0854 C   0  0  1  0  0  0  0  0  0  0  0  0
    0.9043   -0.8713   -0.4705 H   0  0  0  0  0  0  0  0  0  0  0  0
    0.0106    1.0816   -0.6124 C   0  0  0  0  0  0  0  0  0  0  0  0
   -0.2688    1.8259    0.1354 H   0  0  0  0  0  0  0  0  0  0  0  0
    0.9749    1.3767   -1.0319 H   0  0  0  0  0  0  0  0  0  0  0  0
   -1.0546    1.1130   -1.7196 C   0  0  0  0  0  0  0  0  0  0  0  0
   -2.1666    0.5788   -1.4965 O   0  5  0  0  0  0  0  0  0  0  0  0
   -0.7365    1.6601   -2.7975 O   0  0  0  0  0  0  0  0  0  0  0  0
    0.6664   -0.1450    1.5428 C   0  0  0  0  0  0  0  0  0  0  0  0
    1.8485   -0.3724    1.8265 O   0  0  0  0  0  0  0  0  0  0  0  0
   -0.2161    0.2434    2.4686 N   0  0  0  0  0  0  0  0  0  0  0  0
   -1.1850    0.3219    2.1537 H   0  0  0  0  0  0  0  0  0  0  0  0
    0.0735    0.4128    3.8885 C   0  0  0  0  0  0  0  0  0  0  0  0
    1.0159    0.9483    4.0105 H   0  0  0  0  0  0  0  0  0  0  0  0
   -0.7315    0.9748    4.3613 H   0  0  0  0  0  0  0  0  0  0  0  0
    0.1564   -0.5677    4.3577 H   0  0  0  0  0  0  0  0  0  0  0  0
  5  6  2  0  0  0  0
  5  7  1  0  0  0  0
  2  3  1  0  0  0  0
  2  4  1  0  0  0  0
  2  5  1  0  0  0  0
  1  2  1  0  0  0  0
 17 18  2  0  0  0  0
 17 19  1  0  0  0  0
 14 15  1  0  0  0  0
 14 16  2  0  0  0  0
 11 12  1  0  0  0  0
 11 13  1  0  0  0  0
 11 14  1  0  0  0  0
  9 10  1  0  0  0  0
  9 11  1  0  0  0  0
  9 17  1  0  0  0  0
  7  8  1  0  0  0  0
  7  9  1  0  0  0  0
 21 22  1  0  0  0  0
 21 23  1  0  0  0  0
 21 24  1  0  0  0  0
 19 20  1  0  0  0  0
 19 21  1  0  0  0  0
M  CHG  1  15  -1
M  END
$$$$
default_name
  -OEChem-02102213163D

 24 23  0     1  0  0  0  0  0999 V2000
   -2.8347   -3.7166    0.8034 H   0  0  0  0  0  0  0  0  0  0  0  0
   -2.7728   -2.7096    0.3954 C   0  0  0  0  0  0  0  0  0  0  0  0
   -3.4267   -2.0426    0.9524 H   0  0  0  0  0  0  0  0  0  0  0  0
   -3.0538   -2.7186   -0.6556 H   0  0  0  0  0  0  0  0  0  0  0  0
   -1.3498   -2.2206    0.5184 C   0  0  0  0  0  0  0  0  0  0  0  0
   -0.4997   -2.9426    1.0194 O   0  0  0  0  0  0  0  0  0  0  0  0
   -1.1198   -0.9926    0.0674 N   0  0  0  0  0  0  0  0  0  0  0  0
   -1.8978   -0.4486   -0.2716 H   0  0  0  0  0  0  0  0  0  0  0  0
    0.1693   -0.2866    0.0854 C   0  0  1  0  0  0  0  0  0  0  0  0
    0.9043   -0.8713   -0.4705 H   0  0  0  0  0  0  0  0  0  0  0  0
    0.0106    1.0816   -0.6124 C   0  0  0  0  0  0  0  0  0  0  0  0
   -0.2688    1.8259    0.1354 H   0  0  0  0  0  0  0  0  0  0  0  0
    0.9749    1.3767   -1.0319 H   0  0  0  0  0  0  0  0  0  0  0  0
   -1.0546    1.1130   -1.7196 C   0  0  0  0  0  0  0  0  0  0  0  0
   -2.2413    0.8448   -1.4171 O   0  5  0  0  0  0  0  0  0  0  0  0
   -0.6645    1.3892   -2.8745 O   0  0  0  0  0  0  0  0  0  0  0  0
    0.6664   -0.1450    1.5428 C   0  0  0  0  0  0  0  0  0  0  0  0
    1.8485   -0.3724    1.8265 O   0  0  0  0  0  0  0  0  0  0  0  0
   -0.2161    0.2434    2.4686 N   0  0  0  0  0  0  0  0  0  0  0  0
   -1.1850    0.3219    2.1537 H   0  0  0  0  0  0  0  0  0  0  0  0
    0.0735    0.4128    3.8885 C   0  0  0  0  0  0  0  0  0  0  0  0
    1.0159    0.9483    4.0105 H   0  0  0  0  0  0  0  0  0  0  0  0
   -0.7315    0.9748    4.3613 H   0  0  0  0  0  0  0  0  0  0  0  0
    0.1564   -0.5677    4.3577 H   0  0  0  0  0  0  0  0  0  0  0  0
  5  6  2  0  0  0  0
  5  7  1  0  0  0  0
  2  3  1  0  0  0  0
  2  4  1  0  0  0  0
  2  5  1  0  0  0  0
  1  2  1  0  0  0  0
 17 18  2  0  0  0  0
 17 19  1  0  0  0  0
 14 15  1  0  0  0  0
 14 16  2  0  0  0  0
 11 12  1  0  0  0  0
 11 13  1  0  0  0  0
 11 14  1  0  0  0  0
  9 10  1  0  0  0  0
  9 11  1  0  0  0  0
  9 17  1  0  0  0  0
  7  8  1  0  0  0  0
  7  9  1  0  0  0  0
 21 22  1  0  0  0  0
 21 23  1  0  0  0  0
 21 24  1  0  0  0  0
 19 20  1  0  0  0  0
 19 21  1  0  0  0  0
M  CHG  1  15  -1
M  END
$$$$
default_name
  -OEChem-02102213163D

 24 23  0     1  0  0  0  0  0999 V2000
   -2.8347   -3.7166    0.8034 H   0  0  0  0  0  0  0  0  0  0  0  0
   -2.7728   -2.7096    0.3954 C   0  0  0  0  0  0  0  0  0  0  0  0
   -3.4267   -2.0426    0.9524 H   0  0  0  0  0  0  0  0  0  0  0  0
   -3.0538   -2.7186   -0.6556 H   0  0  0  0  0  0  0  0  0  0  0  0
   -1.3498   -2.2206    0.5184 C   0  0  0  0  0  0  0  0  0  0  0  0
   -0.4997   -2.9426    1.0194 O   0  0  0  0  0  0  0  0  0  0  0  0
   -1.1198   -0.9926    0.0674 N   0  0  0  0  0  0  0  0  0  0  0  0
   -1.8978   -0.4486   -0.2716 H   0  0  0  0  0  0  0  0  0  0  0  0
    0.1693   -0.2866    0.0854 C   0  0  1  0  0  0  0  0  0  0  0  0
    0.9043   -0.8713   -0.4705 H   0  0  0  0  0  0  0  0  0  0  0  0
    0.0106    1.0816   -0.6124 C   0  0  0  0  0  0  0  0  0  0  0  0
   -0.2688    1.8259    0.1354 H   0  0  0  0  0  0  0  0  0  0  0  0
    0.9749    1.3767   -1.0319 H   0  0  0  0  0  0  0  0  0  0  0  0
   -1.0546    1.1130   -1.7196 C   0  0  0  0  0  0  0  0  0  0  0  0
   -2.2634    1.1300   -1.3877 O   0  5  0  0  0  0  0  0  0  0  0  0
   -0.6457    1.1002   -2.9007 O   0  0  0  0  0  0  0  0  0  0  0  0
    0.6664   -0.1450    1.5428 C   0  0  0  0  0  0  0  0  0  0  0  0
    1.8485   -0.3724    1.8265 O   0  0  0  0  0  0  0  0  0  0  0  0
   -0.2161    0.2434    2.4686 N   0  0  0  0  0  0  0  0  0  0  0  0
   -1.1850    0.3219    2.1537 H   0  0  0  0  0  0  0  0  0  0  0  0
    0.0735    0.4128    3.8885 C   0  0  0  0  0  0  0  0  0  0  0  0
    1.0159    0.9483    4.0105 H   0  0  0  0  0  0  0  0  0  0  0  0
   -0.7315    0.9748    4.3613 H   0  0  0  0  0  0  0  0  0  0  0  0
    0.1564   -0.5677    4.3577 H   0  0  0  0  0  0  0  0  0  0  0  0
  5  6  2  0  0  0  0
  5  7  1  0  0  0  0
  2  3  1  0  0  0  0
  2  4  1  0  0  0  0
  2  5  1  0  0  0  0
  1  2  1  0  0  0  0
 17 18  2  0  0  0  0
 17 19  1  0  0  0  0
 14 15  1  0  0  0  0
 14 16  2  0  0  0  0
 11 12  1  0  0  0  0
 11 13  1  0  0  0  0
 11 14  1  0  0  0  0
  9 10  1  0  0  0  0
  9 11  1  0  0  0  0
  9 17  1  0  0  0  0
  7  8  1  0  0  0  0
  7  9  1  0  0  0  0
 21 22  1  0  0  0  0
 21 23  1  0  0  0  0
 21 24  1  0  0  0  0
 19 20  1  0  0  0  0
 19 21  1  0  0  0  0
M  CHG  1  15  -1
M  END
$$$$
default_name
  -OEChem-02102213163D

 24 23  0     1  0  0  0  0  0999 V2000
   -2.8347   -3.7166    0.8034 H   0  0  0  0  0  0  0  0  0  0  0  0
   -2.7728   -2.7096    0.3954 C   0  0  0  0  0  0  0  0  0  0  0  0
   -3.4267   -2.0426    0.9524 H   0  0  0  0  0  0  0  0  0  0  0  0
   -3.0538   -2.7186   -0.6556 H   0  0  0  0  0  0  0  0  0  0  0  0
   -1.3498   -2.2206    0.5184 C   0  0  0  0  0  0  0  0  0  0  0  0
   -0.4997   -2.9426    1.0194 O   0  0  0  0  0  0  0  0  0  0  0  0
   -1.1198   -0.9926    0.0674 N   0  0  0  0  0  0  0  0  0  0  0  0
   -1.8978   -0.4486   -0.2716 H   0  0  0  0  0  0  0  0  0  0  0  0
    0.1693   -0.2866    0.0854 C   0  0  1  0  0  0  0  0  0  0  0  0
    0.9043   -0.8713   -0.4705 H   0  0  0  0  0  0  0  0  0  0  0  0
    0.0106    1.0816   -0.6124 C   0  0  0  0  0  0  0  0  0  0  0  0
   -0.2688    1.8259    0.1354 H   0  0  0  0  0  0  0  0  0  0  0  0
    0.9749    1.3767   -1.0319 H   0  0  0  0  0  0  0  0  0  0  0  0
   -1.0546    1.1130   -1.7196 C   0  0  0  0  0  0  0  0  0  0  0  0
   -2.2314    1.4148   -1.4104 O   0  5  0  0  0  0  0  0  0  0  0  0
   -0.6817    0.8129   -2.8742 O   0  0  0  0  0  0  0  0  0  0  0  0
    0.6664   -0.1450    1.5428 C   0  0  0  0  0  0  0  0  0  0  0  0
    1.8485   -0.3724    1.8265 O   0  0  0  0  0  0  0  0  0  0  0  0
   -0.2161    0.2434    2.4686 N   0  0  0  0  0  0  0  0  0  0  0  0
   -1.1850    0.3219    2.1537 H   0  0  0  0  0  0  0  0  0  0  0  0
    0.0735    0.4128    3.8885 C   0  0  0  0  0  0  0  0  0  0  0  0
    1.0159    0.9483    4.0105 H   0  0  0  0  0  0  0  0  0  0  0  0
   -0.7315    0.9748    4.3613 H   0  0  0  0  0  0  0  0  0  0  0  0
    0.1564   -0.5677    4.3577 H   0  0  0  0  0  0  0  0  0  0  0  0
  5  6  2  0  0  0  0
  5  7  1  0  0  0  0
  2  3  1  0  0  0  0
  2  4  1  0  0  0  0
  2  5  1  0  0  0  0
  1  2  1  0  0  0  0
 17 18  2  0  0  0  0
 17 19  1  0  0  0  0
 14 15  1  0  0  0  0
 14 16  2  0  0  0  0
 11 12  1  0  0  0  0
 11 13  1  0  0  0  0
 11 14  1  0  0  0  0
  9 10  1  0  0  0  0
  9 11  1  0  0  0  0
  9 17  1  0  0  0  0
  7  8  1  0  0  0  0
  7  9  1  0  0  0  0
 21 22  1  0  0  0  0
 21 23  1  0  0  0  0
 21 24  1  0  0  0  0
 19 20  1  0  0  0  0
 19 21  1  0  0  0  0
M  CHG  1  15  -1
M  END
$$$$
default_name
  -OEChem-02102213163D

 24 23  0     1  0  0  0  0  0999 V2000
   -2.8347   -3.7166    0.8034 H   0  0  0  0  0  0  0  0  0  0  0  0
   -2.7728   -2.7096    0.3954 C   0  0  0  0  0  0  0  0  0  0  0  0
   -3.4267   -2.0426    0.9524 H   0  0  0  0  0  0  0  0  0  0  0  0
   -3.0538   -2.7186   -0.6556 H   0  0  0  0  0  0  0  0  0  0  0  0
   -1.3498   -2.2206    0.5184 C   0  0  0  0  0  0  0  0  0  0  0  0
   -0.4997   -2.9426    1.0194 O   0  0  0  0  0  0  0  0  0  0  0  0
   -1.1198   -0.9926    0.0674 N   0  0  0  0  0  0  0  0  0  0  0  0
   -1.8978   -0.4486   -0.2716 H   0  0  0  0  0  0  0  0  0  0  0  0
    0.1693   -0.2866    0.0854 C   0  0  1  0  0  0  0  0  0  0  0  0
    0.9043   -0.8713   -0.4705 H   0  0  0  0  0  0  0  0  0  0  0  0
    0.0106    1.0816   -0.6124 C   0  0  0  0  0  0  0  0  0  0  0  0
   -0.2688    1.8259    0.1354 H   0  0  0  0  0  0  0  0  0  0  0  0
    0.9749    1.3767   -1.0319 H   0  0  0  0  0  0  0  0  0  0  0  0
   -1.0546    1.1130   -1.7196 C   0  0  0  0  0  0  0  0  0  0  0  0
   -2.1476    1.6798   -1.4836 O   0  5  0  0  0  0  0  0  0  0  0  0
   -0.7699    0.5469   -2.7969 O   0  0  0  0  0  0  0  0  0  0  0  0
    0.6664   -0.1450    1.5428 C   0  0  0  0  0  0  0  0  0  0  0  0
    1.8485   -0.3724    1.8265 O   0  0  0  0  0  0  0  0  0  0  0  0
   -0.2161    0.2434    2.4686 N   0  0  0  0  0  0  0  0  0  0  0  0
   -1.1850    0.3219    2.1537 H   0  0  0  0  0  0  0  0  0  0  0  0
    0.0735    0.4128    3.8885 C   0  0  0  0  0  0  0  0  0  0  0  0
    1.0159    0.9483    4.0105 H   0  0  0  0  0  0  0  0  0  0  0  0
   -0.7315    0.9748    4.3613 H   0  0  0  0  0  0  0  0  0  0  0  0
    0.1564   -0.5677    4.3577 H   0  0  0  0  0  0  0  0  0  0  0  0
  5  6  2  0  0  0  0
  5  7  1  0  0  0  0
  2  3  1  0  0  0  0
  2  4  1  0  0  0  0
  2  5  1  0  0  0  0
  1  2  1  0  0  0  0
 17 18  2  0  0  0  0
 17 19  1  0  0  0  0
 14 15  1  0  0  0  0
 14 16  2  0  0  0  0
 11 12  1  0  0  0  0
 11 13  1  0  0  0  0
 11 14  1  0  0  0  0
  9 10  1  0  0  0  0
  9 11  1  0  0  0  0
  9 17  1  0  0  0  0
  7  8  1  0  0  0  0
  7  9  1  0  0  0  0
 21 22  1  0  0  0  0
 21 23  1  0  0  0  0
 21 24  1  0  0  0  0
 19 20  1  0  0  0  0
 19 21  1  0  0  0  0
M  CHG  1  15  -1
M  END
$$$$
default_name
  -OEChem-02102213163D

 24 23  0     1  0  0  0  0  0999 V2000
   -2.8347   -3.7166    0.8034 H   0  0  0  0  0  0  0  0  0  0  0  0
   -2.7728   -2.7096    0.3954 C   0  0  0  0  0  0  0  0  0  0  0  0
   -3.4267   -2.0426    0.9524 H   0  0  0  0  0  0  0  0  0  0  0  0
   -3.0538   -2.7186   -0.6556 H   0  0  0  0  0  0  0  0  0  0  0  0
   -1.3498   -2.2206    0.5184 C   0  0  0  0  0  0  0  0  0  0  0  0
   -0.4997   -2.9426    1.0194 O   0  0  0  0  0  0  0  0  0  0  0  0
   -1.1198   -0.9926    0.0674 N   0  0  0  0  0  0  0  0  0  0  0  0
   -1.8978   -0.4486   -0.2716 H   0  0  0  0  0  0  0  0  0  0  0  0
    0.1693   -0.2866    0.0854 C   0  0  1  0  0  0  0  0  0  0  0  0
    0.9043   -0.8713   -0.4705 H   0  0  0  0  0  0  0  0  0  0  0  0
    0.0106    1.0816   -0.6124 C   0  0  0  0  0  0  0  0  0  0  0  0
   -0.2688    1.8259    0.1354 H   0  0  0  0  0  0  0  0  0  0  0  0
    0.9749    1.3767   -1.0319 H   0  0  0  0  0  0  0  0  0  0  0  0
   -1.0546    1.1130   -1.7196 C   0  0  0  0  0  0  0  0  0  0  0  0
   -2.0175    1.9071   -1.6022 O   0  5  0  0  0  0  0  0  0  0  0  0
   -0.9042    0.3202   -2.6741 O   0  0  0  0  0  0  0  0  0  0  0  0
    0.6664   -0.1450    1.5428 C   0  0  0  0  0  0  0  0  0  0  0  0
    1.8485   -0.3724    1.8265 O   0  0  0  0  0  0  0  0  0  0  0  0
   -0.2161    0.2434    2.4686 N   0  0  0  0  0  0  0  0  0  0  0  0
   -1.1850    0.3219    2.1537 H   0  0  0  0  0  0  0  0  0  0  0  0
    0.0735    0.4128    3.8885 C   0  0  0  0  0  0  0  0  0  0  0  0
    1.0159    0.9483    4.0105 H   0  0  0  0  0  0  0  0  0  0  0  0
   -0.7315    0.9748    4.3613 H   0  0  0  0  0  0  0  0  0  0  0  0
    0.1564   -0.5677    4.3577 H   0  0  0  0  0  0  0  0  0  0  0  0
  5  6  2  0  0  0  0
  5  7  1  0  0  0  0
  2  3  1  0  0  0  0
  2  4  1  0  0  0  0
  2  5  1  0  0  0  0
  1  2  1  0  0  0  0
 17 18  2  0  0  0  0
 17 19  1  0  0  0  0
 14 15  1  0  0  0  0
 14 16  2  0  0  0  0
 11 12  1  0  0  0  0
 11 13  1  0  0  0  0
 11 14  1  0  0  0  0
  9 10  1  0  0  0  0
  9 11  1  0  0  0  0
  9 17  1  0  0  0  0
  7  8  1  0  0  0  0
  7  9  1  0  0  0  0
 21 22  1  0  0  0  0
 21 23  1  0  0  0  0
 21 24  1  0  0  0  0
 19 20  1  0  0  0  0
 19 21  1  0  0  0  0
M  CHG  1  15  -1
M  END
$$$$
default_name
  -OEChem-02102213163D

 24 23  0     1  0  0  0  0  0999 V2000
   -2.8347   -3.7166    0.8034 H   0  0  0  0  0  0  0  0  0  0  0  0
   -2.7728   -2.7096    0.3954 C   0  0  0  0  0  0  0  0  0  0  0  0
   -3.4267   -2.0426    0.9524 H   0  0  0  0  0  0  0  0  0  0  0  0
   -3.0538   -2.7186   -0.6556 H   0  0  0  0  0  0  0  0  0  0  0  0
   -1.3498   -2.2206    0.5184 C   0  0  0  0  0  0  0  0  0  0  0  0
   -0.4997   -2.9426    1.0194 O   0  0  0  0  0  0  0  0  0  0  0  0
   -1.1198   -0.9926    0.0674 N   0  0  0  0  0  0  0  0  0  0  0  0
   -1.8978   -0.4486   -0.2716 H   0  0  0  0  0  0  0  0  0  0  0  0
    0.1693   -0.2866    0.0854 C   0  0  1  0  0  0  0  0  0  0  0  0
    0.9043   -0.8713   -0.4705 H   0  0  0  0  0  0  0  0  0  0  0  0
    0.0106    1.0816   -0.6124 C   0  0  0  0  0  0  0  0  0  0  0  0
   -0.2688    1.8259    0.1354 H   0  0  0  0  0  0  0  0  0  0  0  0
    0.9749    1.3767   -1.0319 H   0  0  0  0  0  0  0  0  0  0  0  0
   -1.0546    1.1130   -1.7196 C   0  0  0  0  0  0  0  0  0  0  0  0
   -1.8502    2.0811   -1.7583 O   0  5  0  0  0  0  0  0  0  0  0  0
   -1.0757    0.1484   -2.5141 O   0  0  0  0  0  0  0  0  0  0  0  0
    0.6664   -0.1450    1.5428 C   0  0  0  0  0  0  0  0  0  0  0  0
    1.8485   -0.3724    1.8265 O   0  0  0  0  0  0  0  0  0  0  0  0
   -0.2161    0.2434    2.4686 N   0  0  0  0  0  0  0  0  0  0  0  0
   -1.1850    0.3219    2.1537 H   0  0  0  0  0  0  0  0  0  0  0  0
    0.0735    0.4128    3.8885 C   0  0  0  0  0  0  0  0  0  0  0  0
    1.0159    0.9483    4.0105 H   0  0  0  0  0  0  0  0  0  0  0  0
   -0.7315    0.9748    4.3613 H   0  0  0  0  0  0  0  0  0  0  0  0
    0.1564   -0.5677    4.3577 H   0  0  0  0  0  0  0  0  0  0  0  0
  5  6  2  0  0  0  0
  5  7  1  0  0  0  0
  2  3  1  0  0  0  0
  2  4  1  0  0  0  0
  2  5  1  0  0  0  0
  1  2  1  0  0  0  0
 17 18  2  0  0  0  0
 17 19  1  0  0  0  0
 14 15  1  0  0  0  0
 14 16  2  0  0  0  0
 11 12  1  0  0  0  0
 11 13  1  0  0  0  0
 11 14  1  0  0  0  0
  9 10  1  0  0  0  0
  9 11  1  0  0  0  0
  9 17  1  0  0  0  0
  7  8  1  0  0  0  0
  7  9  1  0  0  0  0
 21 22  1  0  0  0  0
 21 23  1  0  0  0  0
 21 24  1  0  0  0  0
 19 20  1  0  0  0  0
 19 21  1  0  0  0  0
M  CHG  1  15  -1
M  END
$$$$
default_name
  -OEChem-02102213163D

 24 23  0     1  0  0  0  0  0999 V2000
   -2.8347   -3.7166    0.8034 H   0  0  0  0  0  0  0  0  0  0  0  0
   -2.7728   -2.7096    0.3954 C   0  0  0  0  0  0  0  0  0  0  0  0
   -3.4267   -2.0426    0.9524 H   0  0  0  0  0  0  0  0  0  0  0  0
   -3.0538   -2.7186   -0.6556 H   0  0  0  0  0  0  0  0  0  0  0  0
   -1.3498   -2.2206    0.5184 C   0  0  0  0  0  0  0  0  0  0  0  0
   -0.4997   -2.9426    1.0194 O   0  0  0  0  0  0  0  0  0  0  0  0
   -1.1198   -0.9926    0.0674 N   0  0  0  0  0  0  0  0  0  0  0  0
   -1.8978   -0.4486   -0.2716 H   0  0  0  0  0  0  0  0  0  0  0  0
    0.1693   -0.2866    0.0854 C   0  0  1  0  0  0  0  0  0  0  0  0
    0.9043   -0.8713   -0.4705 H   0  0  0  0  0  0  0  0  0  0  0  0
    0.0106    1.0816   -0.6124 C   0  0  0  0  0  0  0  0  0  0  0  0
   -0.2688    1.8259    0.1354 H   0  0  0  0  0  0  0  0  0  0  0  0
    0.9749    1.3767   -1.0319 H   0  0  0  0  0  0  0  0  0  0  0  0
   -1.0546    1.1130   -1.7196 C   0  0  0  0  0  0  0  0  0  0  0  0
   -1.6569    2.1900   -1.9412 O   0  5  0  0  0  0  0  0  0  0  0  0
   -1.2724    0.0430   -2.3278 O   0  0  0  0  0  0  0  0  0  0  0  0
    0.6664   -0.1450    1.5428 C   0  0  0  0  0  0  0  0  0  0  0  0
    1.8485   -0.3724    1.8265 O   0  0  0  0  0  0  0  0  0  0  0  0
   -0.2161    0.2434    2.4686 N   0  0  0  0  0  0  0  0  0  0  0  0
   -1.1850    0.3219    2.1537 H   0  0  0  0  0  0  0  0  0  0  0  0
    0.0735    0.4128    3.8885 C   0  0  0  0  0  0  0  0  0  0  0  0
    1.0159    0.9483    4.0105 H   0  0  0  0  0  0  0  0  0  0  0  0
   -0.7315    0.9748    4.3613 H   0  0  0  0  0  0  0  0  0  0  0  0
    0.1564   -0.5677    4.3577 H   0  0  0  0  0  0  0  0  0  0  0  0
  5  6  2  0  0  0  0
  5  7  1  0  0  0  0
  2  3  1  0  0  0  0
  2  4  1  0  0  0  0
  2  5  1  0  0  0  0
  1  2  1  0  0  0  0
 17 18  2  0  0  0  0
 17 19  1  0  0  0  0
 14 15  1  0  0  0  0
 14 16  2  0  0  0  0
 11 12  1  0  0  0  0
 11 13  1  0  0  0  0
 11 14  1  0  0  0  0
  9 10  1  0  0  0  0
  9 11  1  0  0  0  0
  9 17  1  0  0  0  0
  7  8  1  0  0  0  0
  7  9  1  0  0  0  0
 21 22  1  0  0  0  0
 21 23  1  0  0  0  0
 21 24  1  0  0  0  0
 19 20  1  0  0  0  0
 19 21  1  0  0  0  0
M  CHG  1  15  -1
M  END
$$$$
default_name
  -OEChem-02102213163D

 24 23  0     1  0  0  0  0  0999 V2000
   -2.8347   -3.7166    0.8034 H   0  0  0  0  0  0  0  0  0  0  0  0
   -2.7728   -2.7096    0.3954 C   0  0  0  0  0  0  0  0  0  0  0  0
   -3.4267   -2.0426    0.9524 H   0  0  0  0  0  0  0  0  0  0  0  0
   -3.0538   -2.7186   -0.6556 H   0  0  0  0  0  0  0  0  0  0  0  0
   -1.3498   -2.2206    0.5184 C   0  0  0  0  0  0  0  0  0  0  0  0
   -0.4997   -2.9426    1.0194 O   0  0  0  0  0  0  0  0  0  0  0  0
   -1.1198   -0.9926    0.0674 N   0  0  0  0  0  0  0  0  0  0  0  0
   -1.8978   -0.4486   -0.2716 H   0  0  0  0  0  0  0  0  0  0  0  0
    0.1693   -0.2866    0.0854 C   0  0  1  0  0  0  0  0  0  0  0  0
    0.9043   -0.8713   -0.4705 H   0  0  0  0  0  0  0  0  0  0  0  0
    0.0106    1.0816   -0.6124 C   0  0  0  0  0  0  0  0  0  0  0  0
   -0.2688    1.8259    0.1354 H   0  0  0  0  0  0  0  0  0  0  0  0
    0.9749    1.3767   -1.0319 H   0  0  0  0  0  0  0  0  0  0  0  0
   -1.0546    1.1130   -1.7196 C   0  0  0  0  0  0  0  0  0  0  0  0
   -1.4508    2.2263   -2.1383 O   0  5  0  0  0  0  0  0  0  0  0  0
   -1.4811    0.0114   -2.1279 O   0  0  0  0  0  0  0  0  0  0  0  0
    0.6664   -0.1450    1.5428 C   0  0  0  0  0  0  0  0  0  0  0  0
    1.8485   -0.3724    1.8265 O   0  0  0  0  0  0  0  0  0  0  0  0
   -0.2161    0.2434    2.4686 N   0  0  0  0  0  0  0  0  0  0  0  0
   -1.1850    0.3219    2.1537 H   0  0  0  0  0  0  0  0  0  0  0  0
    0.0735    0.4128    3.8885 C   0  0  0  0  0  0  0  0  0  0  0  0
    1.0159    0.9483    4.0105 H   0  0  0  0  0  0  0  0  0  0  0  0
   -0.7315    0.9748    4.3613 H   0  0  0  0  0  0  0  0  0  0  0  0
    0.1564   -0.5677    4.3577 H   0  0  0  0  0  0  0  0  0  0  0  0
  5  6  2  0  0  0  0
  5  7  1  0  0  0  0
  2  3  1  0  0  0  0
  2  4  1  0  0  0  0
  2  5  1  0  0  0  0
  1  2  1  0  0  0  0
 17 18  2  0  0  0  0
 17 19  1  0  0  0  0
 14 15  1  0  0  0  0
 14 16  2  0  0  0  0
 11 12  1  0  0  0  0
 11 13  1  0  0  0  0
 11 14  1  0  0  0  0
  9 10  1  0  0  0  0
  9 11  1  0  0  0  0
  9 17  1  0  0  0  0
  7  8  1  0  0  0  0
  7  9  1  0  0  0  0
 21 22  1  0  0  0  0
 21 23  1  0  0  0  0
 21 24  1  0  0  0  0
 19 20  1  0  0  0  0
 19 21  1  0  0  0  0
M  CHG  1  15  -1
M  END
$$$$
default_name
  -OEChem-02102213163D

 24 23  0     1  0  0  0  0  0999 V2000
   -2.8347   -3.7166    0.8034 H   0  0  0  0  0  0  0  0  0  0  0  0
   -2.7728   -2.7096    0.3954 C   0  0  0  0  0  0  0  0  0  0  0  0
   -3.4267   -2.0426    0.9524 H   0  0  0  0  0  0  0  0  0  0  0  0
   -3.0538   -2.7186   -0.6556 H   0  0  0  0  0  0  0  0  0  0  0  0
   -1.3498   -2.2206    0.5184 C   0  0  0  0  0  0  0  0  0  0  0  0
   -0.4997   -2.9426    1.0194 O   0  0  0  0  0  0  0  0  0  0  0  0
   -1.1198   -0.9926    0.0674 N   0  0  0  0  0  0  0  0  0  0  0  0
   -1.8978   -0.4486   -0.2716 H   0  0  0  0  0  0  0  0  0  0  0  0
    0.1693   -0.2866    0.0854 C   0  0  1  0  0  0  0  0  0  0  0  0
    0.9043   -0.8713   -0.4705 H   0  0  0  0  0  0  0  0  0  0  0  0
    0.0106    1.0816   -0.6124 C   0  0  0  0  0  0  0  0  0  0  0  0
   -0.0019    1.8637    0.1488 H   0  0  0  0  0  0  0  0  0  0  0  0
    0.8791    1.2533   -1.2520 H   0  0  0  0  0  0  0  0  0  0  0  0
   -1.2708    1.2263   -1.4483 C   0  0  0  0  0  0  0  0  0  0  0  0
   -1.4759    2.3080   -2.0479 O   0  5  0  0  0  0  0  0  0  0  0  0
   -2.0510    0.2500   -1.4643 O   0  0  0  0  0  0  0  0  0  0  0  0
    0.6664   -0.1450    1.5428 C   0  0  0  0  0  0  0  0  0  0  0  0
    1.8485   -0.3724    1.8265 O   0  0  0  0  0  0  0  0  0  0  0  0
   -0.2161    0.2434    2.4686 N   0  0  0  0  0  0  0  0  0  0  0  0
   -1.1850    0.3219    2.1537 H   0  0  0  0  0  0  0  0  0  0  0  0
    0.0735    0.4128    3.8885 C   0  0  0  0  0  0  0  0  0  0  0  0
    1.0159    0.9483    4.0105 H   0  0  0  0  0  0  0  0  0  0  0  0
   -0.7315    0.9748    4.3613 H   0  0  0  0  0  0  0  0  0  0  0  0
    0.1564   -0.5677    4.3577 H   0  0  0  0  0  0  0  0  0  0  0  0
  5  6  2  0  0  0  0
  5  7  1  0  0  0  0
  2  3  1  0  0  0  0
  2  4  1  0  0  0  0
  2  5  1  0  0  0  0
  1  2  1  0  0  0  0
 17 18  2  0  0  0  0
 17 19  1  0  0  0  0
 14 15  1  0  0  0  0
 14 16  2  0  0  0  0
 11 12  1  0  0  0  0
 11 13  1  0  0  0  0
 11 14  1  0  0  0  0
  9 10  1  0  0  0  0
  9 11  1  0  0  0  0
  9 17  1  0  0  0  0
  7  8  1  0  0  0  0
  7  9  1  0  0  0  0
 21 22  1  0  0  0  0
 21 23  1  0  0  0  0
 21 24  1  0  0  0  0
 19 20  1  0  0  0  0
 19 21  1  0  0  0  0
M  CHG  1  15  -1
M  END
$$$$
default_name
  -OEChem-02102213163D

 24 23  0     1  0  0  0  0  0999 V2000
   -2.8347   -3.7166    0.8034 H   0  0  0  0  0  0  0  0  0  0  0  0
   -2.7728   -2.7096    0.3954 C   0  0  0  0  0  0  0  0  0  0  0  0
   -3.4267   -2.0426    0.9524 H   0  0  0  0  0  0  0  0  0  0  0  0
   -3.0538   -2.7186   -0.6556 H   0  0  0  0  0  0  0  0  0  0  0  0
   -1.3498   -2.2206    0.5184 C   0  0  0  0  0  0  0  0  0  0  0  0
   -0.4997   -2.9426    1.0194 O   0  0  0  0  0  0  0  0  0  0  0  0
   -1.1198   -0.9926    0.0674 N   0  0  0  0  0  0  0  0  0  0  0  0
   -1.8978   -0.4486   -0.2716 H   0  0  0  0  0  0  0  0  0  0  0  0
    0.1693   -0.2866    0.0854 C   0  0  1  0  0  0  0  0  0  0  0  0
    0.9043   -0.8713   -0.4705 H   0  0  0  0  0  0  0  0  0  0  0  0
    0.0106    1.0816   -0.6124 C   0  0  0  0  0  0  0  0  0  0  0  0
   -0.0019    1.8637    0.1488 H   0  0  0  0  0  0  0  0  0  0  0  0
    0.8791    1.2533   -1.2520 H   0  0  0  0  0  0  0  0  0  0  0  0
   -1.2708    1.2263   -1.4483 C   0  0  0  0  0  0  0  0  0  0  0  0
   -1.3483    2.1725   -2.2670 O   0  5  0  0  0  0  0  0  0  0  0  0
   -2.1783    0.3915   -1.2445 O   0  0  0  0  0  0  0  0  0  0  0  0
    0.6664   -0.1450    1.5428 C   0  0  0  0  0  0  0  0  0  0  0  0
    1.8485   -0.3724    1.8265 O   0  0  0  0  0  0  0  0  0  0  0  0
   -0.2161    0.2434    2.4686 N   0  0  0  0  0  0  0  0  0  0  0  0
   -1.1850    0.3219    2.1537 H   0  0  0  0  0  0  0  0  0  0  0  0
    0.0735    0.4128    3.8885 C   0  0  0  0  0  0  0  0  0  0  0  0
    1.0159    0.9483    4.0105 H   0  0  0  0  0  0  0  0  0  0  0  0
   -0.7315    0.9748    4.3613 H   0  0  0  0  0  0  0  0  0  0  0  0
    0.1564   -0.5677    4.3577 H   0  0  0  0  0  0  0  0  0  0  0  0
  5  6  2  0  0  0  0
  5  7  1  0  0  0  0
  2  3  1  0  0  0  0
  2  4  1  0  0  0  0
  2  5  1  0  0  0  0
  1  2  1  0  0  0  0
 17 18  2  0  0  0  0
 17 19  1  0  0  0  0
 14 15  1  0  0  0  0
 14 16  2  0  0  0  0
 11 12  1  0  0  0  0
 11 13  1  0  0  0  0
 11 14  1  0  0  0  0
  9 10  1  0  0  0  0
  9 11  1  0  0  0  0
  9 17  1  0  0  0  0
  7  8  1  0  0  0  0
  7  9  1  0  0  0  0
 21 22  1  0  0  0  0
 21 23  1  0  0  0  0
 21 24  1  0  0  0  0
 19 20  1  0  0  0  0
 19 21  1  0  0  0  0
M  CHG  1  15  -1
M  END
$$$$
default_name
  -OEChem-02102213163D

 24 23  0     1  0  0  0  0  0999 V2000
   -2.8347   -3.7166    0.8034 H   0  0  0  0  0  0  0  0  0  0  0  0
   -2.7728   -2.7096    0.3954 C   0  0  0  0  0  0  0  0  0  0  0  0
   -3.4267   -2.0426    0.9524 H   0  0  0  0  0  0  0  0  0  0  0  0
   -3.0538   -2.7186   -0.6556 H   0  0  0  0  0  0  0  0  0  0  0  0
   -1.3498   -2.2206    0.5184 C   0  0  0  0  0  0  0  0  0  0  0  0
   -0.4997   -2.9426    1.0194 O   0  0  0  0  0  0  0  0  0  0  0  0
   -1.1198   -0.9926    0.0674 N   0  0  0  0  0  0  0  0  0  0  0  0
   -1.8978   -0.4486   -0.2716 H   0  0  0  0  0  0  0  0  0  0  0  0
    0.1693   -0.2866    0.0854 C   0  0  1  0  0  0  0  0  0  0  0  0
    0.9043   -0.8713   -0.4705 H   0  0  0  0  0  0  0  0  0  0  0  0
    0.0106    1.0816   -0.6124 C   0  0  0  0  0  0  0  0  0  0  0  0
   -0.0019    1.8637    0.1488 H   0  0  0  0  0  0  0  0  0  0  0  0
    0.8791    1.2533   -1.2520 H   0  0  0  0  0  0  0  0  0  0  0  0
   -1.2708    1.2263   -1.4483 C   0  0  0  0  0  0  0  0  0  0  0  0
   -1.2494    1.9764   -2.4526 O   0  5  0  0  0  0  0  0  0  0  0  0
   -2.2761    0.5935   -1.0597 O   0  0  0  0  0  0  0  0  0  0  0  0
    0.6664   -0.1450    1.5428 C   0  0  0  0  0  0  0  0  0  0  0  0
    1.8485   -0.3724    1.8265 O   0  0  0  0  0  0  0  0  0  0  0  0
   -0.2161    0.2434    2.4686 N   0  0  0  0  0  0  0  0  0  0  0  0
   -1.1850    0.3219    2.1537 H   0  0  0  0  0  0  0  0  0  0  0  0
    0.0735    0.4128    3.8885 C   0  0  0  0  0  0  0  0  0  0  0  0
    1.0159    0.9483    4.0105 H   0  0  0  0  0  0  0  0  0  0  0  0
   -0.7315    0.9748    4.3613 H   0  0  0  0  0  0  0  0  0  0  0  0
    0.1564   -0.5677    4.3577 H   0  0  0  0  0  0  0  0  0  0  0  0
  5  6  2  0  0  0  0
  5  7  1  0  0  0  0
  2  3  1  0  0  0  0
  2  4  1  0  0  0  0
  2  5  1  0  0  0  0
  1  2  1  0  0  0  0
 17 18  2  0  0  0  0
 17 19  1  0  0  0  0
 14 15  1  0  0  0  0
 14 16  2  0  0  0  0
 11 12  1  0  0  0  0
 11 13  1  0  0  0  0
 11 14  1  0  0  0  0
  9 10  1  0  0  0  0
  9 11  1  0  0  0  0
  9 17  1  0  0  0  0
  7  8  1  0  0  0  0
  7  9  1  0  0  0  0
 21 22  1  0  0  0  0
 21 23  1  0  0  0  0
 21 24  1  0  0  0  0
 19 20  1  0  0  0  0
 19 21  1  0  0  0  0
M  CHG  1  15  -1
M  END
$$$$
default_name
  -OEChem-02102213163D

 24 23  0     1  0  0  0  0  0999 V2000
   -2.8347   -3.7166    0.8034 H   0  0  0  0  0  0  0  0  0  0  0  0
   -2.7728   -2.7096    0.3954 C   0  0  0  0  0  0  0  0  0  0  0  0
   -3.4267   -2.0426    0.9524 H   0  0  0  0  0  0  0  0  0  0  0  0
   -3.0538   -2.7186   -0.6556 H   0  0  0  0  0  0  0  0  0  0  0  0
   -1.3498   -2.2206    0.5184 C   0  0  0  0  0  0  0  0  0  0  0  0
   -0.4997   -2.9426    1.0194 O   0  0  0  0  0  0  0  0  0  0  0  0
   -1.1198   -0.9926    0.0674 N   0  0  0  0  0  0  0  0  0  0  0  0
   -1.8978   -0.4486   -0.2716 H   0  0  0  0  0  0  0  0  0  0  0  0
    0.1693   -0.2866    0.0854 C   0  0  1  0  0  0  0  0  0  0  0  0
    0.9043   -0.8713   -0.4705 H   0  0  0  0  0  0  0  0  0  0  0  0
    0.0106    1.0816   -0.6124 C   0  0  0  0  0  0  0  0  0  0  0  0
   -0.0019    1.8637    0.1488 H   0  0  0  0  0  0  0  0  0  0  0  0
    0.8791    1.2533   -1.2520 H   0  0  0  0  0  0  0  0  0  0  0  0
   -1.2708    1.2263   -1.4483 C   0  0  0  0  0  0  0  0  0  0  0  0
   -1.1860    1.7330   -2.5918 O   0  5  0  0  0  0  0  0  0  0  0  0
   -2.3376    0.8423   -0.9224 O   0  0  0  0  0  0  0  0  0  0  0  0
    0.6664   -0.1450    1.5428 C   0  0  0  0  0  0  0  0  0  0  0  0
    1.8485   -0.3724    1.8265 O   0  0  0  0  0  0  0  0  0  0  0  0
   -0.2161    0.2434    2.4686 N   0  0  0  0  0  0  0  0  0  0  0  0
   -1.1850    0.3219    2.1537 H   0  0  0  0  0  0  0  0  0  0  0  0
    0.0735    0.4128    3.8885 C   0  0  0  0  0  0  0  0  0  0  0  0
    1.0159    0.9483    4.0105 H   0  0  0  0  0  0  0  0  0  0  0  0
   -0.7315    0.9748    4.3613 H   0  0  0  0  0  0  0  0  0  0  0  0
    0.1564   -0.5677    4.3577 H   0  0  0  0  0  0  0  0  0  0  0  0
  5  6  2  0  0  0  0
  5  7  1  0  0  0  0
  2  3  1  0  0  0  0
  2  4  1  0  0  0  0
  2  5  1  0  0  0  0
  1  2  1  0  0  0  0
 17 18  2  0  0  0  0
 17 19  1  0  0  0  0
 14 15  1  0  0  0  0
 14 16  2  0  0  0  0
 11 12  1  0  0  0  0
 11 13  1  0  0  0  0
 11 14  1  0  0  0  0
  9 10  1  0  0  0  0
  9 11  1  0  0  0  0
  9 17  1  0  0  0  0
  7  8  1  0  0  0  0
  7  9  1  0  0  0  0
 21 22  1  0  0  0  0
 21 23  1  0  0  0  0
 21 24  1  0  0  0  0
 19 20  1  0  0  0  0
 19 21  1  0  0  0  0
M  CHG  1  15  -1
M  END
$$$$
default_name
  -OEChem-02102213163D

 24 23  0     1  0  0  0  0  0999 V2000
   -2.8347   -3.7166    0.8034 H   0  0  0  0  0  0  0  0  0  0  0  0
   -2.7728   -2.7096    0.3954 C   0  0  0  0  0  0  0  0  0  0  0  0
   -3.4267   -2.0426    0.9524 H   0  0  0  0  0  0  0  0  0  0  0  0
   -3.0538   -2.7186   -0.6556 H   0  0  0  0  0  0  0  0  0  0  0  0
   -1.3498   -2.2206    0.5184 C   0  0  0  0  0  0  0  0  0  0  0  0
   -0.4997   -2.9426    1.0194 O   0  0  0  0  0  0  0  0  0  0  0  0
   -1.1198   -0.9926    0.0674 N   0  0  0  0  0  0  0  0  0  0  0  0
   -1.8978   -0.4486   -0.2716 H   0  0  0  0  0  0  0  0  0  0  0  0
    0.1693   -0.2866    0.0854 C   0  0  1  0  0  0  0  0  0  0  0  0
    0.9043   -0.8713   -0.4705 H   0  0  0  0  0  0  0  0  0  0  0  0
    0.0106    1.0816   -0.6124 C   0  0  0  0  0  0  0  0  0  0  0  0
   -0.0019    1.8637    0.1488 H   0  0  0  0  0  0  0  0  0  0  0  0
    0.8791    1.2533   -1.2520 H   0  0  0  0  0  0  0  0  0  0  0  0
   -1.2708    1.2263   -1.4483 C   0  0  0  0  0  0  0  0  0  0  0  0
   -1.1625    1.4590   -2.6754 O   0  5  0  0  0  0  0  0  0  0  0  0
   -2.3586    1.1208   -0.8419 O   0  0  0  0  0  0  0  0  0  0  0  0
    0.6664   -0.1450    1.5428 C   0  0  0  0  0  0  0  0  0  0  0  0
    1.8485   -0.3724    1.8265 O   0  0  0  0  0  0  0  0  0  0  0  0
   -0.2161    0.2434    2.4686 N   0  0  0  0  0  0  0  0  0  0  0  0
   -1.1850    0.3219    2.1537 H   0  0  0  0  0  0  0  0  0  0  0  0
    0.0735    0.4128    3.8885 C   0  0  0  0  0  0  0  0  0  0  0  0
    1.0159    0.9483    4.0105 H   0  0  0  0  0  0  0  0  0  0  0  0
   -0.7315    0.9748    4.3613 H   0  0  0  0  0  0  0  0  0  0  0  0
    0.1564   -0.5677    4.3577 H   0  0  0  0  0  0  0  0  0  0  0  0
  5  6  2  0  0  0  0
  5  7  1  0  0  0  0
  2  3  1  0  0  0  0
  2  4  1  0  0  0  0
  2  5  1  0  0  0  0
  1  2  1  0  0  0  0
 17 18  2  0  0  0  0
 17 19  1  0  0  0  0
 14 15  1  0  0  0  0
 14 16  2  0  0  0  0
 11 12  1  0  0  0  0
 11 13  1  0  0  0  0
 11 14  1  0  0  0  0
  9 10  1  0  0  0  0
  9 11  1  0  0  0  0
  9 17  1  0  0  0  0
  7  8  1  0  0  0  0
  7  9  1  0  0  0  0
 21 22  1  0  0  0  0
 21 23  1  0  0  0  0
 21 24  1  0  0  0  0
 19 20  1  0  0  0  0
 19 21  1  0  0  0  0
M  CHG  1  15  -1
M  END
$$$$
default_name
  -OEChem-02102213163D

 24 23  0     1  0  0  0  0  0999 V2000
   -2.8347   -3.7166    0.8034 H   0  0  0  0  0  0  0  0  0  0  0  0
   -2.7728   -2.7096    0.3954 C   0  0  0  0  0  0  0  0  0  0  0  0
   -3.4267   -2.0426    0.9524 H   0  0  0  0  0  0  0  0  0  0  0  0
   -3.0538   -2.7186   -0.6556 H   0  0  0  0  0  0  0  0  0  0  0  0
   -1.3498   -2.2206    0.5184 C   0  0  0  0  0  0  0  0  0  0  0  0
   -0.4997   -2.9426    1.0194 O   0  0  0  0  0  0  0  0  0  0  0  0
   -1.1198   -0.9926    0.0674 N   0  0  0  0  0  0  0  0  0  0  0  0
   -1.8978   -0.4486   -0.2716 H   0  0  0  0  0  0  0  0  0  0  0  0
    0.1693   -0.2866    0.0854 C   0  0  1  0  0  0  0  0  0  0  0  0
    0.9043   -0.8713   -0.4705 H   0  0  0  0  0  0  0  0  0  0  0  0
    0.0106    1.0816   -0.6124 C   0  0  0  0  0  0  0  0  0  0  0  0
   -0.0019    1.8637    0.1488 H   0  0  0  0  0  0  0  0  0  0  0  0
    0.8791    1.2533   -1.2520 H   0  0  0  0  0  0  0  0  0  0  0  0
   -1.2708    1.2263   -1.4483 C   0  0  0  0  0  0  0  0  0  0  0  0
   -1.1803    1.1729   -2.6975 O   0  5  0  0  0  0  0  0  0  0  0  0
   -2.3377    1.4103   -0.8238 O   0  0  0  0  0  0  0  0  0  0  0  0
    0.6664   -0.1450    1.5428 C   0  0  0  0  0  0  0  0  0  0  0  0
    1.8485   -0.3724    1.8265 O   0  0  0  0  0  0  0  0  0  0  0  0
   -0.2161    0.2434    2.4686 N   0  0  0  0  0  0  0  0  0  0  0  0
   -1.1850    0.3219    2.1537 H   0  0  0  0  0  0  0  0  0  0  0  0
    0.0735    0.4128    3.8885 C   0  0  0  0  0  0  0  0  0  0  0  0
    1.0159    0.9483    4.0105 H   0  0  0  0  0  0  0  0  0  0  0  0
   -0.7315    0.9748    4.3613 H   0  0  0  0  0  0  0  0  0  0  0  0
    0.1564   -0.5677    4.3577 H   0  0  0  0  0  0  0  0  0  0  0  0
  5  6  2  0  0  0  0
  5  7  1  0  0  0  0
  2  3  1  0  0  0  0
  2  4  1  0  0  0  0
  2  5  1  0  0  0  0
  1  2  1  0  0  0  0
 17 18  2  0  0  0  0
 17 19  1  0  0  0  0
 14 15  1  0  0  0  0
 14 16  2  0  0  0  0
 11 12  1  0  0  0  0
 11 13  1  0  0  0  0
 11 14  1  0  0  0  0
  9 10  1  0  0  0  0
  9 11  1  0  0  0  0
  9 17  1  0  0  0  0
  7  8  1  0  0  0  0
  7  9  1  0  0  0  0
 21 22  1  0  0  0  0
 21 23  1  0  0  0  0
 21 24  1  0  0  0  0
 19 20  1  0  0  0  0
 19 21  1  0  0  0  0
M  CHG  1  15  -1
M  END
$$$$
default_name
  -OEChem-02102213163D

 24 23  0     1  0  0  0  0  0999 V2000
   -2.8347   -3.7166    0.8034 H   0  0  0  0  0  0  0  0  0  0  0  0
   -2.7728   -2.7096    0.3954 C   0  0  0  0  0  0  0  0  0  0  0  0
   -3.4267   -2.0426    0.9524 H   0  0  0  0  0  0  0  0  0  0  0  0
   -3.0538   -2.7186   -0.6556 H   0  0  0  0  0  0  0  0  0  0  0  0
   -1.3498   -2.2206    0.5184 C   0  0  0  0  0  0  0  0  0  0  0  0
   -0.4997   -2.9426    1.0194 O   0  0  0  0  0  0  0  0  0  0  0  0
   -1.1198   -0.9926    0.0674 N   0  0  0  0  0  0  0  0  0  0  0  0
   -1.8978   -0.4486   -0.2716 H   0  0  0  0  0  0  0  0  0  0  0  0
    0.1693   -0.2866    0.0854 C   0  0  1  0  0  0  0  0  0  0  0  0
    0.9043   -0.8713   -0.4705 H   0  0  0  0  0  0  0  0  0  0  0  0
    0.0106    1.0816   -0.6124 C   0  0  0  0  0  0  0  0  0  0  0  0
   -0.0019    1.8637    0.1488 H   0  0  0  0  0  0  0  0  0  0  0  0
    0.8791    1.2533   -1.2520 H   0  0  0  0  0  0  0  0  0  0  0  0
   -1.2708    1.2263   -1.4483 C   0  0  0  0  0  0  0  0  0  0  0  0
   -1.2384    0.8943   -2.6567 O   0  5  0  0  0  0  0  0  0  0  0  0
   -2.2764    1.6908   -0.8693 O   0  0  0  0  0  0  0  0  0  0  0  0
    0.6664   -0.1450    1.5428 C   0  0  0  0  0  0  0  0  0  0  0  0
    1.8485   -0.3724    1.8265 O   0  0  0  0  0  0  0  0  0  0  0  0
   -0.2161    0.2434    2.4686 N   0  0  0  0  0  0  0  0  0  0  0  0
   -1.1850    0.3219    2.1537 H   0  0  0  0  0  0  0  0  0  0  0  0
    0.0735    0.4128    3.8885 C   0  0  0  0  0  0  0  0  0  0  0  0
    1.0159    0.9483    4.0105 H   0  0  0  0  0  0  0  0  0  0  0  0
   -0.7315    0.9748    4.3613 H   0  0  0  0  0  0  0  0  0  0  0  0
    0.1564   -0.5677    4.3577 H   0  0  0  0  0  0  0  0  0  0  0  0
  5  6  2  0  0  0  0
  5  7  1  0  0  0  0
  2  3  1  0  0  0  0
  2  4  1  0  0  0  0
  2  5  1  0  0  0  0
  1  2  1  0  0  0  0
 17 18  2  0  0  0  0
 17 19  1  0  0  0  0
 14 15  1  0  0  0  0
 14 16  2  0  0  0  0
 11 12  1  0  0  0  0
 11 13  1  0  0  0  0
 11 14  1  0  0  0  0
  9 10  1  0  0  0  0
  9 11  1  0  0  0  0
  9 17  1  0  0  0  0
  7  8  1  0  0  0  0
  7  9  1  0  0  0  0
 21 22  1  0  0  0  0
 21 23  1  0  0  0  0
 21 24  1  0  0  0  0
 19 20  1  0  0  0  0
 19 21  1  0  0  0  0
M  CHG  1  15  -1
M  END
$$$$
default_name
  -OEChem-02102213163D

 24 23  0     1  0  0  0  0  0999 V2000
   -2.8347   -3.7166    0.8034 H   0  0  0  0  0  0  0  0  0  0  0  0
   -2.7728   -2.7096    0.3954 C   0  0  0  0  0  0  0  0  0  0  0  0
   -3.4267   -2.0426    0.9524 H   0  0  0  0  0  0  0  0  0  0  0  0
   -3.0538   -2.7186   -0.6556 H   0  0  0  0  0  0  0  0  0  0  0  0
   -1.3498   -2.2206    0.5184 C   0  0  0  0  0  0  0  0  0  0  0  0
   -0.4997   -2.9426    1.0194 O   0  0  0  0  0  0  0  0  0  0  0  0
   -1.1198   -0.9926    0.0674 N   0  0  0  0  0  0  0  0  0  0  0  0
   -1.8978   -0.4486   -0.2716 H   0  0  0  0  0  0  0  0  0  0  0  0
    0.1693   -0.2866    0.0854 C   0  0  1  0  0  0  0  0  0  0  0  0
    0.9043   -0.8713   -0.4705 H   0  0  0  0  0  0  0  0  0  0  0  0
    0.0106    1.0816   -0.6124 C   0  0  0  0  0  0  0  0  0  0  0  0
   -0.0019    1.8637    0.1488 H   0  0  0  0  0  0  0  0  0  0  0  0
    0.8791    1.2533   -1.2520 H   0  0  0  0  0  0  0  0  0  0  0  0
   -1.2708    1.2263   -1.4483 C   0  0  0  0  0  0  0  0  0  0  0  0
   -1.3327    0.6422   -2.5558 O   0  5  0  0  0  0  0  0  0  0  0  0
   -2.1787    1.9433   -0.9753 O   0  0  0  0  0  0  0  0  0  0  0  0
    0.6664   -0.1450    1.5428 C   0  0  0  0  0  0  0  0  0  0  0  0
    1.8485   -0.3724    1.8265 O   0  0  0  0  0  0  0  0  0  0  0  0
   -0.2161    0.2434    2.4686 N   0  0  0  0  0  0  0  0  0  0  0  0
   -1.1850    0.3219    2.1537 H   0  0  0  0  0  0  0  0  0  0  0  0
    0.0735    0.4128    3.8885 C   0  0  0  0  0  0  0  0  0  0  0  0
    1.0159    0.9483    4.0105 H   0  0  0  0  0  0  0  0  0  0  0  0
   -0.7315    0.9748    4.3613 H   0  0  0  0  0  0  0  0  0  0  0  0
    0.1564   -0.5677    4.3577 H   0  0  0  0  0  0  0  0  0  0  0  0
  5  6  2  0  0  0  0
  5  7  1  0  0  0  0
  2  3  1  0  0  0  0
  2  4  1  0  0  0  0
  2  5  1  0  0  0  0
  1  2  1  0  0  0  0
 17 18  2  0  0  0  0
 17 19  1  0  0  0  0
 14 15  1  0  0  0  0
 14 16  2  0  0  0  0
 11 12  1  0  0  0  0
 11 13  1  0  0  0  0
 11 14  1  0  0  0  0
  9 10  1  0  0  0  0
  9 11  1  0  0  0  0
  9 17  1  0  0  0  0
  7  8  1  0  0  0  0
  7  9  1  0  0  0  0
 21 22  1  0  0  0  0
 21 23  1  0  0  0  0
 21 24  1  0  0  0  0
 19 20  1  0  0  0  0
 19 21  1  0  0  0  0
M  CHG  1  15  -1
M  END
$$$$
default_name
  -OEChem-02102213163D

 24 23  0     1  0  0  0  0  0999 V2000
   -2.8347   -3.7166    0.8034 H   0  0  0  0  0  0  0  0  0  0  0  0
   -2.7728   -2.7096    0.3954 C   0  0  0  0  0  0  0  0  0  0  0  0
   -3.4267   -2.0426    0.9524 H   0  0  0  0  0  0  0  0  0  0  0  0
   -3.0538   -2.7186   -0.6556 H   0  0  0  0  0  0  0  0  0  0  0  0
   -1.3498   -2.2206    0.5184 C   0  0  0  0  0  0  0  0  0  0  0  0
   -0.4997   -2.9426    1.0194 O   0  0  0  0  0  0  0  0  0  0  0  0
   -1.1198   -0.9926    0.0674 N   0  0  0  0  0  0  0  0  0  0  0  0
   -1.8978   -0.4486   -0.2716 H   0  0  0  0  0  0  0  0  0  0  0  0
    0.1693   -0.2866    0.0854 C   0  0  1  0  0  0  0  0  0  0  0  0
    0.9043   -0.8713   -0.4705 H   0  0  0  0  0  0  0  0  0  0  0  0
    0.0106    1.0816   -0.6124 C   0  0  0  0  0  0  0  0  0  0  0  0
   -0.0019    1.8637    0.1488 H   0  0  0  0  0  0  0  0  0  0  0  0
    0.8791    1.2533   -1.2520 H   0  0  0  0  0  0  0  0  0  0  0  0
   -1.2708    1.2263   -1.4483 C   0  0  0  0  0  0  0  0  0  0  0  0
   -1.4569    0.4337   -2.4016 O   0  5  0  0  0  0  0  0  0  0  0  0
   -2.0515    2.1506   -1.1345 O   0  0  0  0  0  0  0  0  0  0  0  0
    0.6664   -0.1450    1.5428 C   0  0  0  0  0  0  0  0  0  0  0  0
    1.8485   -0.3724    1.8265 O   0  0  0  0  0  0  0  0  0  0  0  0
   -0.2161    0.2434    2.4686 N   0  0  0  0  0  0  0  0  0  0  0  0
   -1.1850    0.3219    2.1537 H   0  0  0  0  0  0  0  0  0  0  0  0
    0.0735    0.4128    3.8885 C   0  0  0  0  0  0  0  0  0  0  0  0
    1.0159    0.9483    4.0105 H   0  0  0  0  0  0  0  0  0  0  0  0
   -0.7315    0.9748    4.3613 H   0  0  0  0  0  0  0  0  0  0  0  0
    0.1564   -0.5677    4.3577 H   0  0  0  0  0  0  0  0  0  0  0  0
  5  6  2  0  0  0  0
  5  7  1  0  0  0  0
  2  3  1  0  0  0  0
  2  4  1  0  0  0  0
  2  5  1  0  0  0  0
  1  2  1  0  0  0  0
 17 18  2  0  0  0  0
 17 19  1  0  0  0  0
 14 15  1  0  0  0  0
 14 16  2  0  0  0  0
 11 12  1  0  0  0  0
 11 13  1  0  0  0  0
 11 14  1  0  0  0  0
  9 10  1  0  0  0  0
  9 11  1  0  0  0  0
  9 17  1  0  0  0  0
  7  8  1  0  0  0  0
  7  9  1  0  0  0  0
 21 22  1  0  0  0  0
 21 23  1  0  0  0  0
 21 24  1  0  0  0  0
 19 20  1  0  0  0  0
 19 21  1  0  0  0  0
M  CHG  1  15  -1
M  END
$$$$
default_name
  -OEChem-02102213163D

 24 23  0     1  0  0  0  0  0999 V2000
   -2.8347   -3.7166    0.8034 H   0  0  0  0  0  0  0  0  0  0  0  0
   -2.7728   -2.7096    0.3954 C   0  0  0  0  0  0  0  0  0  0  0  0
   -3.4267   -2.0426    0.9524 H   0  0  0  0  0  0  0  0  0  0  0  0
   -3.0538   -2.7186   -0.6556 H   0  0  0  0  0  0  0  0  0  0  0  0
   -1.3498   -2.2206    0.5184 C   0  0  0  0  0  0  0  0  0  0  0  0
   -0.4997   -2.9426    1.0194 O   0  0  0  0  0  0  0  0  0  0  0  0
   -1.1198   -0.9926    0.0674 N   0  0  0  0  0  0  0  0  0  0  0  0
   -1.8978   -0.4486   -0.2716 H   0  0  0  0  0  0  0  0  0  0  0  0
    0.1693   -0.2866    0.0854 C   0  0  1  0  0  0  0  0  0  0  0  0
    0.9043   -0.8713   -0.4705 H   0  0  0  0  0  0  0  0  0  0  0  0
    0.0106    1.0816   -0.6124 C   0  0  0  0  0  0  0  0  0  0  0  0
   -0.0019    1.8637    0.1488 H   0  0  0  0  0  0  0  0  0  0  0  0
    0.8791    1.2533   -1.2520 H   0  0  0  0  0  0  0  0  0  0  0  0
   -1.2708    1.2263   -1.4483 C   0  0  0  0  0  0  0  0  0  0  0  0
   -1.6024    0.2831   -2.2046 O   0  5  0  0  0  0  0  0  0  0  0  0
   -1.9032    2.2985   -1.3362 O   0  0  0  0  0  0  0  0  0  0  0  0
    0.6664   -0.1450    1.5428 C   0  0  0  0  0  0  0  0  0  0  0  0
    1.8485   -0.3724    1.8265 O   0  0  0  0  0  0  0  0  0  0  0  0
   -0.2161    0.2434    2.4686 N   0  0  0  0  0  0  0  0  0  0  0  0
   -1.1850    0.3219    2.1537 H   0  0  0  0  0  0  0  0  0  0  0  0
    0.0735    0.4128    3.8885 C   0  0  0  0  0  0  0  0  0  0  0  0
    1.0159    0.9483    4.0105 H   0  0  0  0  0  0  0  0  0  0  0  0
   -0.7315    0.9748    4.3613 H   0  0  0  0  0  0  0  0  0  0  0  0
    0.1564   -0.5677    4.3577 H   0  0  0  0  0  0  0  0  0  0  0  0
  5  6  2  0  0  0  0
  5  7  1  0  0  0  0
  2  3  1  0  0  0  0
  2  4  1  0  0  0  0
  2  5  1  0  0  0  0
  1  2  1  0  0  0  0
 17 18  2  0  0  0  0
 17 19  1  0  0  0  0
 14 15  1  0  0  0  0
 14 16  2  0  0  0  0
 11 12  1  0  0  0  0
 11 13  1  0  0  0  0
 11 14  1  0  0  0  0
  9 10  1  0  0  0  0
  9 11  1  0  0  0  0
  9 17  1  0  0  0  0
  7  8  1  0  0  0  0
  7  9  1  0  0  0  0
 21 22  1  0  0  0  0
 21 23  1  0  0  0  0
 21 24  1  0  0  0  0
 19 20  1  0  0  0  0
 19 21  1  0  0  0  0
M  CHG  1  15  -1
M  END
$$$$
default_name
  -OEChem-02102213163D

 24 23  0     1  0  0  0  0  0999 V2000
   -2.8347   -3.7166    0.8034 H   0  0  0  0  0  0  0  0  0  0  0  0
   -2.7728   -2.7096    0.3954 C   0  0  0  0  0  0  0  0  0  0  0  0
   -3.4267   -2.0426    0.9524 H   0  0  0  0  0  0  0  0  0  0  0  0
   -3.0538   -2.7186   -0.6556 H   0  0  0  0  0  0  0  0  0  0  0  0
   -1.3498   -2.2206    0.5184 C   0  0  0  0  0  0  0  0  0  0  0  0
   -0.4997   -2.9426    1.0194 O   0  0  0  0  0  0  0  0  0  0  0  0
   -1.1198   -0.9926    0.0674 N   0  0  0  0  0  0  0  0  0  0  0  0
   -1.8978   -0.4486   -0.2716 H   0  0  0  0  0  0  0  0  0  0  0  0
    0.1693   -0.2866    0.0854 C   0  0  1  0  0  0  0  0  0  0  0  0
    0.9043   -0.8713   -0.4705 H   0  0  0  0  0  0  0  0  0  0  0  0
    0.0106    1.0816   -0.6124 C   0  0  0  0  0  0  0  0  0  0  0  0
   -0.0019    1.8637    0.1488 H   0  0  0  0  0  0  0  0  0  0  0  0
    0.8791    1.2533   -1.2520 H   0  0  0  0  0  0  0  0  0  0  0  0
   -1.2708    1.2263   -1.4483 C   0  0  0  0  0  0  0  0  0  0  0  0
   -1.7593    0.2006   -1.9783 O   0  5  0  0  0  0  0  0  0  0  0  0
   -1.7441    2.3770   -1.5665 O   0  0  0  0  0  0  0  0  0  0  0  0
    0.6664   -0.1450    1.5428 C   0  0  0  0  0  0  0  0  0  0  0  0
    1.8485   -0.3724    1.8265 O   0  0  0  0  0  0  0  0  0  0  0  0
   -0.2161    0.2434    2.4686 N   0  0  0  0  0  0  0  0  0  0  0  0
   -1.1850    0.3219    2.1537 H   0  0  0  0  0  0  0  0  0  0  0  0
    0.0735    0.4128    3.8885 C   0  0  0  0  0  0  0  0  0  0  0  0
    1.0159    0.9483    4.0105 H   0  0  0  0  0  0  0  0  0  0  0  0
   -0.7315    0.9748    4.3613 H   0  0  0  0  0  0  0  0  0  0  0  0
    0.1564   -0.5677    4.3577 H   0  0  0  0  0  0  0  0  0  0  0  0
  5  6  2  0  0  0  0
  5  7  1  0  0  0  0
  2  3  1  0  0  0  0
  2  4  1  0  0  0  0
  2  5  1  0  0  0  0
  1  2  1  0  0  0  0
 17 18  2  0  0  0  0
 17 19  1  0  0  0  0
 14 15  1  0  0  0  0
 14 16  2  0  0  0  0
 11 12  1  0  0  0  0
 11 13  1  0  0  0  0
 11 14  1  0  0  0  0
  9 10  1  0  0  0  0
  9 11  1  0  0  0  0
  9 17  1  0  0  0  0
  7  8  1  0  0  0  0
  7  9  1  0  0  0  0
 21 22  1  0  0  0  0
 21 23  1  0  0  0  0
 21 24  1  0  0  0  0
 19 20  1  0  0  0  0
 19 21  1  0  0  0  0
M  CHG  1  15  -1
M  END
$$$$
default_name
  -OEChem-02102213163D

 24 23  0     1  0  0  0  0  0999 V2000
   -2.8347   -3.7166    0.8034 H   0  0  0  0  0  0  0  0  0  0  0  0
   -2.7728   -2.7096    0.3954 C   0  0  0  0  0  0  0  0  0  0  0  0
   -3.4267   -2.0426    0.9524 H   0  0  0  0  0  0  0  0  0  0  0  0
   -3.0538   -2.7186   -0.6556 H   0  0  0  0  0  0  0  0  0  0  0  0
   -1.3498   -2.2206    0.5184 C   0  0  0  0  0  0  0  0  0  0  0  0
   -0.4997   -2.9426    1.0194 O   0  0  0  0  0  0  0  0  0  0  0  0
   -1.1198   -0.9926    0.0674 N   0  0  0  0  0  0  0  0  0  0  0  0
   -1.8978   -0.4486   -0.2716 H   0  0  0  0  0  0  0  0  0  0  0  0
    0.1693   -0.2866    0.0854 C   0  0  1  0  0  0  0  0  0  0  0  0
    0.9043   -0.8713   -0.4705 H   0  0  0  0  0  0  0  0  0  0  0  0
    0.0106    1.0816   -0.6124 C   0  0  0  0  0  0  0  0  0  0  0  0
   -0.0019    1.8637    0.1488 H   0  0  0  0  0  0  0  0  0  0  0  0
    0.8791    1.2533   -1.2520 H   0  0  0  0  0  0  0  0  0  0  0  0
   -1.2708    1.2263   -1.4483 C   0  0  0  0  0  0  0  0  0  0  0  0
   -1.9170    0.1919   -1.7381 O   0  5  0  0  0  0  0  0  0  0  0  0
   -1.5850    2.3808   -1.8098 O   0  0  0  0  0  0  0  0  0  0  0  0
    0.6664   -0.1450    1.5428 C   0  0  0  0  0  0  0  0  0  0  0  0
    1.8485   -0.3724    1.8265 O   0  0  0  0  0  0  0  0  0  0  0  0
   -0.2161    0.2434    2.4686 N   0  0  0  0  0  0  0  0  0  0  0  0
   -1.1850    0.3219    2.1537 H   0  0  0  0  0  0  0  0  0  0  0  0
    0.0735    0.4128    3.8885 C   0  0  0  0  0  0  0  0  0  0  0  0
    1.0159    0.9483    4.0105 H   0  0  0  0  0  0  0  0  0  0  0  0
   -0.7315    0.9748    4.3613 H   0  0  0  0  0  0  0  0  0  0  0  0
    0.1564   -0.5677    4.3577 H   0  0  0  0  0  0  0  0  0  0  0  0
  5  6  2  0  0  0  0
  5  7  1  0  0  0  0
  2  3  1  0  0  0  0
  2  4  1  0  0  0  0
  2  5  1  0  0  0  0
  1  2  1  0  0  0  0
 17 18  2  0  0  0  0
 17 19  1  0  0  0  0
 14 15  1  0  0  0  0
 14 16  2  0  0  0  0
 11 12  1  0  0  0  0
 11 13  1  0  0  0  0
 11 14  1  0  0  0  0
  9 10  1  0  0  0  0
  9 11  1  0  0  0  0
  9 17  1  0  0  0  0
  7  8  1  0  0  0  0
  7  9  1  0  0  0  0
 21 22  1  0  0  0  0
 21 23  1  0  0  0  0
 21 24  1  0  0  0  0
 19 20  1  0  0  0  0
 19 21  1  0  0  0  0
M  CHG  1  15  -1
M  END
$$$$
default_name
  -OEChem-02102213163D

 24 23  0     1  0  0  0  0  0999 V2000
   -2.8347   -3.7166    0.8034 H   0  0  0  0  0  0  0  0  0  0  0  0
   -2.7728   -2.7096    0.3954 C   0  0  0  0  0  0  0  0  0  0  0  0
   -3.4267   -2.0426    0.9524 H   0  0  0  0  0  0  0  0  0  0  0  0
   -3.0538   -2.7186   -0.6556 H   0  0  0  0  0  0  0  0  0  0  0  0
   -1.3498   -2.2206    0.5184 C   0  0  0  0  0  0  0  0  0  0  0  0
   -0.4997   -2.9426    1.0194 O   0  0  0  0  0  0  0  0  0  0  0  0
   -1.1198   -0.9926    0.0674 N   0  0  0  0  0  0  0  0  0  0  0  0
   -1.8978   -0.4486   -0.2716 H   0  0  0  0  0  0  0  0  0  0  0  0
    0.1693   -0.2866    0.0854 C   0  0  1  0  0  0  0  0  0  0  0  0
    0.9043   -0.8713   -0.4705 H   0  0  0  0  0  0  0  0  0  0  0  0
    0.0106    1.0816   -0.6124 C   0  0  0  0  0  0  0  0  0  0  0  0
   -0.0019    1.8637    0.1488 H   0  0  0  0  0  0  0  0  0  0  0  0
    0.8791    1.2533   -1.2520 H   0  0  0  0  0  0  0  0  0  0  0  0
   -1.2708    1.2263   -1.4483 C   0  0  0  0  0  0  0  0  0  0  0  0
   -2.0647    0.2575   -1.5003 O   0  5  0  0  0  0  0  0  0  0  0  0
   -1.4367    2.3095   -2.0494 O   0  0  0  0  0  0  0  0  0  0  0  0
    0.6664   -0.1450    1.5428 C   0  0  0  0  0  0  0  0  0  0  0  0
    1.8485   -0.3724    1.8265 O   0  0  0  0  0  0  0  0  0  0  0  0
   -0.2161    0.2434    2.4686 N   0  0  0  0  0  0  0  0  0  0  0  0
   -1.1850    0.3219    2.1537 H   0  0  0  0  0  0  0  0  0  0  0  0
    0.0735    0.4128    3.8885 C   0  0  0  0  0  0  0  0  0  0  0  0
    1.0159    0.9483    4.0105 H   0  0  0  0  0  0  0  0  0  0  0  0
   -0.7315    0.9748    4.3613 H   0  0  0  0  0  0  0  0  0  0  0  0
    0.1564   -0.5677    4.3577 H   0  0  0  0  0  0  0  0  0  0  0  0
  5  6  2  0  0  0  0
  5  7  1  0  0  0  0
  2  3  1  0  0  0  0
  2  4  1  0  0  0  0
  2  5  1  0  0  0  0
  1  2  1  0  0  0  0
 17 18  2  0  0  0  0
 17 19  1  0  0  0  0
 14 15  1  0  0  0  0
 14 16  2  0  0  0  0
 11 12  1  0  0  0  0
 11 13  1  0  0  0  0
 11 14  1  0  0  0  0
  9 10  1  0  0  0  0
  9 11  1  0  0  0  0
  9 17  1  0  0  0  0
  7  8  1  0  0  0  0
  7  9  1  0  0  0  0
 21 22  1  0  0  0  0
 21 23  1  0  0  0  0
 21 24  1  0  0  0  0
 19 20  1  0  0  0  0
 19 21  1  0  0  0  0
M  CHG  1  15  -1
M  END
$$$$
default_name
  -OEChem-02102213163D

 24 23  0     1  0  0  0  0  0999 V2000
   -2.8347   -3.7166    0.8034 H   0  0  0  0  0  0  0  0  0  0  0  0
   -2.7728   -2.7096    0.3954 C   0  0  0  0  0  0  0  0  0  0  0  0
   -3.4267   -2.0426    0.9524 H   0  0  0  0  0  0  0  0  0  0  0  0
   -3.0538   -2.7186   -0.6556 H   0  0  0  0  0  0  0  0  0  0  0  0
   -1.3498   -2.2206    0.5184 C   0  0  0  0  0  0  0  0  0  0  0  0
   -0.4997   -2.9426    1.0194 O   0  0  0  0  0  0  0  0  0  0  0  0
   -1.1198   -0.9926    0.0674 N   0  0  0  0  0  0  0  0  0  0  0  0
   -1.8978   -0.4486   -0.2716 H   0  0  0  0  0  0  0  0  0  0  0  0
    0.1693   -0.2866    0.0854 C   0  0  1  0  0  0  0  0  0  0  0  0
    0.9043   -0.8713   -0.4705 H   0  0  0  0  0  0  0  0  0  0  0  0
    0.0106    1.0816   -0.6124 C   0  0  0  0  0  0  0  0  0  0  0  0
   -0.0019    1.8637    0.1488 H   0  0  0  0  0  0  0  0  0  0  0  0
    0.8791    1.2533   -1.2520 H   0  0  0  0  0  0  0  0  0  0  0  0
   -1.2708    1.2263   -1.4483 C   0  0  0  0  0  0  0  0  0  0  0  0
   -2.1923    0.3930   -1.2812 O   0  5  0  0  0  0  0  0  0  0  0  0
   -1.3093    2.1680   -2.2692 O   0  0  0  0  0  0  0  0  0  0  0  0
    0.6664   -0.1450    1.5428 C   0  0  0  0  0  0  0  0  0  0  0  0
    1.8485   -0.3724    1.8265 O   0  0  0  0  0  0  0  0  0  0  0  0
   -0.2161    0.2434    2.4686 N   0  0  0  0  0  0  0  0  0  0  0  0
   -1.1850    0.3219    2.1537 H   0  0  0  0  0  0  0  0  0  0  0  0
    0.0735    0.4128    3.8885 C   0  0  0  0  0  0  0  0  0  0  0  0
    1.0159    0.9483    4.0105 H   0  0  0  0  0  0  0  0  0  0  0  0
   -0.7315    0.9748    4.3613 H   0  0  0  0  0  0  0  0  0  0  0  0
    0.1564   -0.5677    4.3577 H   0  0  0  0  0  0  0  0  0  0  0  0
  5  6  2  0  0  0  0
  5  7  1  0  0  0  0
  2  3  1  0  0  0  0
  2  4  1  0  0  0  0
  2  5  1  0  0  0  0
  1  2  1  0  0  0  0
 17 18  2  0  0  0  0
 17 19  1  0  0  0  0
 14 15  1  0  0  0  0
 14 16  2  0  0  0  0
 11 12  1  0  0  0  0
 11 13  1  0  0  0  0
 11 14  1  0  0  0  0
  9 10  1  0  0  0  0
  9 11  1  0  0  0  0
  9 17  1  0  0  0  0
  7  8  1  0  0  0  0
  7  9  1  0  0  0  0
 21 22  1  0  0  0  0
 21 23  1  0  0  0  0
 21 24  1  0  0  0  0
 19 20  1  0  0  0  0
 19 21  1  0  0  0  0
M  CHG  1  15  -1
M  END
$$$$
default_name
  -OEChem-02102213163D

 24 23  0     1  0  0  0  0  0999 V2000
   -2.8347   -3.7166    0.8034 H   0  0  0  0  0  0  0  0  0  0  0  0
   -2.7728   -2.7096    0.3954 C   0  0  0  0  0  0  0  0  0  0  0  0
   -3.4267   -2.0426    0.9524 H   0  0  0  0  0  0  0  0  0  0  0  0
   -3.0538   -2.7186   -0.6556 H   0  0  0  0  0  0  0  0  0  0  0  0
   -1.3498   -2.2206    0.5184 C   0  0  0  0  0  0  0  0  0  0  0  0
   -0.4997   -2.9426    1.0194 O   0  0  0  0  0  0  0  0  0  0  0  0
   -1.1198   -0.9926    0.0674 N   0  0  0  0  0  0  0  0  0  0  0  0
   -1.8978   -0.4486   -0.2716 H   0  0  0  0  0  0  0  0  0  0  0  0
    0.1693   -0.2866    0.0854 C   0  0  1  0  0  0  0  0  0  0  0  0
    0.9043   -0.8713   -0.4705 H   0  0  0  0  0  0  0  0  0  0  0  0
    0.0106    1.0816   -0.6124 C   0  0  0  0  0  0  0  0  0  0  0  0
   -0.0019    1.8637    0.1488 H   0  0  0  0  0  0  0  0  0  0  0  0
    0.8791    1.2533   -1.2520 H   0  0  0  0  0  0  0  0  0  0  0  0
   -1.2708    1.2263   -1.4483 C   0  0  0  0  0  0  0  0  0  0  0  0
   -2.2912    0.5891   -1.0957 O   0  5  0  0  0  0  0  0  0  0  0  0
   -1.2116    1.9660   -2.4540 O   0  0  0  0  0  0  0  0  0  0  0  0
    0.6664   -0.1450    1.5428 C   0  0  0  0  0  0  0  0  0  0  0  0
    1.8485   -0.3724    1.8265 O   0  0  0  0  0  0  0  0  0  0  0  0
   -0.2161    0.2434    2.4686 N   0  0  0  0  0  0  0  0  0  0  0  0
   -1.1850    0.3219    2.1537 H   0  0  0  0  0  0  0  0  0  0  0  0
    0.0735    0.4128    3.8885 C   0  0  0  0  0  0  0  0  0  0  0  0
    1.0159    0.9483    4.0105 H   0  0  0  0  0  0  0  0  0  0  0  0
   -0.7315    0.9748    4.3613 H   0  0  0  0  0  0  0  0  0  0  0  0
    0.1564   -0.5677    4.3577 H   0  0  0  0  0  0  0  0  0  0  0  0
  5  6  2  0  0  0  0
  5  7  1  0  0  0  0
  2  3  1  0  0  0  0
  2  4  1  0  0  0  0
  2  5  1  0  0  0  0
  1  2  1  0  0  0  0
 17 18  2  0  0  0  0
 17 19  1  0  0  0  0
 14 15  1  0  0  0  0
 14 16  2  0  0  0  0
 11 12  1  0  0  0  0
 11 13  1  0  0  0  0
 11 14  1  0  0  0  0
  9 10  1  0  0  0  0
  9 11  1  0  0  0  0
  9 17  1  0  0  0  0
  7  8  1  0  0  0  0
  7  9  1  0  0  0  0
 21 22  1  0  0  0  0
 21 23  1  0  0  0  0
 21 24  1  0  0  0  0
 19 20  1  0  0  0  0
 19 21  1  0  0  0  0
M  CHG  1  15  -1
M  END
$$$$
default_name
  -OEChem-02102213163D

 24 23  0     1  0  0  0  0  0999 V2000
   -2.8347   -3.7166    0.8034 H   0  0  0  0  0  0  0  0  0  0  0  0
   -2.7728   -2.7096    0.3954 C   0  0  0  0  0  0  0  0  0  0  0  0
   -3.4267   -2.0426    0.9524 H   0  0  0  0  0  0  0  0  0  0  0  0
   -3.0538   -2.7186   -0.6556 H   0  0  0  0  0  0  0  0  0  0  0  0
   -1.3498   -2.2206    0.5184 C   0  0  0  0  0  0  0  0  0  0  0  0
   -0.4997   -2.9426    1.0194 O   0  0  0  0  0  0  0  0  0  0  0  0
   -1.1198   -0.9926    0.0674 N   0  0  0  0  0  0  0  0  0  0  0  0
   -1.8978   -0.4486   -0.2716 H   0  0  0  0  0  0  0  0  0  0  0  0
    0.1693   -0.2866    0.0854 C   0  0  1  0  0  0  0  0  0  0  0  0
    0.9043   -0.8713   -0.4705 H   0  0  0  0  0  0  0  0  0  0  0  0
    0.0106    1.0816   -0.6124 C   0  0  0  0  0  0  0  0  0  0  0  0
   -0.0019    1.8637    0.1488 H   0  0  0  0  0  0  0  0  0  0  0  0
    0.8791    1.2533   -1.2520 H   0  0  0  0  0  0  0  0  0  0  0  0
   -1.2708    1.2263   -1.4483 C   0  0  0  0  0  0  0  0  0  0  0  0
   -2.3546    0.8325   -0.9564 O   0  5  0  0  0  0  0  0  0  0  0  0
   -1.1501    1.7172   -2.5913 O   0  0  0  0  0  0  0  0  0  0  0  0
    0.6664   -0.1450    1.5428 C   0  0  0  0  0  0  0  0  0  0  0  0
    1.8485   -0.3724    1.8265 O   0  0  0  0  0  0  0  0  0  0  0  0
   -0.2161    0.2434    2.4686 N   0  0  0  0  0  0  0  0  0  0  0  0
   -1.1850    0.3219    2.1537 H   0  0  0  0  0  0  0  0  0  0  0  0
    0.0735    0.4128    3.8885 C   0  0  0  0  0  0  0  0  0  0  0  0
    1.0159    0.9483    4.0105 H   0  0  0  0  0  0  0  0  0  0  0  0
   -0.7315    0.9748    4.3613 H   0  0  0  0  0  0  0  0  0  0  0  0
    0.1564   -0.5677    4.3577 H   0  0  0  0  0  0  0  0  0  0  0  0
  5  6  2  0  0  0  0
  5  7  1  0  0  0  0
  2  3  1  0  0  0  0
  2  4  1  0  0  0  0
  2  5  1  0  0  0  0
  1  2  1  0  0  0  0
 17 18  2  0  0  0  0
 17 19  1  0  0  0  0
 14 15  1  0  0  0  0
 14 16  2  0  0  0  0
 11 12  1  0  0  0  0
 11 13  1  0  0  0  0
 11 14  1  0  0  0  0
  9 10  1  0  0  0  0
  9 11  1  0  0  0  0
  9 17  1  0  0  0  0
  7  8  1  0  0  0  0
  7  9  1  0  0  0  0
 21 22  1  0  0  0  0
 21 23  1  0  0  0  0
 21 24  1  0  0  0  0
 19 20  1  0  0  0  0
 19 21  1  0  0  0  0
M  CHG  1  15  -1
M  END
$$$$
default_name
  -OEChem-02102213163D

 24 23  0     1  0  0  0  0  0999 V2000
   -2.8347   -3.7166    0.8034 H   0  0  0  0  0  0  0  0  0  0  0  0
   -2.7728   -2.7096    0.3954 C   0  0  0  0  0  0  0  0  0  0  0  0
   -3.4267   -2.0426    0.9524 H   0  0  0  0  0  0  0  0  0  0  0  0
   -3.0538   -2.7186   -0.6556 H   0  0  0  0  0  0  0  0  0  0  0  0
   -1.3498   -2.2206    0.5184 C   0  0  0  0  0  0  0  0  0  0  0  0
   -0.4997   -2.9426    1.0194 O   0  0  0  0  0  0  0  0  0  0  0  0
   -1.1198   -0.9926    0.0674 N   0  0  0  0  0  0  0  0  0  0  0  0
   -1.8978   -0.4486   -0.2716 H   0  0  0  0  0  0  0  0  0  0  0  0
    0.1693   -0.2866    0.0854 C   0  0  1  0  0  0  0  0  0  0  0  0
    0.9043   -0.8713   -0.4705 H   0  0  0  0  0  0  0  0  0  0  0  0
    0.0106    1.0816   -0.6124 C   0  0  0  0  0  0  0  0  0  0  0  0
   -0.0019    1.8637    0.1488 H   0  0  0  0  0  0  0  0  0  0  0  0
    0.8791    1.2533   -1.2520 H   0  0  0  0  0  0  0  0  0  0  0  0
   -1.2708    1.2263   -1.4483 C   0  0  0  0  0  0  0  0  0  0  0  0
   -2.3781    1.1065   -0.8729 O   0  5  0  0  0  0  0  0  0  0  0  0
   -1.1290    1.4387   -2.6718 O   0  0  0  0  0  0  0  0  0  0  0  0
    0.6664   -0.1450    1.5428 C   0  0  0  0  0  0  0  0  0  0  0  0
    1.8485   -0.3724    1.8265 O   0  0  0  0  0  0  0  0  0  0  0  0
   -0.2161    0.2434    2.4686 N   0  0  0  0  0  0  0  0  0  0  0  0
   -1.1850    0.3219    2.1537 H   0  0  0  0  0  0  0  0  0  0  0  0
    0.0735    0.4128    3.8885 C   0  0  0  0  0  0  0  0  0  0  0  0
    1.0159    0.9483    4.0105 H   0  0  0  0  0  0  0  0  0  0  0  0
   -0.7315    0.9748    4.3613 H   0  0  0  0  0  0  0  0  0  0  0  0
    0.1564   -0.5677    4.3577 H   0  0  0  0  0  0  0  0  0  0  0  0
  5  6  2  0  0  0  0
  5  7  1  0  0  0  0
  2  3  1  0  0  0  0
  2  4  1  0  0  0  0
  2  5  1  0  0  0  0
  1  2  1  0  0  0  0
 17 18  2  0  0  0  0
 17 19  1  0  0  0  0
 14 15  1  0  0  0  0
 14 16  2  0  0  0  0
 11 12  1  0  0  0  0
 11 13  1  0  0  0  0
 11 14  1  0  0  0  0
  9 10  1  0  0  0  0
  9 11  1  0  0  0  0
  9 17  1  0  0  0  0
  7  8  1  0  0  0  0
  7  9  1  0  0  0  0
 21 22  1  0  0  0  0
 21 23  1  0  0  0  0
 21 24  1  0  0  0  0
 19 20  1  0  0  0  0
 19 21  1  0  0  0  0
M  CHG  1  15  -1
M  END
$$$$
default_name
  -OEChem-02102213163D

 24 23  0     1  0  0  0  0  0999 V2000
   -2.8347   -3.7166    0.8034 H   0  0  0  0  0  0  0  0  0  0  0  0
   -2.7728   -2.7096    0.3954 C   0  0  0  0  0  0  0  0  0  0  0  0
   -3.4267   -2.0426    0.9524 H   0  0  0  0  0  0  0  0  0  0  0  0
   -3.0538   -2.7186   -0.6556 H   0  0  0  0  0  0  0  0  0  0  0  0
   -1.3498   -2.2206    0.5184 C   0  0  0  0  0  0  0  0  0  0  0  0
   -0.4997   -2.9426    1.0194 O   0  0  0  0  0  0  0  0  0  0  0  0
   -1.1198   -0.9926    0.0674 N   0  0  0  0  0  0  0  0  0  0  0  0
   -1.8978   -0.4486   -0.2716 H   0  0  0  0  0  0  0  0  0  0  0  0
    0.1693   -0.2866    0.0854 C   0  0  1  0  0  0  0  0  0  0  0  0
    0.9043   -0.8713   -0.4705 H   0  0  0  0  0  0  0  0  0  0  0  0
    0.0106    1.0816   -0.6124 C   0  0  0  0  0  0  0  0  0  0  0  0
   -0.0019    1.8637    0.1488 H   0  0  0  0  0  0  0  0  0  0  0  0
    0.8791    1.2533   -1.2520 H   0  0  0  0  0  0  0  0  0  0  0  0
   -1.2708    1.2263   -1.4483 C   0  0  0  0  0  0  0  0  0  0  0  0
   -2.3603    1.3926   -0.8507 O   0  5  0  0  0  0  0  0  0  0  0  0
   -1.1499    1.1492   -2.6899 O   0  0  0  0  0  0  0  0  0  0  0  0
    0.6664   -0.1450    1.5428 C   0  0  0  0  0  0  0  0  0  0  0  0
    1.8485   -0.3724    1.8265 O   0  0  0  0  0  0  0  0  0  0  0  0
   -0.2161    0.2434    2.4686 N   0  0  0  0  0  0  0  0  0  0  0  0
   -1.1850    0.3219    2.1537 H   0  0  0  0  0  0  0  0  0  0  0  0
    0.0735    0.4128    3.8885 C   0  0  0  0  0  0  0  0  0  0  0  0
    1.0159    0.9483    4.0105 H   0  0  0  0  0  0  0  0  0  0  0  0
   -0.7315    0.9748    4.3613 H   0  0  0  0  0  0  0  0  0  0  0  0
    0.1564   -0.5677    4.3577 H   0  0  0  0  0  0  0  0  0  0  0  0
  5  6  2  0  0  0  0
  5  7  1  0  0  0  0
  2  3  1  0  0  0  0
  2  4  1  0  0  0  0
  2  5  1  0  0  0  0
  1  2  1  0  0  0  0
 17 18  2  0  0  0  0
 17 19  1  0  0  0  0
 14 15  1  0  0  0  0
 14 16  2  0  0  0  0
 11 12  1  0  0  0  0
 11 13  1  0  0  0  0
 11 14  1  0  0  0  0
  9 10  1  0  0  0  0
  9 11  1  0  0  0  0
  9 17  1  0  0  0  0
  7  8  1  0  0  0  0
  7  9  1  0  0  0  0
 21 22  1  0  0  0  0
 21 23  1  0  0  0  0
 21 24  1  0  0  0  0
 19 20  1  0  0  0  0
 19 21  1  0  0  0  0
M  CHG  1  15  -1
M  END
$$$$
default_name
  -OEChem-02102213163D

 24 23  0     1  0  0  0  0  0999 V2000
   -2.8347   -3.7166    0.8034 H   0  0  0  0  0  0  0  0  0  0  0  0
   -2.7728   -2.7096    0.3954 C   0  0  0  0  0  0  0  0  0  0  0  0
   -3.4267   -2.0426    0.9524 H   0  0  0  0  0  0  0  0  0  0  0  0
   -3.0538   -2.7186   -0.6556 H   0  0  0  0  0  0  0  0  0  0  0  0
   -1.3498   -2.2206    0.5184 C   0  0  0  0  0  0  0  0  0  0  0  0
   -0.4997   -2.9426    1.0194 O   0  0  0  0  0  0  0  0  0  0  0  0
   -1.1198   -0.9926    0.0674 N   0  0  0  0  0  0  0  0  0  0  0  0
   -1.8978   -0.4486   -0.2716 H   0  0  0  0  0  0  0  0  0  0  0  0
    0.1693   -0.2866    0.0854 C   0  0  1  0  0  0  0  0  0  0  0  0
    0.9043   -0.8713   -0.4705 H   0  0  0  0  0  0  0  0  0  0  0  0
    0.0106    1.0816   -0.6124 C   0  0  0  0  0  0  0  0  0  0  0  0
   -0.0019    1.8637    0.1488 H   0  0  0  0  0  0  0  0  0  0  0  0
    0.8791    1.2533   -1.2520 H   0  0  0  0  0  0  0  0  0  0  0  0
   -1.2708    1.2263   -1.4483 C   0  0  0  0  0  0  0  0  0  0  0  0
   -2.3022    1.6712   -0.8915 O   0  5  0  0  0  0  0  0  0  0  0  0
   -1.2113    0.8687   -2.6444 O   0  0  0  0  0  0  0  0  0  0  0  0
    0.6664   -0.1450    1.5428 C   0  0  0  0  0  0  0  0  0  0  0  0
    1.8485   -0.3724    1.8265 O   0  0  0  0  0  0  0  0  0  0  0  0
   -0.2161    0.2434    2.4686 N   0  0  0  0  0  0  0  0  0  0  0  0
   -1.1850    0.3219    2.1537 H   0  0  0  0  0  0  0  0  0  0  0  0
    0.0735    0.4128    3.8885 C   0  0  0  0  0  0  0  0  0  0  0  0
    1.0159    0.9483    4.0105 H   0  0  0  0  0  0  0  0  0  0  0  0
   -0.7315    0.9748    4.3613 H   0  0  0  0  0  0  0  0  0  0  0  0
    0.1564   -0.5677    4.3577 H   0  0  0  0  0  0  0  0  0  0  0  0
  5  6  2  0  0  0  0
  5  7  1  0  0  0  0
  2  3  1  0  0  0  0
  2  4  1  0  0  0  0
  2  5  1  0  0  0  0
  1  2  1  0  0  0  0
 17 18  2  0  0  0  0
 17 19  1  0  0  0  0
 14 15  1  0  0  0  0
 14 16  2  0  0  0  0
 11 12  1  0  0  0  0
 11 13  1  0  0  0  0
 11 14  1  0  0  0  0
  9 10  1  0  0  0  0
  9 11  1  0  0  0  0
  9 17  1  0  0  0  0
  7  8  1  0  0  0  0
  7  9  1  0  0  0  0
 21 22  1  0  0  0  0
 21 23  1  0  0  0  0
 21 24  1  0  0  0  0
 19 20  1  0  0  0  0
 19 21  1  0  0  0  0
M  CHG  1  15  -1
M  END
$$$$
default_name
  -OEChem-02102213163D

 24 23  0     1  0  0  0  0  0999 V2000
   -2.8347   -3.7166    0.8034 H   0  0  0  0  0  0  0  0  0  0  0  0
   -2.7728   -2.7096    0.3954 C   0  0  0  0  0  0  0  0  0  0  0  0
   -3.4267   -2.0426    0.9524 H   0  0  0  0  0  0  0  0  0  0  0  0
   -3.0538   -2.7186   -0.6556 H   0  0  0  0  0  0  0  0  0  0  0  0
   -1.3498   -2.2206    0.5184 C   0  0  0  0  0  0  0  0  0  0  0  0
   -0.4997   -2.9426    1.0194 O   0  0  0  0  0  0  0  0  0  0  0  0
   -1.1198   -0.9926    0.0674 N   0  0  0  0  0  0  0  0  0  0  0  0
   -1.8978   -0.4486   -0.2716 H   0  0  0  0  0  0  0  0  0  0  0  0
    0.1693   -0.2866    0.0854 C   0  0  1  0  0  0  0  0  0  0  0  0
    0.9043   -0.8713   -0.4705 H   0  0  0  0  0  0  0  0  0  0  0  0
    0.0106    1.0816   -0.6124 C   0  0  0  0  0  0  0  0  0  0  0  0
   -0.0019    1.8637    0.1488 H   0  0  0  0  0  0  0  0  0  0  0  0
    0.8791    1.2533   -1.2520 H   0  0  0  0  0  0  0  0  0  0  0  0
   -1.2708    1.2263   -1.4483 C   0  0  0  0  0  0  0  0  0  0  0  0
   -2.2079    1.9233   -0.9925 O   0  5  0  0  0  0  0  0  0  0  0  0
   -1.3089    0.6162   -2.5384 O   0  0  0  0  0  0  0  0  0  0  0  0
    0.6664   -0.1450    1.5428 C   0  0  0  0  0  0  0  0  0  0  0  0
    1.8485   -0.3724    1.8265 O   0  0  0  0  0  0  0  0  0  0  0  0
   -0.2161    0.2434    2.4686 N   0  0  0  0  0  0  0  0  0  0  0  0
   -1.1850    0.3219    2.1537 H   0  0  0  0  0  0  0  0  0  0  0  0
    0.0735    0.4128    3.8885 C   0  0  0  0  0  0  0  0  0  0  0  0
    1.0159    0.9483    4.0105 H   0  0  0  0  0  0  0  0  0  0  0  0
   -0.7315    0.9748    4.3613 H   0  0  0  0  0  0  0  0  0  0  0  0
    0.1564   -0.5677    4.3577 H   0  0  0  0  0  0  0  0  0  0  0  0
  5  6  2  0  0  0  0
  5  7  1  0  0  0  0
  2  3  1  0  0  0  0
  2  4  1  0  0  0  0
  2  5  1  0  0  0  0
  1  2  1  0  0  0  0
 17 18  2  0  0  0  0
 17 19  1  0  0  0  0
 14 15  1  0  0  0  0
 14 16  2  0  0  0  0
 11 12  1  0  0  0  0
 11 13  1  0  0  0  0
 11 14  1  0  0  0  0
  9 10  1  0  0  0  0
  9 11  1  0  0  0  0
  9 17  1  0  0  0  0
  7  8  1  0  0  0  0
  7  9  1  0  0  0  0
 21 22  1  0  0  0  0
 21 23  1  0  0  0  0
 21 24  1  0  0  0  0
 19 20  1  0  0  0  0
 19 21  1  0  0  0  0
M  CHG  1  15  -1
M  END
$$$$
default_name
  -OEChem-02102213163D

 24 23  0     1  0  0  0  0  0999 V2000
   -2.8347   -3.7166    0.8034 H   0  0  0  0  0  0  0  0  0  0  0  0
   -2.7728   -2.7096    0.3954 C   0  0  0  0  0  0  0  0  0  0  0  0
   -3.4267   -2.0426    0.9524 H   0  0  0  0  0  0  0  0  0  0  0  0
   -3.0538   -2.7186   -0.6556 H   0  0  0  0  0  0  0  0  0  0  0  0
   -1.3498   -2.2206    0.5184 C   0  0  0  0  0  0  0  0  0  0  0  0
   -0.4997   -2.9426    1.0194 O   0  0  0  0  0  0  0  0  0  0  0  0
   -1.1198   -0.9926    0.0674 N   0  0  0  0  0  0  0  0  0  0  0  0
   -1.8978   -0.4486   -0.2716 H   0  0  0  0  0  0  0  0  0  0  0  0
    0.1693   -0.2866    0.0854 C   0  0  1  0  0  0  0  0  0  0  0  0
    0.9043   -0.8713   -0.4705 H   0  0  0  0  0  0  0  0  0  0  0  0
    0.0106    1.0816   -0.6124 C   0  0  0  0  0  0  0  0  0  0  0  0
   -0.0019    1.8637    0.1488 H   0  0  0  0  0  0  0  0  0  0  0  0
    0.8791    1.2533   -1.2520 H   0  0  0  0  0  0  0  0  0  0  0  0
   -1.2708    1.2263   -1.4483 C   0  0  0  0  0  0  0  0  0  0  0  0
   -2.0837    2.1318   -1.1467 O   0  5  0  0  0  0  0  0  0  0  0  0
   -1.4362    0.4089   -2.3792 O   0  0  0  0  0  0  0  0  0  0  0  0
    0.6664   -0.1450    1.5428 C   0  0  0  0  0  0  0  0  0  0  0  0
    1.8485   -0.3724    1.8265 O   0  0  0  0  0  0  0  0  0  0  0  0
   -0.2161    0.2434    2.4686 N   0  0  0  0  0  0  0  0  0  0  0  0
   -1.1850    0.3219    2.1537 H   0  0  0  0  0  0  0  0  0  0  0  0
    0.0735    0.4128    3.8885 C   0  0  0  0  0  0  0  0  0  0  0  0
    1.0159    0.9483    4.0105 H   0  0  0  0  0  0  0  0  0  0  0  0
   -0.7315    0.9748    4.3613 H   0  0  0  0  0  0  0  0  0  0  0  0
    0.1564   -0.5677    4.3577 H   0  0  0  0  0  0  0  0  0  0  0  0
  5  6  2  0  0  0  0
  5  7  1  0  0  0  0
  2  3  1  0  0  0  0
  2  4  1  0  0  0  0
  2  5  1  0  0  0  0
  1  2  1  0  0  0  0
 17 18  2  0  0  0  0
 17 19  1  0  0  0  0
 14 15  1  0  0  0  0
 14 16  2  0  0  0  0
 11 12  1  0  0  0  0
 11 13  1  0  0  0  0
 11 14  1  0  0  0  0
  9 10  1  0  0  0  0
  9 11  1  0  0  0  0
  9 17  1  0  0  0  0
  7  8  1  0  0  0  0
  7  9  1  0  0  0  0
 21 22  1  0  0  0  0
 21 23  1  0  0  0  0
 21 24  1  0  0  0  0
 19 20  1  0  0  0  0
 19 21  1  0  0  0  0
M  CHG  1  15  -1
M  END
$$$$
default_name
  -OEChem-02102213163D

 24 23  0     1  0  0  0  0  0999 V2000
   -2.8347   -3.7166    0.8034 H   0  0  0  0  0  0  0  0  0  0  0  0
   -2.7728   -2.7096    0.3954 C   0  0  0  0  0  0  0  0  0  0  0  0
   -3.4267   -2.0426    0.9524 H   0  0  0  0  0  0  0  0  0  0  0  0
   -3.0538   -2.7186   -0.6556 H   0  0  0  0  0  0  0  0  0  0  0  0
   -1.3498   -2.2206    0.5184 C   0  0  0  0  0  0  0  0  0  0  0  0
   -0.4997   -2.9426    1.0194 O   0  0  0  0  0  0  0  0  0  0  0  0
   -1.1198   -0.9926    0.0674 N   0  0  0  0  0  0  0  0  0  0  0  0
   -1.8978   -0.4486   -0.2716 H   0  0  0  0  0  0  0  0  0  0  0  0
    0.1693   -0.2866    0.0854 C   0  0  1  0  0  0  0  0  0  0  0  0
    0.9043   -0.8713   -0.4705 H   0  0  0  0  0  0  0  0  0  0  0  0
    0.0106    1.0816   -0.6124 C   0  0  0  0  0  0  0  0  0  0  0  0
   -0.0019    1.8637    0.1488 H   0  0  0  0  0  0  0  0  0  0  0  0
    0.8791    1.2533   -1.2520 H   0  0  0  0  0  0  0  0  0  0  0  0
   -1.2708    1.2263   -1.4483 C   0  0  0  0  0  0  0  0  0  0  0  0
   -1.9382    2.2824   -1.3437 O   0  5  0  0  0  0  0  0  0  0  0  0
   -1.5844    0.2610   -2.1776 O   0  0  0  0  0  0  0  0  0  0  0  0
    0.6664   -0.1450    1.5428 C   0  0  0  0  0  0  0  0  0  0  0  0
    1.8485   -0.3724    1.8265 O   0  0  0  0  0  0  0  0  0  0  0  0
   -0.2161    0.2434    2.4686 N   0  0  0  0  0  0  0  0  0  0  0  0
   -1.1850    0.3219    2.1537 H   0  0  0  0  0  0  0  0  0  0  0  0
    0.0735    0.4128    3.8885 C   0  0  0  0  0  0  0  0  0  0  0  0
    1.0159    0.9483    4.0105 H   0  0  0  0  0  0  0  0  0  0  0  0
   -0.7315    0.9748    4.3613 H   0  0  0  0  0  0  0  0  0  0  0  0
    0.1564   -0.5677    4.3577 H   0  0  0  0  0  0  0  0  0  0  0  0
  5  6  2  0  0  0  0
  5  7  1  0  0  0  0
  2  3  1  0  0  0  0
  2  4  1  0  0  0  0
  2  5  1  0  0  0  0
  1  2  1  0  0  0  0
 17 18  2  0  0  0  0
 17 19  1  0  0  0  0
 14 15  1  0  0  0  0
 14 16  2  0  0  0  0
 11 12  1  0  0  0  0
 11 13  1  0  0  0  0
 11 14  1  0  0  0  0
  9 10  1  0  0  0  0
  9 11  1  0  0  0  0
  9 17  1  0  0  0  0
  7  8  1  0  0  0  0
  7  9  1  0  0  0  0
 21 22  1  0  0  0  0
 21 23  1  0  0  0  0
 21 24  1  0  0  0  0
 19 20  1  0  0  0  0
 19 21  1  0  0  0  0
M  CHG  1  15  -1
M  END
$$$$
default_name
  -OEChem-02102213163D

 24 23  0     1  0  0  0  0  0999 V2000
   -2.8347   -3.7166    0.8034 H   0  0  0  0  0  0  0  0  0  0  0  0
   -2.7728   -2.7096    0.3954 C   0  0  0  0  0  0  0  0  0  0  0  0
   -3.4267   -2.0426    0.9524 H   0  0  0  0  0  0  0  0  0  0  0  0
   -3.0538   -2.7186   -0.6556 H   0  0  0  0  0  0  0  0  0  0  0  0
   -1.3498   -2.2206    0.5184 C   0  0  0  0  0  0  0  0  0  0  0  0
   -0.4997   -2.9426    1.0194 O   0  0  0  0  0  0  0  0  0  0  0  0
   -1.1198   -0.9926    0.0674 N   0  0  0  0  0  0  0  0  0  0  0  0
   -1.8978   -0.4486   -0.2716 H   0  0  0  0  0  0  0  0  0  0  0  0
    0.1693   -0.2866    0.0854 C   0  0  1  0  0  0  0  0  0  0  0  0
    0.9043   -0.8713   -0.4705 H   0  0  0  0  0  0  0  0  0  0  0  0
    0.0106    1.0816   -0.6124 C   0  0  0  0  0  0  0  0  0  0  0  0
   -0.0019    1.8637    0.1488 H   0  0  0  0  0  0  0  0  0  0  0  0
    0.8791    1.2533   -1.2520 H   0  0  0  0  0  0  0  0  0  0  0  0
   -1.2708    1.2263   -1.4483 C   0  0  0  0  0  0  0  0  0  0  0  0
   -1.7813    2.3649   -1.5700 O   0  5  0  0  0  0  0  0  0  0  0  0
   -1.7435    0.1825   -1.9472 O   0  0  0  0  0  0  0  0  0  0  0  0
    0.6664   -0.1450    1.5428 C   0  0  0  0  0  0  0  0  0  0  0  0
    1.8485   -0.3724    1.8265 O   0  0  0  0  0  0  0  0  0  0  0  0
   -0.2161    0.2434    2.4686 N   0  0  0  0  0  0  0  0  0  0  0  0
   -1.1850    0.3219    2.1537 H   0  0  0  0  0  0  0  0  0  0  0  0
    0.0735    0.4128    3.8885 C   0  0  0  0  0  0  0  0  0  0  0  0
    1.0159    0.9483    4.0105 H   0  0  0  0  0  0  0  0  0  0  0  0
   -0.7315    0.9748    4.3613 H   0  0  0  0  0  0  0  0  0  0  0  0
    0.1564   -0.5677    4.3577 H   0  0  0  0  0  0  0  0  0  0  0  0
  5  6  2  0  0  0  0
  5  7  1  0  0  0  0
  2  3  1  0  0  0  0
  2  4  1  0  0  0  0
  2  5  1  0  0  0  0
  1  2  1  0  0  0  0
 17 18  2  0  0  0  0
 17 19  1  0  0  0  0
 14 15  1  0  0  0  0
 14 16  2  0  0  0  0
 11 12  1  0  0  0  0
 11 13  1  0  0  0  0
 11 14  1  0  0  0  0
  9 10  1  0  0  0  0
  9 11  1  0  0  0  0
  9 17  1  0  0  0  0
  7  8  1  0  0  0  0
  7  9  1  0  0  0  0
 21 22  1  0  0  0  0
 21 23  1  0  0  0  0
 21 24  1  0  0  0  0
 19 20  1  0  0  0  0
 19 21  1  0  0  0  0
M  CHG  1  15  -1
M  END
$$$$
default_name
  -OEChem-02102213163D

 24 23  0     1  0  0  0  0  0999 V2000
   -2.8347   -3.7166    0.8034 H   0  0  0  0  0  0  0  0  0  0  0  0
   -2.7728   -2.7096    0.3954 C   0  0  0  0  0  0  0  0  0  0  0  0
   -3.4267   -2.0426    0.9524 H   0  0  0  0  0  0  0  0  0  0  0  0
   -3.0538   -2.7186   -0.6556 H   0  0  0  0  0  0  0  0  0  0  0  0
   -1.3498   -2.2206    0.5184 C   0  0  0  0  0  0  0  0  0  0  0  0
   -0.4997   -2.9426    1.0194 O   0  0  0  0  0  0  0  0  0  0  0  0
   -1.1198   -0.9926    0.0674 N   0  0  0  0  0  0  0  0  0  0  0  0
   -1.8978   -0.4486   -0.2716 H   0  0  0  0  0  0  0  0  0  0  0  0
    0.1693   -0.2866    0.0854 C   0  0  1  0  0  0  0  0  0  0  0  0
    0.9043   -0.8713   -0.4705 H   0  0  0  0  0  0  0  0  0  0  0  0
    0.0106    1.0816   -0.6124 C   0  0  0  0  0  0  0  0  0  0  0  0
   -0.0019    1.8637    0.1488 H   0  0  0  0  0  0  0  0  0  0  0  0
    0.8791    1.2533   -1.2520 H   0  0  0  0  0  0  0  0  0  0  0  0
   -1.2708    1.2263   -1.4483 C   0  0  0  0  0  0  0  0  0  0  0  0
   -1.6236    2.3736   -1.8102 O   0  5  0  0  0  0  0  0  0  0  0  0
   -1.9027    0.1787   -1.7040 O   0  0  0  0  0  0  0  0  0  0  0  0
    0.6664   -0.1450    1.5428 C   0  0  0  0  0  0  0  0  0  0  0  0
    1.8485   -0.3724    1.8265 O   0  0  0  0  0  0  0  0  0  0  0  0
   -0.2161    0.2434    2.4686 N   0  0  0  0  0  0  0  0  0  0  0  0
   -1.1850    0.3219    2.1537 H   0  0  0  0  0  0  0  0  0  0  0  0
    0.0735    0.4128    3.8885 C   0  0  0  0  0  0  0  0  0  0  0  0
    1.0159    0.9483    4.0105 H   0  0  0  0  0  0  0  0  0  0  0  0
   -0.7315    0.9748    4.3613 H   0  0  0  0  0  0  0  0  0  0  0  0
    0.1564   -0.5677    4.3577 H   0  0  0  0  0  0  0  0  0  0  0  0
  5  6  2  0  0  0  0
  5  7  1  0  0  0  0
  2  3  1  0  0  0  0
  2  4  1  0  0  0  0
  2  5  1  0  0  0  0
  1  2  1  0  0  0  0
 17 18  2  0  0  0  0
 17 19  1  0  0  0  0
 14 15  1  0  0  0  0
 14 16  2  0  0  0  0
 11 12  1  0  0  0  0
 11 13  1  0  0  0  0
 11 14  1  0  0  0  0
  9 10  1  0  0  0  0
  9 11  1  0  0  0  0
  9 17  1  0  0  0  0
  7  8  1  0  0  0  0
  7  9  1  0  0  0  0
 21 22  1  0  0  0  0
 21 23  1  0  0  0  0
 21 24  1  0  0  0  0
 19 20  1  0  0  0  0
 19 21  1  0  0  0  0
M  CHG  1  15  -1
M  END
$$$$
default_name
  -OEChem-02102213163D

 24 23  0     1  0  0  0  0  0999 V2000
   -2.8347   -3.7166    0.8034 H   0  0  0  0  0  0  0  0  0  0  0  0
   -2.7728   -2.7096    0.3954 C   0  0  0  0  0  0  0  0  0  0  0  0
   -3.4267   -2.0426    0.9524 H   0  0  0  0  0  0  0  0  0  0  0  0
   -3.0538   -2.7186   -0.6556 H   0  0  0  0  0  0  0  0  0  0  0  0
   -1.3498   -2.2206    0.5184 C   0  0  0  0  0  0  0  0  0  0  0  0
   -0.4997   -2.9426    1.0194 O   0  0  0  0  0  0  0  0  0  0  0  0
   -1.1198   -0.9926    0.0674 N   0  0  0  0  0  0  0  0  0  0  0  0
   -1.8978   -0.4486   -0.2716 H   0  0  0  0  0  0  0  0  0  0  0  0
    0.1693   -0.2866    0.0854 C   0  0  1  0  0  0  0  0  0  0  0  0
    0.9043   -0.8713   -0.4705 H   0  0  0  0  0  0  0  0  0  0  0  0
    0.0106    1.0816   -0.6124 C   0  0  0  0  0  0  0  0  0  0  0  0
    0.2633    1.8693    0.0995 H   0  0  0  0  0  0  0  0  0  0  0  0
    0.7217    1.1395   -1.4394 H   0  0  0  0  0  0  0  0  0  0  0  0
   -1.4041    1.3683   -1.1396 C   0  0  0  0  0  0  0  0  0  0  0  0
   -1.6177    2.4589   -1.7198 O   0  5  0  0  0  0  0  0  0  0  0  0
   -2.2729    0.4926   -0.9382 O   0  0  0  0  0  0  0  0  0  0  0  0
    0.6664   -0.1450    1.5428 C   0  0  0  0  0  0  0  0  0  0  0  0
    1.8485   -0.3724    1.8265 O   0  0  0  0  0  0  0  0  0  0  0  0
   -0.2161    0.2434    2.4686 N   0  0  0  0  0  0  0  0  0  0  0  0
   -1.1850    0.3219    2.1537 H   0  0  0  0  0  0  0  0  0  0  0  0
    0.0735    0.4128    3.8885 C   0  0  0  0  0  0  0  0  0  0  0  0
    1.0159    0.9483    4.0105 H   0  0  0  0  0  0  0  0  0  0  0  0
   -0.7315    0.9748    4.3613 H   0  0  0  0  0  0  0  0  0  0  0  0
    0.1564   -0.5677    4.3577 H   0  0  0  0  0  0  0  0  0  0  0  0
  5  6  2  0  0  0  0
  5  7  1  0  0  0  0
  2  3  1  0  0  0  0
  2  4  1  0  0  0  0
  2  5  1  0  0  0  0
  1  2  1  0  0  0  0
 17 18  2  0  0  0  0
 17 19  1  0  0  0  0
 14 15  1  0  0  0  0
 14 16  2  0  0  0  0
 11 12  1  0  0  0  0
 11 13  1  0  0  0  0
 11 14  1  0  0  0  0
  9 10  1  0  0  0  0
  9 11  1  0  0  0  0
  9 17  1  0  0  0  0
  7  8  1  0  0  0  0
  7  9  1  0  0  0  0
 21 22  1  0  0  0  0
 21 23  1  0  0  0  0
 21 24  1  0  0  0  0
 19 20  1  0  0  0  0
 19 21  1  0  0  0  0
M  CHG  1  15  -1
M  END
$$$$
default_name
  -OEChem-02102213163D

 24 23  0     1  0  0  0  0  0999 V2000
   -2.8347   -3.7166    0.8034 H   0  0  0  0  0  0  0  0  0  0  0  0
   -2.7728   -2.7096    0.3954 C   0  0  0  0  0  0  0  0  0  0  0  0
   -3.4267   -2.0426    0.9524 H   0  0  0  0  0  0  0  0  0  0  0  0
   -3.0538   -2.7186   -0.6556 H   0  0  0  0  0  0  0  0  0  0  0  0
   -1.3498   -2.2206    0.5184 C   0  0  0  0  0  0  0  0  0  0  0  0
   -0.4997   -2.9426    1.0194 O   0  0  0  0  0  0  0  0  0  0  0  0
   -1.1198   -0.9926    0.0674 N   0  0  0  0  0  0  0  0  0  0  0  0
   -1.8978   -0.4486   -0.2716 H   0  0  0  0  0  0  0  0  0  0  0  0
    0.1693   -0.2866    0.0854 C   0  0  1  0  0  0  0  0  0  0  0  0
    0.9043   -0.8713   -0.4705 H   0  0  0  0  0  0  0  0  0  0  0  0
    0.0106    1.0816   -0.6124 C   0  0  0  0  0  0  0  0  0  0  0  0
    0.2633    1.8693    0.0995 H   0  0  0  0  0  0  0  0  0  0  0  0
    0.7217    1.1395   -1.4394 H   0  0  0  0  0  0  0  0  0  0  0  0
   -1.4041    1.3683   -1.1396 C   0  0  0  0  0  0  0  0  0  0  0  0
   -1.5603    2.3062   -1.9566 O   0  5  0  0  0  0  0  0  0  0  0  0
   -2.3291    0.6512   -0.7011 O   0  0  0  0  0  0  0  0  0  0  0  0
    0.6664   -0.1450    1.5428 C   0  0  0  0  0  0  0  0  0  0  0  0
    1.8485   -0.3724    1.8265 O   0  0  0  0  0  0  0  0  0  0  0  0
   -0.2161    0.2434    2.4686 N   0  0  0  0  0  0  0  0  0  0  0  0
   -1.1850    0.3219    2.1537 H   0  0  0  0  0  0  0  0  0  0  0  0
    0.0735    0.4128    3.8885 C   0  0  0  0  0  0  0  0  0  0  0  0
    1.0159    0.9483    4.0105 H   0  0  0  0  0  0  0  0  0  0  0  0
   -0.7315    0.9748    4.3613 H   0  0  0  0  0  0  0  0  0  0  0  0
    0.1564   -0.5677    4.3577 H   0  0  0  0  0  0  0  0  0  0  0  0
  5  6  2  0  0  0  0
  5  7  1  0  0  0  0
  2  3  1  0  0  0  0
  2  4  1  0  0  0  0
  2  5  1  0  0  0  0
  1  2  1  0  0  0  0
 17 18  2  0  0  0  0
 17 19  1  0  0  0  0
 14 15  1  0  0  0  0
 14 16  2  0  0  0  0
 11 12  1  0  0  0  0
 11 13  1  0  0  0  0
 11 14  1  0  0  0  0
  9 10  1  0  0  0  0
  9 11  1  0  0  0  0
  9 17  1  0  0  0  0
  7  8  1  0  0  0  0
  7  9  1  0  0  0  0
 21 22  1  0  0  0  0
 21 23  1  0  0  0  0
 21 24  1  0  0  0  0
 19 20  1  0  0  0  0
 19 21  1  0  0  0  0
M  CHG  1  15  -1
M  END
$$$$
default_name
  -OEChem-02102213163D

 24 23  0     1  0  0  0  0  0999 V2000
   -2.8347   -3.7166    0.8034 H   0  0  0  0  0  0  0  0  0  0  0  0
   -2.7728   -2.7096    0.3954 C   0  0  0  0  0  0  0  0  0  0  0  0
   -3.4267   -2.0426    0.9524 H   0  0  0  0  0  0  0  0  0  0  0  0
   -3.0538   -2.7186   -0.6556 H   0  0  0  0  0  0  0  0  0  0  0  0
   -1.3498   -2.2206    0.5184 C   0  0  0  0  0  0  0  0  0  0  0  0
   -0.4997   -2.9426    1.0194 O   0  0  0  0  0  0  0  0  0  0  0  0
   -1.1198   -0.9926    0.0674 N   0  0  0  0  0  0  0  0  0  0  0  0
   -1.8978   -0.4486   -0.2716 H   0  0  0  0  0  0  0  0  0  0  0  0
    0.1693   -0.2866    0.0854 C   0  0  1  0  0  0  0  0  0  0  0  0
    0.9043   -0.8713   -0.4705 H   0  0  0  0  0  0  0  0  0  0  0  0
    0.0106    1.0816   -0.6124 C   0  0  0  0  0  0  0  0  0  0  0  0
    0.2633    1.8693    0.0995 H   0  0  0  0  0  0  0  0  0  0  0  0
    0.7217    1.1395   -1.4394 H   0  0  0  0  0  0  0  0  0  0  0  0
   -1.4041    1.3683   -1.1396 C   0  0  0  0  0  0  0  0  0  0  0  0
   -1.5300    2.0973   -2.1517 O   0  5  0  0  0  0  0  0  0  0  0  0
   -2.3579    0.8658   -0.5071 O   0  0  0  0  0  0  0  0  0  0  0  0
    0.6664   -0.1450    1.5428 C   0  0  0  0  0  0  0  0  0  0  0  0
    1.8485   -0.3724    1.8265 O   0  0  0  0  0  0  0  0  0  0  0  0
   -0.2161    0.2434    2.4686 N   0  0  0  0  0  0  0  0  0  0  0  0
   -1.1850    0.3219    2.1537 H   0  0  0  0  0  0  0  0  0  0  0  0
    0.0735    0.4128    3.8885 C   0  0  0  0  0  0  0  0  0  0  0  0
    1.0159    0.9483    4.0105 H   0  0  0  0  0  0  0  0  0  0  0  0
   -0.7315    0.9748    4.3613 H   0  0  0  0  0  0  0  0  0  0  0  0
    0.1564   -0.5677    4.3577 H   0  0  0  0  0  0  0  0  0  0  0  0
  5  6  2  0  0  0  0
  5  7  1  0  0  0  0
  2  3  1  0  0  0  0
  2  4  1  0  0  0  0
  2  5  1  0  0  0  0
  1  2  1  0  0  0  0
 17 18  2  0  0  0  0
 17 19  1  0  0  0  0
 14 15  1  0  0  0  0
 14 16  2  0  0  0  0
 11 12  1  0  0  0  0
 11 13  1  0  0  0  0
 11 14  1  0  0  0  0
  9 10  1  0  0  0  0
  9 11  1  0  0  0  0
  9 17  1  0  0  0  0
  7  8  1  0  0  0  0
  7  9  1  0  0  0  0
 21 22  1  0  0  0  0
 21 23  1  0  0  0  0
 21 24  1  0  0  0  0
 19 20  1  0  0  0  0
 19 21  1  0  0  0  0
M  CHG  1  15  -1
M  END
$$$$
default_name
  -OEChem-02102213163D

 24 23  0     1  0  0  0  0  0999 V2000
   -2.8347   -3.7166    0.8034 H   0  0  0  0  0  0  0  0  0  0  0  0
   -2.7728   -2.7096    0.3954 C   0  0  0  0  0  0  0  0  0  0  0  0
   -3.4267   -2.0426    0.9524 H   0  0  0  0  0  0  0  0  0  0  0  0
   -3.0538   -2.7186   -0.6556 H   0  0  0  0  0  0  0  0  0  0  0  0
   -1.3498   -2.2206    0.5184 C   0  0  0  0  0  0  0  0  0  0  0  0
   -0.4997   -2.9426    1.0194 O   0  0  0  0  0  0  0  0  0  0  0  0
   -1.1198   -0.9926    0.0674 N   0  0  0  0  0  0  0  0  0  0  0  0
   -1.8978   -0.4486   -0.2716 H   0  0  0  0  0  0  0  0  0  0  0  0
    0.1693   -0.2866    0.0854 C   0  0  1  0  0  0  0  0  0  0  0  0
    0.9043   -0.8713   -0.4705 H   0  0  0  0  0  0  0  0  0  0  0  0
    0.0106    1.0816   -0.6124 C   0  0  0  0  0  0  0  0  0  0  0  0
    0.2633    1.8693    0.0995 H   0  0  0  0  0  0  0  0  0  0  0  0
    0.7217    1.1395   -1.4394 H   0  0  0  0  0  0  0  0  0  0  0  0
   -1.4041    1.3683   -1.1396 C   0  0  0  0  0  0  0  0  0  0  0  0
   -1.5286    1.8463   -2.2918 O   0  5  0  0  0  0  0  0  0  0  0  0
   -2.3573    1.1219   -0.3695 O   0  0  0  0  0  0  0  0  0  0  0  0
    0.6664   -0.1450    1.5428 C   0  0  0  0  0  0  0  0  0  0  0  0
    1.8485   -0.3724    1.8265 O   0  0  0  0  0  0  0  0  0  0  0  0
   -0.2161    0.2434    2.4686 N   0  0  0  0  0  0  0  0  0  0  0  0
   -1.1850    0.3219    2.1537 H   0  0  0  0  0  0  0  0  0  0  0  0
    0.0735    0.4128    3.8885 C   0  0  0  0  0  0  0  0  0  0  0  0
    1.0159    0.9483    4.0105 H   0  0  0  0  0  0  0  0  0  0  0  0
   -0.7315    0.9748    4.3613 H   0  0  0  0  0  0  0  0  0  0  0  0
    0.1564   -0.5677    4.3577 H   0  0  0  0  0  0  0  0  0  0  0  0
  5  6  2  0  0  0  0
  5  7  1  0  0  0  0
  2  3  1  0  0  0  0
  2  4  1  0  0  0  0
  2  5  1  0  0  0  0
  1  2  1  0  0  0  0
 17 18  2  0  0  0  0
 17 19  1  0  0  0  0
 14 15  1  0  0  0  0
 14 16  2  0  0  0  0
 11 12  1  0  0  0  0
 11 13  1  0  0  0  0
 11 14  1  0  0  0  0
  9 10  1  0  0  0  0
  9 11  1  0  0  0  0
  9 17  1  0  0  0  0
  7  8  1  0  0  0  0
  7  9  1  0  0  0  0
 21 22  1  0  0  0  0
 21 23  1  0  0  0  0
 21 24  1  0  0  0  0
 19 20  1  0  0  0  0
 19 21  1  0  0  0  0
M  CHG  1  15  -1
M  END
$$$$
default_name
  -OEChem-02102213163D

 24 23  0     1  0  0  0  0  0999 V2000
   -2.8347   -3.7166    0.8034 H   0  0  0  0  0  0  0  0  0  0  0  0
   -2.7728   -2.7096    0.3954 C   0  0  0  0  0  0  0  0  0  0  0  0
   -3.4267   -2.0426    0.9524 H   0  0  0  0  0  0  0  0  0  0  0  0
   -3.0538   -2.7186   -0.6556 H   0  0  0  0  0  0  0  0  0  0  0  0
   -1.3498   -2.2206    0.5184 C   0  0  0  0  0  0  0  0  0  0  0  0
   -0.4997   -2.9426    1.0194 O   0  0  0  0  0  0  0  0  0  0  0  0
   -1.1198   -0.9926    0.0674 N   0  0  0  0  0  0  0  0  0  0  0  0
   -1.8978   -0.4486   -0.2716 H   0  0  0  0  0  0  0  0  0  0  0  0
    0.1693   -0.2866    0.0854 C   0  0  1  0  0  0  0  0  0  0  0  0
    0.9043   -0.8713   -0.4705 H   0  0  0  0  0  0  0  0  0  0  0  0
    0.0106    1.0816   -0.6124 C   0  0  0  0  0  0  0  0  0  0  0  0
    0.2633    1.8693    0.0995 H   0  0  0  0  0  0  0  0  0  0  0  0
    0.7217    1.1395   -1.4394 H   0  0  0  0  0  0  0  0  0  0  0  0
   -1.4041    1.3683   -1.1396 C   0  0  0  0  0  0  0  0  0  0  0  0
   -1.5564    1.5703   -2.3675 O   0  5  0  0  0  0  0  0  0  0  0  0
   -2.3273    1.4021   -0.2977 O   0  0  0  0  0  0  0  0  0  0  0  0
    0.6664   -0.1450    1.5428 C   0  0  0  0  0  0  0  0  0  0  0  0
    1.8485   -0.3724    1.8265 O   0  0  0  0  0  0  0  0  0  0  0  0
   -0.2161    0.2434    2.4686 N   0  0  0  0  0  0  0  0  0  0  0  0
   -1.1850    0.3219    2.1537 H   0  0  0  0  0  0  0  0  0  0  0  0
    0.0735    0.4128    3.8885 C   0  0  0  0  0  0  0  0  0  0  0  0
    1.0159    0.9483    4.0105 H   0  0  0  0  0  0  0  0  0  0  0  0
   -0.7315    0.9748    4.3613 H   0  0  0  0  0  0  0  0  0  0  0  0
    0.1564   -0.5677    4.3577 H   0  0  0  0  0  0  0  0  0  0  0  0
  5  6  2  0  0  0  0
  5  7  1  0  0  0  0
  2  3  1  0  0  0  0
  2  4  1  0  0  0  0
  2  5  1  0  0  0  0
  1  2  1  0  0  0  0
 17 18  2  0  0  0  0
 17 19  1  0  0  0  0
 14 15  1  0  0  0  0
 14 16  2  0  0  0  0
 11 12  1  0  0  0  0
 11 13  1  0  0  0  0
 11 14  1  0  0  0  0
  9 10  1  0  0  0  0
  9 11  1  0  0  0  0
  9 17  1  0  0  0  0
  7  8  1  0  0  0  0
  7  9  1  0  0  0  0
 21 22  1  0  0  0  0
 21 23  1  0  0  0  0
 21 24  1  0  0  0  0
 19 20  1  0  0  0  0
 19 21  1  0  0  0  0
M  CHG  1  15  -1
M  END
$$$$
default_name
  -OEChem-02102213163D

 24 23  0     1  0  0  0  0  0999 V2000
   -2.8347   -3.7166    0.8034 H   0  0  0  0  0  0  0  0  0  0  0  0
   -2.7728   -2.7096    0.3954 C   0  0  0  0  0  0  0  0  0  0  0  0
   -3.4267   -2.0426    0.9524 H   0  0  0  0  0  0  0  0  0  0  0  0
   -3.0538   -2.7186   -0.6556 H   0  0  0  0  0  0  0  0  0  0  0  0
   -1.3498   -2.2206    0.5184 C   0  0  0  0  0  0  0  0  0  0  0  0
   -0.4997   -2.9426    1.0194 O   0  0  0  0  0  0  0  0  0  0  0  0
   -1.1198   -0.9926    0.0674 N   0  0  0  0  0  0  0  0  0  0  0  0
   -1.8978   -0.4486   -0.2716 H   0  0  0  0  0  0  0  0  0  0  0  0
    0.1693   -0.2866    0.0854 C   0  0  1  0  0  0  0  0  0  0  0  0
    0.9043   -0.8713   -0.4705 H   0  0  0  0  0  0  0  0  0  0  0  0
    0.0106    1.0816   -0.6124 C   0  0  0  0  0  0  0  0  0  0  0  0
    0.2633    1.8693    0.0995 H   0  0  0  0  0  0  0  0  0  0  0  0
    0.7217    1.1395   -1.4394 H   0  0  0  0  0  0  0  0  0  0  0  0
   -1.4041    1.3683   -1.1396 C   0  0  0  0  0  0  0  0  0  0  0  0
   -1.6113    1.2882   -2.3734 O   0  5  0  0  0  0  0  0  0  0  0  0
   -2.2700    1.6871   -0.2965 O   0  0  0  0  0  0  0  0  0  0  0  0
    0.6664   -0.1450    1.5428 C   0  0  0  0  0  0  0  0  0  0  0  0
    1.8485   -0.3724    1.8265 O   0  0  0  0  0  0  0  0  0  0  0  0
   -0.2161    0.2434    2.4686 N   0  0  0  0  0  0  0  0  0  0  0  0
   -1.1850    0.3219    2.1537 H   0  0  0  0  0  0  0  0  0  0  0  0
    0.0735    0.4128    3.8885 C   0  0  0  0  0  0  0  0  0  0  0  0
    1.0159    0.9483    4.0105 H   0  0  0  0  0  0  0  0  0  0  0  0
   -0.7315    0.9748    4.3613 H   0  0  0  0  0  0  0  0  0  0  0  0
    0.1564   -0.5677    4.3577 H   0  0  0  0  0  0  0  0  0  0  0  0
  5  6  2  0  0  0  0
  5  7  1  0  0  0  0
  2  3  1  0  0  0  0
  2  4  1  0  0  0  0
  2  5  1  0  0  0  0
  1  2  1  0  0  0  0
 17 18  2  0  0  0  0
 17 19  1  0  0  0  0
 14 15  1  0  0  0  0
 14 16  2  0  0  0  0
 11 12  1  0  0  0  0
 11 13  1  0  0  0  0
 11 14  1  0  0  0  0
  9 10  1  0  0  0  0
  9 11  1  0  0  0  0
  9 17  1  0  0  0  0
  7  8  1  0  0  0  0
  7  9  1  0  0  0  0
 21 22  1  0  0  0  0
 21 23  1  0  0  0  0
 21 24  1  0  0  0  0
 19 20  1  0  0  0  0
 19 21  1  0  0  0  0
M  CHG  1  15  -1
M  END
$$$$
default_name
  -OEChem-02102213163D

 24 23  0     1  0  0  0  0  0999 V2000
   -2.8347   -3.7166    0.8034 H   0  0  0  0  0  0  0  0  0  0  0  0
   -2.7728   -2.7096    0.3954 C   0  0  0  0  0  0  0  0  0  0  0  0
   -3.4267   -2.0426    0.9524 H   0  0  0  0  0  0  0  0  0  0  0  0
   -3.0538   -2.7186   -0.6556 H   0  0  0  0  0  0  0  0  0  0  0  0
   -1.3498   -2.2206    0.5184 C   0  0  0  0  0  0  0  0  0  0  0  0
   -0.4997   -2.9426    1.0194 O   0  0  0  0  0  0  0  0  0  0  0  0
   -1.1198   -0.9926    0.0674 N   0  0  0  0  0  0  0  0  0  0  0  0
   -1.8978   -0.4486   -0.2716 H   0  0  0  0  0  0  0  0  0  0  0  0
    0.1693   -0.2866    0.0854 C   0  0  1  0  0  0  0  0  0  0  0  0
    0.9043   -0.8713   -0.4705 H   0  0  0  0  0  0  0  0  0  0  0  0
    0.0106    1.0816   -0.6124 C   0  0  0  0  0  0  0  0  0  0  0  0
    0.2633    1.8693    0.0995 H   0  0  0  0  0  0  0  0  0  0  0  0
    0.7217    1.1395   -1.4394 H   0  0  0  0  0  0  0  0  0  0  0  0
   -1.4041    1.3683   -1.1396 C   0  0  0  0  0  0  0  0  0  0  0  0
   -1.6897    1.0191   -2.3093 O   0  5  0  0  0  0  0  0  0  0  0  0
   -2.1893    1.9576   -0.3660 O   0  0  0  0  0  0  0  0  0  0  0  0
    0.6664   -0.1450    1.5428 C   0  0  0  0  0  0  0  0  0  0  0  0
    1.8485   -0.3724    1.8265 O   0  0  0  0  0  0  0  0  0  0  0  0
   -0.2161    0.2434    2.4686 N   0  0  0  0  0  0  0  0  0  0  0  0
   -1.1850    0.3219    2.1537 H   0  0  0  0  0  0  0  0  0  0  0  0
    0.0735    0.4128    3.8885 C   0  0  0  0  0  0  0  0  0  0  0  0
    1.0159    0.9483    4.0105 H   0  0  0  0  0  0  0  0  0  0  0  0
   -0.7315    0.9748    4.3613 H   0  0  0  0  0  0  0  0  0  0  0  0
    0.1564   -0.5677    4.3577 H   0  0  0  0  0  0  0  0  0  0  0  0
  5  6  2  0  0  0  0
  5  7  1  0  0  0  0
  2  3  1  0  0  0  0
  2  4  1  0  0  0  0
  2  5  1  0  0  0  0
  1  2  1  0  0  0  0
 17 18  2  0  0  0  0
 17 19  1  0  0  0  0
 14 15  1  0  0  0  0
 14 16  2  0  0  0  0
 11 12  1  0  0  0  0
 11 13  1  0  0  0  0
 11 14  1  0  0  0  0
  9 10  1  0  0  0  0
  9 11  1  0  0  0  0
  9 17  1  0  0  0  0
  7  8  1  0  0  0  0
  7  9  1  0  0  0  0
 21 22  1  0  0  0  0
 21 23  1  0  0  0  0
 21 24  1  0  0  0  0
 19 20  1  0  0  0  0
 19 21  1  0  0  0  0
M  CHG  1  15  -1
M  END
$$$$
default_name
  -OEChem-02102213163D

 24 23  0     1  0  0  0  0  0999 V2000
   -2.8347   -3.7166    0.8034 H   0  0  0  0  0  0  0  0  0  0  0  0
   -2.7728   -2.7096    0.3954 C   0  0  0  0  0  0  0  0  0  0  0  0
   -3.4267   -2.0426    0.9524 H   0  0  0  0  0  0  0  0  0  0  0  0
   -3.0538   -2.7186   -0.6556 H   0  0  0  0  0  0  0  0  0  0  0  0
   -1.3498   -2.2206    0.5184 C   0  0  0  0  0  0  0  0  0  0  0  0
   -0.4997   -2.9426    1.0194 O   0  0  0  0  0  0  0  0  0  0  0  0
   -1.1198   -0.9926    0.0674 N   0  0  0  0  0  0  0  0  0  0  0  0
   -1.8978   -0.4486   -0.2716 H   0  0  0  0  0  0  0  0  0  0  0  0
    0.1693   -0.2866    0.0854 C   0  0  1  0  0  0  0  0  0  0  0  0
    0.9043   -0.8713   -0.4705 H   0  0  0  0  0  0  0  0  0  0  0  0
    0.0106    1.0816   -0.6124 C   0  0  0  0  0  0  0  0  0  0  0  0
    0.2633    1.8693    0.0995 H   0  0  0  0  0  0  0  0  0  0  0  0
    0.7217    1.1395   -1.4394 H   0  0  0  0  0  0  0  0  0  0  0  0
   -1.4041    1.3683   -1.1396 C   0  0  0  0  0  0  0  0  0  0  0  0
   -1.7863    0.7815   -2.1795 O   0  5  0  0  0  0  0  0  0  0  0  0
   -2.0906    2.1952   -0.5015 O   0  0  0  0  0  0  0  0  0  0  0  0
    0.6664   -0.1450    1.5428 C   0  0  0  0  0  0  0  0  0  0  0  0
    1.8485   -0.3724    1.8265 O   0  0  0  0  0  0  0  0  0  0  0  0
   -0.2161    0.2434    2.4686 N   0  0  0  0  0  0  0  0  0  0  0  0
   -1.1850    0.3219    2.1537 H   0  0  0  0  0  0  0  0  0  0  0  0
    0.0735    0.4128    3.8885 C   0  0  0  0  0  0  0  0  0  0  0  0
    1.0159    0.9483    4.0105 H   0  0  0  0  0  0  0  0  0  0  0  0
   -0.7315    0.9748    4.3613 H   0  0  0  0  0  0  0  0  0  0  0  0
    0.1564   -0.5677    4.3577 H   0  0  0  0  0  0  0  0  0  0  0  0
  5  6  2  0  0  0  0
  5  7  1  0  0  0  0
  2  3  1  0  0  0  0
  2  4  1  0  0  0  0
  2  5  1  0  0  0  0
  1  2  1  0  0  0  0
 17 18  2  0  0  0  0
 17 19  1  0  0  0  0
 14 15  1  0  0  0  0
 14 16  2  0  0  0  0
 11 12  1  0  0  0  0
 11 13  1  0  0  0  0
 11 14  1  0  0  0  0
  9 10  1  0  0  0  0
  9 11  1  0  0  0  0
  9 17  1  0  0  0  0
  7  8  1  0  0  0  0
  7  9  1  0  0  0  0
 21 22  1  0  0  0  0
 21 23  1  0  0  0  0
 21 24  1  0  0  0  0
 19 20  1  0  0  0  0
 19 21  1  0  0  0  0
M  CHG  1  15  -1
M  END
$$$$
default_name
  -OEChem-02102213163D

 24 23  0     1  0  0  0  0  0999 V2000
   -2.8347   -3.7166    0.8034 H   0  0  0  0  0  0  0  0  0  0  0  0
   -2.7728   -2.7096    0.3954 C   0  0  0  0  0  0  0  0  0  0  0  0
   -3.4267   -2.0426    0.9524 H   0  0  0  0  0  0  0  0  0  0  0  0
   -3.0538   -2.7186   -0.6556 H   0  0  0  0  0  0  0  0  0  0  0  0
   -1.3498   -2.2206    0.5184 C   0  0  0  0  0  0  0  0  0  0  0  0
   -0.4997   -2.9426    1.0194 O   0  0  0  0  0  0  0  0  0  0  0  0
   -1.1198   -0.9926    0.0674 N   0  0  0  0  0  0  0  0  0  0  0  0
   -1.8978   -0.4486   -0.2716 H   0  0  0  0  0  0  0  0  0  0  0  0
    0.1693   -0.2866    0.0854 C   0  0  1  0  0  0  0  0  0  0  0  0
    0.9043   -0.8713   -0.4705 H   0  0  0  0  0  0  0  0  0  0  0  0
    0.0106    1.0816   -0.6124 C   0  0  0  0  0  0  0  0  0  0  0  0
    0.2633    1.8693    0.0995 H   0  0  0  0  0  0  0  0  0  0  0  0
    0.7217    1.1395   -1.4394 H   0  0  0  0  0  0  0  0  0  0  0  0
   -1.4041    1.3683   -1.1396 C   0  0  0  0  0  0  0  0  0  0  0  0
   -1.8943    0.5915   -1.9928 O   0  5  0  0  0  0  0  0  0  0  0  0
   -1.9808    2.3836   -0.6937 O   0  0  0  0  0  0  0  0  0  0  0  0
    0.6664   -0.1450    1.5428 C   0  0  0  0  0  0  0  0  0  0  0  0
    1.8485   -0.3724    1.8265 O   0  0  0  0  0  0  0  0  0  0  0  0
   -0.2161    0.2434    2.4686 N   0  0  0  0  0  0  0  0  0  0  0  0
   -1.1850    0.3219    2.1537 H   0  0  0  0  0  0  0  0  0  0  0  0
    0.0735    0.4128    3.8885 C   0  0  0  0  0  0  0  0  0  0  0  0
    1.0159    0.9483    4.0105 H   0  0  0  0  0  0  0  0  0  0  0  0
   -0.7315    0.9748    4.3613 H   0  0  0  0  0  0  0  0  0  0  0  0
    0.1564   -0.5677    4.3577 H   0  0  0  0  0  0  0  0  0  0  0  0
  5  6  2  0  0  0  0
  5  7  1  0  0  0  0
  2  3  1  0  0  0  0
  2  4  1  0  0  0  0
  2  5  1  0  0  0  0
  1  2  1  0  0  0  0
 17 18  2  0  0  0  0
 17 19  1  0  0  0  0
 14 15  1  0  0  0  0
 14 16  2  0  0  0  0
 11 12  1  0  0  0  0
 11 13  1  0  0  0  0
 11 14  1  0  0  0  0
  9 10  1  0  0  0  0
  9 11  1  0  0  0  0
  9 17  1  0  0  0  0
  7  8  1  0  0  0  0
  7  9  1  0  0  0  0
 21 22  1  0  0  0  0
 21 23  1  0  0  0  0
 21 24  1  0  0  0  0
 19 20  1  0  0  0  0
 19 21  1  0  0  0  0
M  CHG  1  15  -1
M  END
$$$$
default_name
  -OEChem-02102213163D

 24 23  0     1  0  0  0  0  0999 V2000
   -2.8347   -3.7166    0.8034 H   0  0  0  0  0  0  0  0  0  0  0  0
   -2.7728   -2.7096    0.3954 C   0  0  0  0  0  0  0  0  0  0  0  0
   -3.4267   -2.0426    0.9524 H   0  0  0  0  0  0  0  0  0  0  0  0
   -3.0538   -2.7186   -0.6556 H   0  0  0  0  0  0  0  0  0  0  0  0
   -1.3498   -2.2206    0.5184 C   0  0  0  0  0  0  0  0  0  0  0  0
   -0.4997   -2.9426    1.0194 O   0  0  0  0  0  0  0  0  0  0  0  0
   -1.1198   -0.9926    0.0674 N   0  0  0  0  0  0  0  0  0  0  0  0
   -1.8978   -0.4486   -0.2716 H   0  0  0  0  0  0  0  0  0  0  0  0
    0.1693   -0.2866    0.0854 C   0  0  1  0  0  0  0  0  0  0  0  0
    0.9043   -0.8713   -0.4705 H   0  0  0  0  0  0  0  0  0  0  0  0
    0.0106    1.0816   -0.6124 C   0  0  0  0  0  0  0  0  0  0  0  0
    0.2633    1.8693    0.0995 H   0  0  0  0  0  0  0  0  0  0  0  0
    0.7217    1.1395   -1.4394 H   0  0  0  0  0  0  0  0  0  0  0  0
   -1.4041    1.3683   -1.1396 C   0  0  0  0  0  0  0  0  0  0  0  0
   -2.0066    0.4620   -1.7619 O   0  5  0  0  0  0  0  0  0  0  0  0
   -1.8673    2.5100   -0.9296 O   0  0  0  0  0  0  0  0  0  0  0  0
    0.6664   -0.1450    1.5428 C   0  0  0  0  0  0  0  0  0  0  0  0
    1.8485   -0.3724    1.8265 O   0  0  0  0  0  0  0  0  0  0  0  0
   -0.2161    0.2434    2.4686 N   0  0  0  0  0  0  0  0  0  0  0  0
   -1.1850    0.3219    2.1537 H   0  0  0  0  0  0  0  0  0  0  0  0
    0.0735    0.4128    3.8885 C   0  0  0  0  0  0  0  0  0  0  0  0
    1.0159    0.9483    4.0105 H   0  0  0  0  0  0  0  0  0  0  0  0
   -0.7315    0.9748    4.3613 H   0  0  0  0  0  0  0  0  0  0  0  0
    0.1564   -0.5677    4.3577 H   0  0  0  0  0  0  0  0  0  0  0  0
  5  6  2  0  0  0  0
  5  7  1  0  0  0  0
  2  3  1  0  0  0  0
  2  4  1  0  0  0  0
  2  5  1  0  0  0  0
  1  2  1  0  0  0  0
 17 18  2  0  0  0  0
 17 19  1  0  0  0  0
 14 15  1  0  0  0  0
 14 16  2  0  0  0  0
 11 12  1  0  0  0  0
 11 13  1  0  0  0  0
 11 14  1  0  0  0  0
  9 10  1  0  0  0  0
  9 11  1  0  0  0  0
  9 17  1  0  0  0  0
  7  8  1  0  0  0  0
  7  9  1  0  0  0  0
 21 22  1  0  0  0  0
 21 23  1  0  0  0  0
 21 24  1  0  0  0  0
 19 20  1  0  0  0  0
 19 21  1  0  0  0  0
M  CHG  1  15  -1
M  END
$$$$
default_name
  -OEChem-02102213163D

 24 23  0     1  0  0  0  0  0999 V2000
   -2.8347   -3.7166    0.8034 H   0  0  0  0  0  0  0  0  0  0  0  0
   -2.7728   -2.7096    0.3954 C   0  0  0  0  0  0  0  0  0  0  0  0
   -3.4267   -2.0426    0.9524 H   0  0  0  0  0  0  0  0  0  0  0  0
   -3.0538   -2.7186   -0.6556 H   0  0  0  0  0  0  0  0  0  0  0  0
   -1.3498   -2.2206    0.5184 C   0  0  0  0  0  0  0  0  0  0  0  0
   -0.4997   -2.9426    1.0194 O   0  0  0  0  0  0  0  0  0  0  0  0
   -1.1198   -0.9926    0.0674 N   0  0  0  0  0  0  0  0  0  0  0  0
   -1.8978   -0.4486   -0.2716 H   0  0  0  0  0  0  0  0  0  0  0  0
    0.1693   -0.2866    0.0854 C   0  0  1  0  0  0  0  0  0  0  0  0
    0.9043   -0.8713   -0.4705 H   0  0  0  0  0  0  0  0  0  0  0  0
    0.0106    1.0816   -0.6124 C   0  0  0  0  0  0  0  0  0  0  0  0
    0.2633    1.8693    0.0995 H   0  0  0  0  0  0  0  0  0  0  0  0
    0.7217    1.1395   -1.4394 H   0  0  0  0  0  0  0  0  0  0  0  0
   -1.4041    1.3683   -1.1396 C   0  0  0  0  0  0  0  0  0  0  0  0
   -2.1154    0.4019   -1.5027 O   0  5  0  0  0  0  0  0  0  0  0  0
   -1.7578    2.5659   -1.1931 O   0  0  0  0  0  0  0  0  0  0  0  0
    0.6664   -0.1450    1.5428 C   0  0  0  0  0  0  0  0  0  0  0  0
    1.8485   -0.3724    1.8265 O   0  0  0  0  0  0  0  0  0  0  0  0
   -0.2161    0.2434    2.4686 N   0  0  0  0  0  0  0  0  0  0  0  0
   -1.1850    0.3219    2.1537 H   0  0  0  0  0  0  0  0  0  0  0  0
    0.0735    0.4128    3.8885 C   0  0  0  0  0  0  0  0  0  0  0  0
    1.0159    0.9483    4.0105 H   0  0  0  0  0  0  0  0  0  0  0  0
   -0.7315    0.9748    4.3613 H   0  0  0  0  0  0  0  0  0  0  0  0
    0.1564   -0.5677    4.3577 H   0  0  0  0  0  0  0  0  0  0  0  0
  5  6  2  0  0  0  0
  5  7  1  0  0  0  0
  2  3  1  0  0  0  0
  2  4  1  0  0  0  0
  2  5  1  0  0  0  0
  1  2  1  0  0  0  0
 17 18  2  0  0  0  0
 17 19  1  0  0  0  0
 14 15  1  0  0  0  0
 14 16  2  0  0  0  0
 11 12  1  0  0  0  0
 11 13  1  0  0  0  0
 11 14  1  0  0  0  0
  9 10  1  0  0  0  0
  9 11  1  0  0  0  0
  9 17  1  0  0  0  0
  7  8  1  0  0  0  0
  7  9  1  0  0  0  0
 21 22  1  0  0  0  0
 21 23  1  0  0  0  0
 21 24  1  0  0  0  0
 19 20  1  0  0  0  0
 19 21  1  0  0  0  0
M  CHG  1  15  -1
M  END
$$$$
default_name
  -OEChem-02102213163D

 24 23  0     1  0  0  0  0  0999 V2000
   -2.8347   -3.7166    0.8034 H   0  0  0  0  0  0  0  0  0  0  0  0
   -2.7728   -2.7096    0.3954 C   0  0  0  0  0  0  0  0  0  0  0  0
   -3.4267   -2.0426    0.9524 H   0  0  0  0  0  0  0  0  0  0  0  0
   -3.0538   -2.7186   -0.6556 H   0  0  0  0  0  0  0  0  0  0  0  0
   -1.3498   -2.2206    0.5184 C   0  0  0  0  0  0  0  0  0  0  0  0
   -0.4997   -2.9426    1.0194 O   0  0  0  0  0  0  0  0  0  0  0  0
   -1.1198   -0.9926    0.0674 N   0  0  0  0  0  0  0  0  0  0  0  0
   -1.8978   -0.4486   -0.2716 H   0  0  0  0  0  0  0  0  0  0  0  0
    0.1693   -0.2866    0.0854 C   0  0  1  0  0  0  0  0  0  0  0  0
    0.9043   -0.8713   -0.4705 H   0  0  0  0  0  0  0  0  0  0  0  0
    0.0106    1.0816   -0.6124 C   0  0  0  0  0  0  0  0  0  0  0  0
    0.2633    1.8693    0.0995 H   0  0  0  0  0  0  0  0  0  0  0  0
    0.7217    1.1395   -1.4394 H   0  0  0  0  0  0  0  0  0  0  0  0
   -1.4041    1.3683   -1.1396 C   0  0  0  0  0  0  0  0  0  0  0  0
   -2.2133    0.4153   -1.2327 O   0  5  0  0  0  0  0  0  0  0  0  0
   -1.6598    2.5473   -1.4662 O   0  0  0  0  0  0  0  0  0  0  0  0
    0.6664   -0.1450    1.5428 C   0  0  0  0  0  0  0  0  0  0  0  0
    1.8485   -0.3724    1.8265 O   0  0  0  0  0  0  0  0  0  0  0  0
   -0.2161    0.2434    2.4686 N   0  0  0  0  0  0  0  0  0  0  0  0
   -1.1850    0.3219    2.1537 H   0  0  0  0  0  0  0  0  0  0  0  0
    0.0735    0.4128    3.8885 C   0  0  0  0  0  0  0  0  0  0  0  0
    1.0159    0.9483    4.0105 H   0  0  0  0  0  0  0  0  0  0  0  0
   -0.7315    0.9748    4.3613 H   0  0  0  0  0  0  0  0  0  0  0  0
    0.1564   -0.5677    4.3577 H   0  0  0  0  0  0  0  0  0  0  0  0
  5  6  2  0  0  0  0
  5  7  1  0  0  0  0
  2  3  1  0  0  0  0
  2  4  1  0  0  0  0
  2  5  1  0  0  0  0
  1  2  1  0  0  0  0
 17 18  2  0  0  0  0
 17 19  1  0  0  0  0
 14 15  1  0  0  0  0
 14 16  2  0  0  0  0
 11 12  1  0  0  0  0
 11 13  1  0  0  0  0
 11 14  1  0  0  0  0
  9 10  1  0  0  0  0
  9 11  1  0  0  0  0
  9 17  1  0  0  0  0
  7  8  1  0  0  0  0
  7  9  1  0  0  0  0
 21 22  1  0  0  0  0
 21 23  1  0  0  0  0
 21 24  1  0  0  0  0
 19 20  1  0  0  0  0
 19 21  1  0  0  0  0
M  CHG  1  15  -1
M  END
$$$$
default_name
  -OEChem-02102213163D

 24 23  0     1  0  0  0  0  0999 V2000
   -2.8347   -3.7166    0.8034 H   0  0  0  0  0  0  0  0  0  0  0  0
   -2.7728   -2.7096    0.3954 C   0  0  0  0  0  0  0  0  0  0  0  0
   -3.4267   -2.0426    0.9524 H   0  0  0  0  0  0  0  0  0  0  0  0
   -3.0538   -2.7186   -0.6556 H   0  0  0  0  0  0  0  0  0  0  0  0
   -1.3498   -2.2206    0.5184 C   0  0  0  0  0  0  0  0  0  0  0  0
   -0.4997   -2.9426    1.0194 O   0  0  0  0  0  0  0  0  0  0  0  0
   -1.1198   -0.9926    0.0674 N   0  0  0  0  0  0  0  0  0  0  0  0
   -1.8978   -0.4486   -0.2716 H   0  0  0  0  0  0  0  0  0  0  0  0
    0.1693   -0.2866    0.0854 C   0  0  1  0  0  0  0  0  0  0  0  0
    0.9043   -0.8713   -0.4705 H   0  0  0  0  0  0  0  0  0  0  0  0
    0.0106    1.0816   -0.6124 C   0  0  0  0  0  0  0  0  0  0  0  0
    0.2633    1.8693    0.0995 H   0  0  0  0  0  0  0  0  0  0  0  0
    0.7217    1.1395   -1.4394 H   0  0  0  0  0  0  0  0  0  0  0  0
   -1.4041    1.3683   -1.1396 C   0  0  0  0  0  0  0  0  0  0  0  0
   -2.2936    0.5012   -0.9704 O   0  5  0  0  0  0  0  0  0  0  0  0
   -1.5799    2.4557   -1.7303 O   0  0  0  0  0  0  0  0  0  0  0  0
    0.6664   -0.1450    1.5428 C   0  0  0  0  0  0  0  0  0  0  0  0
    1.8485   -0.3724    1.8265 O   0  0  0  0  0  0  0  0  0  0  0  0
   -0.2161    0.2434    2.4686 N   0  0  0  0  0  0  0  0  0  0  0  0
   -1.1850    0.3219    2.1537 H   0  0  0  0  0  0  0  0  0  0  0  0
    0.0735    0.4128    3.8885 C   0  0  0  0  0  0  0  0  0  0  0  0
    1.0159    0.9483    4.0105 H   0  0  0  0  0  0  0  0  0  0  0  0
   -0.7315    0.9748    4.3613 H   0  0  0  0  0  0  0  0  0  0  0  0
    0.1564   -0.5677    4.3577 H   0  0  0  0  0  0  0  0  0  0  0  0
  5  6  2  0  0  0  0
  5  7  1  0  0  0  0
  2  3  1  0  0  0  0
  2  4  1  0  0  0  0
  2  5  1  0  0  0  0
  1  2  1  0  0  0  0
 17 18  2  0  0  0  0
 17 19  1  0  0  0  0
 14 15  1  0  0  0  0
 14 16  2  0  0  0  0
 11 12  1  0  0  0  0
 11 13  1  0  0  0  0
 11 14  1  0  0  0  0
  9 10  1  0  0  0  0
  9 11  1  0  0  0  0
  9 17  1  0  0  0  0
  7  8  1  0  0  0  0
  7  9  1  0  0  0  0
 21 22  1  0  0  0  0
 21 23  1  0  0  0  0
 21 24  1  0  0  0  0
 19 20  1  0  0  0  0
 19 21  1  0  0  0  0
M  CHG  1  15  -1
M  END
$$$$
default_name
  -OEChem-02102213163D

 24 23  0     1  0  0  0  0  0999 V2000
   -2.8347   -3.7166    0.8034 H   0  0  0  0  0  0  0  0  0  0  0  0
   -2.7728   -2.7096    0.3954 C   0  0  0  0  0  0  0  0  0  0  0  0
   -3.4267   -2.0426    0.9524 H   0  0  0  0  0  0  0  0  0  0  0  0
   -3.0538   -2.7186   -0.6556 H   0  0  0  0  0  0  0  0  0  0  0  0
   -1.3498   -2.2206    0.5184 C   0  0  0  0  0  0  0  0  0  0  0  0
   -0.4997   -2.9426    1.0194 O   0  0  0  0  0  0  0  0  0  0  0  0
   -1.1198   -0.9926    0.0674 N   0  0  0  0  0  0  0  0  0  0  0  0
   -1.8978   -0.4486   -0.2716 H   0  0  0  0  0  0  0  0  0  0  0  0
    0.1693   -0.2866    0.0854 C   0  0  1  0  0  0  0  0  0  0  0  0
    0.9043   -0.8713   -0.4705 H   0  0  0  0  0  0  0  0  0  0  0  0
    0.0106    1.0816   -0.6124 C   0  0  0  0  0  0  0  0  0  0  0  0
    0.2633    1.8693    0.0995 H   0  0  0  0  0  0  0  0  0  0  0  0
    0.7217    1.1395   -1.4394 H   0  0  0  0  0  0  0  0  0  0  0  0
   -1.4041    1.3683   -1.1396 C   0  0  0  0  0  0  0  0  0  0  0  0
   -2.3509    0.6538   -0.7336 O   0  5  0  0  0  0  0  0  0  0  0  0
   -1.5237    2.2971   -1.9674 O   0  0  0  0  0  0  0  0  0  0  0  0
    0.6664   -0.1450    1.5428 C   0  0  0  0  0  0  0  0  0  0  0  0
    1.8485   -0.3724    1.8265 O   0  0  0  0  0  0  0  0  0  0  0  0
   -0.2161    0.2434    2.4686 N   0  0  0  0  0  0  0  0  0  0  0  0
   -1.1850    0.3219    2.1537 H   0  0  0  0  0  0  0  0  0  0  0  0
    0.0735    0.4128    3.8885 C   0  0  0  0  0  0  0  0  0  0  0  0
    1.0159    0.9483    4.0105 H   0  0  0  0  0  0  0  0  0  0  0  0
   -0.7315    0.9748    4.3613 H   0  0  0  0  0  0  0  0  0  0  0  0
    0.1564   -0.5677    4.3577 H   0  0  0  0  0  0  0  0  0  0  0  0
  5  6  2  0  0  0  0
  5  7  1  0  0  0  0
  2  3  1  0  0  0  0
  2  4  1  0  0  0  0
  2  5  1  0  0  0  0
  1  2  1  0  0  0  0
 17 18  2  0  0  0  0
 17 19  1  0  0  0  0
 14 15  1  0  0  0  0
 14 16  2  0  0  0  0
 11 12  1  0  0  0  0
 11 13  1  0  0  0  0
 11 14  1  0  0  0  0
  9 10  1  0  0  0  0
  9 11  1  0  0  0  0
  9 17  1  0  0  0  0
  7  8  1  0  0  0  0
  7  9  1  0  0  0  0
 21 22  1  0  0  0  0
 21 23  1  0  0  0  0
 21 24  1  0  0  0  0
 19 20  1  0  0  0  0
 19 21  1  0  0  0  0
M  CHG  1  15  -1
M  END
$$$$
default_name
  -OEChem-02102213163D

 24 23  0     1  0  0  0  0  0999 V2000
   -2.8347   -3.7166    0.8034 H   0  0  0  0  0  0  0  0  0  0  0  0
   -2.7728   -2.7096    0.3954 C   0  0  0  0  0  0  0  0  0  0  0  0
   -3.4267   -2.0426    0.9524 H   0  0  0  0  0  0  0  0  0  0  0  0
   -3.0538   -2.7186   -0.6556 H   0  0  0  0  0  0  0  0  0  0  0  0
   -1.3498   -2.2206    0.5184 C   0  0  0  0  0  0  0  0  0  0  0  0
   -0.4997   -2.9426    1.0194 O   0  0  0  0  0  0  0  0  0  0  0  0
   -1.1198   -0.9926    0.0674 N   0  0  0  0  0  0  0  0  0  0  0  0
   -1.8978   -0.4486   -0.2716 H   0  0  0  0  0  0  0  0  0  0  0  0
    0.1693   -0.2866    0.0854 C   0  0  1  0  0  0  0  0  0  0  0  0
    0.9043   -0.8713   -0.4705 H   0  0  0  0  0  0  0  0  0  0  0  0
    0.0106    1.0816   -0.6124 C   0  0  0  0  0  0  0  0  0  0  0  0
    0.2633    1.8693    0.0995 H   0  0  0  0  0  0  0  0  0  0  0  0
    0.7217    1.1395   -1.4394 H   0  0  0  0  0  0  0  0  0  0  0  0
   -1.4041    1.3683   -1.1396 C   0  0  0  0  0  0  0  0  0  0  0  0
   -2.3813    0.8628   -0.5385 O   0  5  0  0  0  0  0  0  0  0  0  0
   -1.4949    2.0824   -2.1613 O   0  0  0  0  0  0  0  0  0  0  0  0
    0.6664   -0.1450    1.5428 C   0  0  0  0  0  0  0  0  0  0  0  0
    1.8485   -0.3724    1.8265 O   0  0  0  0  0  0  0  0  0  0  0  0
   -0.2161    0.2434    2.4686 N   0  0  0  0  0  0  0  0  0  0  0  0
   -1.1850    0.3219    2.1537 H   0  0  0  0  0  0  0  0  0  0  0  0
    0.0735    0.4128    3.8885 C   0  0  0  0  0  0  0  0  0  0  0  0
    1.0159    0.9483    4.0105 H   0  0  0  0  0  0  0  0  0  0  0  0
   -0.7315    0.9748    4.3613 H   0  0  0  0  0  0  0  0  0  0  0  0
    0.1564   -0.5677    4.3577 H   0  0  0  0  0  0  0  0  0  0  0  0
  5  6  2  0  0  0  0
  5  7  1  0  0  0  0
  2  3  1  0  0  0  0
  2  4  1  0  0  0  0
  2  5  1  0  0  0  0
  1  2  1  0  0  0  0
 17 18  2  0  0  0  0
 17 19  1  0  0  0  0
 14 15  1  0  0  0  0
 14 16  2  0  0  0  0
 11 12  1  0  0  0  0
 11 13  1  0  0  0  0
 11 14  1  0  0  0  0
  9 10  1  0  0  0  0
  9 11  1  0  0  0  0
  9 17  1  0  0  0  0
  7  8  1  0  0  0  0
  7  9  1  0  0  0  0
 21 22  1  0  0  0  0
 21 23  1  0  0  0  0
 21 24  1  0  0  0  0
 19 20  1  0  0  0  0
 19 21  1  0  0  0  0
M  CHG  1  15  -1
M  END
$$$$
default_name
  -OEChem-02102213163D

 24 23  0     1  0  0  0  0  0999 V2000
   -2.8347   -3.7166    0.8034 H   0  0  0  0  0  0  0  0  0  0  0  0
   -2.7728   -2.7096    0.3954 C   0  0  0  0  0  0  0  0  0  0  0  0
   -3.4267   -2.0426    0.9524 H   0  0  0  0  0  0  0  0  0  0  0  0
   -3.0538   -2.7186   -0.6556 H   0  0  0  0  0  0  0  0  0  0  0  0
   -1.3498   -2.2206    0.5184 C   0  0  0  0  0  0  0  0  0  0  0  0
   -0.4997   -2.9426    1.0194 O   0  0  0  0  0  0  0  0  0  0  0  0
   -1.1198   -0.9926    0.0674 N   0  0  0  0  0  0  0  0  0  0  0  0
   -1.8978   -0.4486   -0.2716 H   0  0  0  0  0  0  0  0  0  0  0  0
    0.1693   -0.2866    0.0854 C   0  0  1  0  0  0  0  0  0  0  0  0
    0.9043   -0.8713   -0.4705 H   0  0  0  0  0  0  0  0  0  0  0  0
    0.0106    1.0816   -0.6124 C   0  0  0  0  0  0  0  0  0  0  0  0
    0.2633    1.8693    0.0995 H   0  0  0  0  0  0  0  0  0  0  0  0
    0.7217    1.1395   -1.4394 H   0  0  0  0  0  0  0  0  0  0  0  0
   -1.4041    1.3683   -1.1396 C   0  0  0  0  0  0  0  0  0  0  0  0
   -2.3826    1.1138   -0.3984 O   0  5  0  0  0  0  0  0  0  0  0  0
   -1.4956    1.8263   -2.2989 O   0  0  0  0  0  0  0  0  0  0  0  0
    0.6664   -0.1450    1.5428 C   0  0  0  0  0  0  0  0  0  0  0  0
    1.8485   -0.3724    1.8265 O   0  0  0  0  0  0  0  0  0  0  0  0
   -0.2161    0.2434    2.4686 N   0  0  0  0  0  0  0  0  0  0  0  0
   -1.1850    0.3219    2.1537 H   0  0  0  0  0  0  0  0  0  0  0  0
    0.0735    0.4128    3.8885 C   0  0  0  0  0  0  0  0  0  0  0  0
    1.0159    0.9483    4.0105 H   0  0  0  0  0  0  0  0  0  0  0  0
   -0.7315    0.9748    4.3613 H   0  0  0  0  0  0  0  0  0  0  0  0
    0.1564   -0.5677    4.3577 H   0  0  0  0  0  0  0  0  0  0  0  0
  5  6  2  0  0  0  0
  5  7  1  0  0  0  0
  2  3  1  0  0  0  0
  2  4  1  0  0  0  0
  2  5  1  0  0  0  0
  1  2  1  0  0  0  0
 17 18  2  0  0  0  0
 17 19  1  0  0  0  0
 14 15  1  0  0  0  0
 14 16  2  0  0  0  0
 11 12  1  0  0  0  0
 11 13  1  0  0  0  0
 11 14  1  0  0  0  0
  9 10  1  0  0  0  0
  9 11  1  0  0  0  0
  9 17  1  0  0  0  0
  7  8  1  0  0  0  0
  7  9  1  0  0  0  0
 21 22  1  0  0  0  0
 21 23  1  0  0  0  0
 21 24  1  0  0  0  0
 19 20  1  0  0  0  0
 19 21  1  0  0  0  0
M  CHG  1  15  -1
M  END
$$$$
default_name
  -OEChem-02102213163D

 24 23  0     1  0  0  0  0  0999 V2000
   -2.8347   -3.7166    0.8034 H   0  0  0  0  0  0  0  0  0  0  0  0
   -2.7728   -2.7096    0.3954 C   0  0  0  0  0  0  0  0  0  0  0  0
   -3.4267   -2.0426    0.9524 H   0  0  0  0  0  0  0  0  0  0  0  0
   -3.0538   -2.7186   -0.6556 H   0  0  0  0  0  0  0  0  0  0  0  0
   -1.3498   -2.2206    0.5184 C   0  0  0  0  0  0  0  0  0  0  0  0
   -0.4997   -2.9426    1.0194 O   0  0  0  0  0  0  0  0  0  0  0  0
   -1.1198   -0.9926    0.0674 N   0  0  0  0  0  0  0  0  0  0  0  0
   -1.8978   -0.4486   -0.2716 H   0  0  0  0  0  0  0  0  0  0  0  0
    0.1693   -0.2866    0.0854 C   0  0  1  0  0  0  0  0  0  0  0  0
    0.9043   -0.8713   -0.4705 H   0  0  0  0  0  0  0  0  0  0  0  0
    0.0106    1.0816   -0.6124 C   0  0  0  0  0  0  0  0  0  0  0  0
    0.2633    1.8693    0.0995 H   0  0  0  0  0  0  0  0  0  0  0  0
    0.7217    1.1395   -1.4394 H   0  0  0  0  0  0  0  0  0  0  0  0
   -1.4041    1.3683   -1.1396 C   0  0  0  0  0  0  0  0  0  0  0  0
   -2.3549    1.3898   -0.3228 O   0  5  0  0  0  0  0  0  0  0  0  0
   -1.5255    1.5462   -2.3708 O   0  0  0  0  0  0  0  0  0  0  0  0
    0.6664   -0.1450    1.5428 C   0  0  0  0  0  0  0  0  0  0  0  0
    1.8485   -0.3724    1.8265 O   0  0  0  0  0  0  0  0  0  0  0  0
   -0.2161    0.2434    2.4686 N   0  0  0  0  0  0  0  0  0  0  0  0
   -1.1850    0.3219    2.1537 H   0  0  0  0  0  0  0  0  0  0  0  0
    0.0735    0.4128    3.8885 C   0  0  0  0  0  0  0  0  0  0  0  0
    1.0159    0.9483    4.0105 H   0  0  0  0  0  0  0  0  0  0  0  0
   -0.7315    0.9748    4.3613 H   0  0  0  0  0  0  0  0  0  0  0  0
    0.1564   -0.5677    4.3577 H   0  0  0  0  0  0  0  0  0  0  0  0
  5  6  2  0  0  0  0
  5  7  1  0  0  0  0
  2  3  1  0  0  0  0
  2  4  1  0  0  0  0
  2  5  1  0  0  0  0
  1  2  1  0  0  0  0
 17 18  2  0  0  0  0
 17 19  1  0  0  0  0
 14 15  1  0  0  0  0
 14 16  2  0  0  0  0
 11 12  1  0  0  0  0
 11 13  1  0  0  0  0
 11 14  1  0  0  0  0
  9 10  1  0  0  0  0
  9 11  1  0  0  0  0
  9 17  1  0  0  0  0
  7  8  1  0  0  0  0
  7  9  1  0  0  0  0
 21 22  1  0  0  0  0
 21 23  1  0  0  0  0
 21 24  1  0  0  0  0
 19 20  1  0  0  0  0
 19 21  1  0  0  0  0
M  CHG  1  15  -1
M  END
$$$$
default_name
  -OEChem-02102213163D

 24 23  0     1  0  0  0  0  0999 V2000
   -2.8347   -3.7166    0.8034 H   0  0  0  0  0  0  0  0  0  0  0  0
   -2.7728   -2.7096    0.3954 C   0  0  0  0  0  0  0  0  0  0  0  0
   -3.4267   -2.0426    0.9524 H   0  0  0  0  0  0  0  0  0  0  0  0
   -3.0538   -2.7186   -0.6556 H   0  0  0  0  0  0  0  0  0  0  0  0
   -1.3498   -2.2206    0.5184 C   0  0  0  0  0  0  0  0  0  0  0  0
   -0.4997   -2.9426    1.0194 O   0  0  0  0  0  0  0  0  0  0  0  0
   -1.1198   -0.9926    0.0674 N   0  0  0  0  0  0  0  0  0  0  0  0
   -1.8978   -0.4486   -0.2716 H   0  0  0  0  0  0  0  0  0  0  0  0
    0.1693   -0.2866    0.0854 C   0  0  1  0  0  0  0  0  0  0  0  0
    0.9043   -0.8713   -0.4705 H   0  0  0  0  0  0  0  0  0  0  0  0
    0.0106    1.0816   -0.6124 C   0  0  0  0  0  0  0  0  0  0  0  0
    0.2633    1.8693    0.0995 H   0  0  0  0  0  0  0  0  0  0  0  0
    0.7217    1.1395   -1.4394 H   0  0  0  0  0  0  0  0  0  0  0  0
   -1.4041    1.3683   -1.1396 C   0  0  0  0  0  0  0  0  0  0  0  0
   -2.3000    1.6719   -0.3168 O   0  5  0  0  0  0  0  0  0  0  0  0
   -1.5828    1.2612   -2.3720 O   0  0  0  0  0  0  0  0  0  0  0  0
    0.6664   -0.1450    1.5428 C   0  0  0  0  0  0  0  0  0  0  0  0
    1.8485   -0.3724    1.8265 O   0  0  0  0  0  0  0  0  0  0  0  0
   -0.2161    0.2434    2.4686 N   0  0  0  0  0  0  0  0  0  0  0  0
   -1.1850    0.3219    2.1537 H   0  0  0  0  0  0  0  0  0  0  0  0
    0.0735    0.4128    3.8885 C   0  0  0  0  0  0  0  0  0  0  0  0
    1.0159    0.9483    4.0105 H   0  0  0  0  0  0  0  0  0  0  0  0
   -0.7315    0.9748    4.3613 H   0  0  0  0  0  0  0  0  0  0  0  0
    0.1564   -0.5677    4.3577 H   0  0  0  0  0  0  0  0  0  0  0  0
  5  6  2  0  0  0  0
  5  7  1  0  0  0  0
  2  3  1  0  0  0  0
  2  4  1  0  0  0  0
  2  5  1  0  0  0  0
  1  2  1  0  0  0  0
 17 18  2  0  0  0  0
 17 19  1  0  0  0  0
 14 15  1  0  0  0  0
 14 16  2  0  0  0  0
 11 12  1  0  0  0  0
 11 13  1  0  0  0  0
 11 14  1  0  0  0  0
  9 10  1  0  0  0  0
  9 11  1  0  0  0  0
  9 17  1  0  0  0  0
  7  8  1  0  0  0  0
  7  9  1  0  0  0  0
 21 22  1  0  0  0  0
 21 23  1  0  0  0  0
 21 24  1  0  0  0  0
 19 20  1  0  0  0  0
 19 21  1  0  0  0  0
M  CHG  1  15  -1
M  END
$$$$
default_name
  -OEChem-02102213163D

 24 23  0     1  0  0  0  0  0999 V2000
   -2.8347   -3.7166    0.8034 H   0  0  0  0  0  0  0  0  0  0  0  0
   -2.7728   -2.7096    0.3954 C   0  0  0  0  0  0  0  0  0  0  0  0
   -3.4267   -2.0426    0.9524 H   0  0  0  0  0  0  0  0  0  0  0  0
   -3.0538   -2.7186   -0.6556 H   0  0  0  0  0  0  0  0  0  0  0  0
   -1.3498   -2.2206    0.5184 C   0  0  0  0  0  0  0  0  0  0  0  0
   -0.4997   -2.9426    1.0194 O   0  0  0  0  0  0  0  0  0  0  0  0
   -1.1198   -0.9926    0.0674 N   0  0  0  0  0  0  0  0  0  0  0  0
   -1.8978   -0.4486   -0.2716 H   0  0  0  0  0  0  0  0  0  0  0  0
    0.1693   -0.2866    0.0854 C   0  0  1  0  0  0  0  0  0  0  0  0
    0.9043   -0.8713   -0.4705 H   0  0  0  0  0  0  0  0  0  0  0  0
    0.0106    1.0816   -0.6124 C   0  0  0  0  0  0  0  0  0  0  0  0
    0.2633    1.8693    0.0995 H   0  0  0  0  0  0  0  0  0  0  0  0
    0.7217    1.1395   -1.4394 H   0  0  0  0  0  0  0  0  0  0  0  0
   -1.4041    1.3683   -1.1396 C   0  0  0  0  0  0  0  0  0  0  0  0
   -2.2215    1.9410   -0.3809 O   0  5  0  0  0  0  0  0  0  0  0  0
   -1.6636    0.9907   -2.3025 O   0  0  0  0  0  0  0  0  0  0  0  0
    0.6664   -0.1450    1.5428 C   0  0  0  0  0  0  0  0  0  0  0  0
    1.8485   -0.3724    1.8265 O   0  0  0  0  0  0  0  0  0  0  0  0
   -0.2161    0.2434    2.4686 N   0  0  0  0  0  0  0  0  0  0  0  0
   -1.1850    0.3219    2.1537 H   0  0  0  0  0  0  0  0  0  0  0  0
    0.0735    0.4128    3.8885 C   0  0  0  0  0  0  0  0  0  0  0  0
    1.0159    0.9483    4.0105 H   0  0  0  0  0  0  0  0  0  0  0  0
   -0.7315    0.9748    4.3613 H   0  0  0  0  0  0  0  0  0  0  0  0
    0.1564   -0.5677    4.3577 H   0  0  0  0  0  0  0  0  0  0  0  0
  5  6  2  0  0  0  0
  5  7  1  0  0  0  0
  2  3  1  0  0  0  0
  2  4  1  0  0  0  0
  2  5  1  0  0  0  0
  1  2  1  0  0  0  0
 17 18  2  0  0  0  0
 17 19  1  0  0  0  0
 14 15  1  0  0  0  0
 14 16  2  0  0  0  0
 11 12  1  0  0  0  0
 11 13  1  0  0  0  0
 11 14  1  0  0  0  0
  9 10  1  0  0  0  0
  9 11  1  0  0  0  0
  9 17  1  0  0  0  0
  7  8  1  0  0  0  0
  7  9  1  0  0  0  0
 21 22  1  0  0  0  0
 21 23  1  0  0  0  0
 21 24  1  0  0  0  0
 19 20  1  0  0  0  0
 19 21  1  0  0  0  0
M  CHG  1  15  -1
M  END
$$$$
default_name
  -OEChem-02102213163D

 24 23  0     1  0  0  0  0  0999 V2000
   -2.8347   -3.7166    0.8034 H   0  0  0  0  0  0  0  0  0  0  0  0
   -2.7728   -2.7096    0.3954 C   0  0  0  0  0  0  0  0  0  0  0  0
   -3.4267   -2.0426    0.9524 H   0  0  0  0  0  0  0  0  0  0  0  0
   -3.0538   -2.7186   -0.6556 H   0  0  0  0  0  0  0  0  0  0  0  0
   -1.3498   -2.2206    0.5184 C   0  0  0  0  0  0  0  0  0  0  0  0
   -0.4997   -2.9426    1.0194 O   0  0  0  0  0  0  0  0  0  0  0  0
   -1.1198   -0.9926    0.0674 N   0  0  0  0  0  0  0  0  0  0  0  0
   -1.8978   -0.4486   -0.2716 H   0  0  0  0  0  0  0  0  0  0  0  0
    0.1693   -0.2866    0.0854 C   0  0  1  0  0  0  0  0  0  0  0  0
    0.9043   -0.8713   -0.4705 H   0  0  0  0  0  0  0  0  0  0  0  0
    0.0106    1.0816   -0.6124 C   0  0  0  0  0  0  0  0  0  0  0  0
    0.2633    1.8693    0.0995 H   0  0  0  0  0  0  0  0  0  0  0  0
    0.7217    1.1395   -1.4394 H   0  0  0  0  0  0  0  0  0  0  0  0
   -1.4041    1.3683   -1.1396 C   0  0  0  0  0  0  0  0  0  0  0  0
   -2.1250    2.1786   -0.5108 O   0  5  0  0  0  0  0  0  0  0  0  0
   -1.7622    0.7531   -2.1670 O   0  0  0  0  0  0  0  0  0  0  0  0
    0.6664   -0.1450    1.5428 C   0  0  0  0  0  0  0  0  0  0  0  0
    1.8485   -0.3724    1.8265 O   0  0  0  0  0  0  0  0  0  0  0  0
   -0.2161    0.2434    2.4686 N   0  0  0  0  0  0  0  0  0  0  0  0
   -1.1850    0.3219    2.1537 H   0  0  0  0  0  0  0  0  0  0  0  0
    0.0735    0.4128    3.8885 C   0  0  0  0  0  0  0  0  0  0  0  0
    1.0159    0.9483    4.0105 H   0  0  0  0  0  0  0  0  0  0  0  0
   -0.7315    0.9748    4.3613 H   0  0  0  0  0  0  0  0  0  0  0  0
    0.1564   -0.5677    4.3577 H   0  0  0  0  0  0  0  0  0  0  0  0
  5  6  2  0  0  0  0
  5  7  1  0  0  0  0
  2  3  1  0  0  0  0
  2  4  1  0  0  0  0
  2  5  1  0  0  0  0
  1  2  1  0  0  0  0
 17 18  2  0  0  0  0
 17 19  1  0  0  0  0
 14 15  1  0  0  0  0
 14 16  2  0  0  0  0
 11 12  1  0  0  0  0
 11 13  1  0  0  0  0
 11 14  1  0  0  0  0
  9 10  1  0  0  0  0
  9 11  1  0  0  0  0
  9 17  1  0  0  0  0
  7  8  1  0  0  0  0
  7  9  1  0  0  0  0
 21 22  1  0  0  0  0
 21 23  1  0  0  0  0
 21 24  1  0  0  0  0
 19 20  1  0  0  0  0
 19 21  1  0  0  0  0
M  CHG  1  15  -1
M  END
$$$$
default_name
  -OEChem-02102213163D

 24 23  0     1  0  0  0  0  0999 V2000
   -2.8347   -3.7166    0.8034 H   0  0  0  0  0  0  0  0  0  0  0  0
   -2.7728   -2.7096    0.3954 C   0  0  0  0  0  0  0  0  0  0  0  0
   -3.4267   -2.0426    0.9524 H   0  0  0  0  0  0  0  0  0  0  0  0
   -3.0538   -2.7186   -0.6556 H   0  0  0  0  0  0  0  0  0  0  0  0
   -1.3498   -2.2206    0.5184 C   0  0  0  0  0  0  0  0  0  0  0  0
   -0.4997   -2.9426    1.0194 O   0  0  0  0  0  0  0  0  0  0  0  0
   -1.1198   -0.9926    0.0674 N   0  0  0  0  0  0  0  0  0  0  0  0
   -1.8978   -0.4486   -0.2716 H   0  0  0  0  0  0  0  0  0  0  0  0
    0.1693   -0.2866    0.0854 C   0  0  1  0  0  0  0  0  0  0  0  0
    0.9043   -0.8713   -0.4705 H   0  0  0  0  0  0  0  0  0  0  0  0
    0.0106    1.0816   -0.6124 C   0  0  0  0  0  0  0  0  0  0  0  0
    0.2633    1.8693    0.0995 H   0  0  0  0  0  0  0  0  0  0  0  0
    0.7217    1.1395   -1.4394 H   0  0  0  0  0  0  0  0  0  0  0  0
   -1.4041    1.3683   -1.1396 C   0  0  0  0  0  0  0  0  0  0  0  0
   -2.0169    2.3686   -0.6975 O   0  5  0  0  0  0  0  0  0  0  0  0
   -1.8720    0.5647   -1.9747 O   0  0  0  0  0  0  0  0  0  0  0  0
    0.6664   -0.1450    1.5428 C   0  0  0  0  0  0  0  0  0  0  0  0
    1.8485   -0.3724    1.8265 O   0  0  0  0  0  0  0  0  0  0  0  0
   -0.2161    0.2434    2.4686 N   0  0  0  0  0  0  0  0  0  0  0  0
   -1.1850    0.3219    2.1537 H   0  0  0  0  0  0  0  0  0  0  0  0
    0.0735    0.4128    3.8885 C   0  0  0  0  0  0  0  0  0  0  0  0
    1.0159    0.9483    4.0105 H   0  0  0  0  0  0  0  0  0  0  0  0
   -0.7315    0.9748    4.3613 H   0  0  0  0  0  0  0  0  0  0  0  0
    0.1564   -0.5677    4.3577 H   0  0  0  0  0  0  0  0  0  0  0  0
  5  6  2  0  0  0  0
  5  7  1  0  0  0  0
  2  3  1  0  0  0  0
  2  4  1  0  0  0  0
  2  5  1  0  0  0  0
  1  2  1  0  0  0  0
 17 18  2  0  0  0  0
 17 19  1  0  0  0  0
 14 15  1  0  0  0  0
 14 16  2  0  0  0  0
 11 12  1  0  0  0  0
 11 13  1  0  0  0  0
 11 14  1  0  0  0  0
  9 10  1  0  0  0  0
  9 11  1  0  0  0  0
  9 17  1  0  0  0  0
  7  8  1  0  0  0  0
  7  9  1  0  0  0  0
 21 22  1  0  0  0  0
 21 23  1  0  0  0  0
 21 24  1  0  0  0  0
 19 20  1  0  0  0  0
 19 21  1  0  0  0  0
M  CHG  1  15  -1
M  END
$$$$
default_name
  -OEChem-02102213163D

 24 23  0     1  0  0  0  0  0999 V2000
   -2.8347   -3.7166    0.8034 H   0  0  0  0  0  0  0  0  0  0  0  0
   -2.7728   -2.7096    0.3954 C   0  0  0  0  0  0  0  0  0  0  0  0
   -3.4267   -2.0426    0.9524 H   0  0  0  0  0  0  0  0  0  0  0  0
   -3.0538   -2.7186   -0.6556 H   0  0  0  0  0  0  0  0  0  0  0  0
   -1.3498   -2.2206    0.5184 C   0  0  0  0  0  0  0  0  0  0  0  0
   -0.4997   -2.9426    1.0194 O   0  0  0  0  0  0  0  0  0  0  0  0
   -1.1198   -0.9926    0.0674 N   0  0  0  0  0  0  0  0  0  0  0  0
   -1.8978   -0.4486   -0.2716 H   0  0  0  0  0  0  0  0  0  0  0  0
    0.1693   -0.2866    0.0854 C   0  0  1  0  0  0  0  0  0  0  0  0
    0.9043   -0.8713   -0.4705 H   0  0  0  0  0  0  0  0  0  0  0  0
    0.0106    1.0816   -0.6124 C   0  0  0  0  0  0  0  0  0  0  0  0
    0.2633    1.8693    0.0995 H   0  0  0  0  0  0  0  0  0  0  0  0
    0.7217    1.1395   -1.4394 H   0  0  0  0  0  0  0  0  0  0  0  0
   -1.4041    1.3683   -1.1396 C   0  0  0  0  0  0  0  0  0  0  0  0
   -1.9047    2.4981   -0.9283 O   0  5  0  0  0  0  0  0  0  0  0  0
   -1.9855    0.4382   -1.7388 O   0  0  0  0  0  0  0  0  0  0  0  0
    0.6664   -0.1450    1.5428 C   0  0  0  0  0  0  0  0  0  0  0  0
    1.8485   -0.3724    1.8265 O   0  0  0  0  0  0  0  0  0  0  0  0
   -0.2161    0.2434    2.4686 N   0  0  0  0  0  0  0  0  0  0  0  0
   -1.1850    0.3219    2.1537 H   0  0  0  0  0  0  0  0  0  0  0  0
    0.0735    0.4128    3.8885 C   0  0  0  0  0  0  0  0  0  0  0  0
    1.0159    0.9483    4.0105 H   0  0  0  0  0  0  0  0  0  0  0  0
   -0.7315    0.9748    4.3613 H   0  0  0  0  0  0  0  0  0  0  0  0
    0.1564   -0.5677    4.3577 H   0  0  0  0  0  0  0  0  0  0  0  0
  5  6  2  0  0  0  0
  5  7  1  0  0  0  0
  2  3  1  0  0  0  0
  2  4  1  0  0  0  0
  2  5  1  0  0  0  0
  1  2  1  0  0  0  0
 17 18  2  0  0  0  0
 17 19  1  0  0  0  0
 14 15  1  0  0  0  0
 14 16  2  0  0  0  0
 11 12  1  0  0  0  0
 11 13  1  0  0  0  0
 11 14  1  0  0  0  0
  9 10  1  0  0  0  0
  9 11  1  0  0  0  0
  9 17  1  0  0  0  0
  7  8  1  0  0  0  0
  7  9  1  0  0  0  0
 21 22  1  0  0  0  0
 21 23  1  0  0  0  0
 21 24  1  0  0  0  0
 19 20  1  0  0  0  0
 19 21  1  0  0  0  0
M  CHG  1  15  -1
M  END
$$$$
default_name
  -OEChem-02102213163D

 24 23  0     1  0  0  0  0  0999 V2000
   -2.8347   -3.7166    0.8034 H   0  0  0  0  0  0  0  0  0  0  0  0
   -2.7728   -2.7096    0.3954 C   0  0  0  0  0  0  0  0  0  0  0  0
   -3.4267   -2.0426    0.9524 H   0  0  0  0  0  0  0  0  0  0  0  0
   -3.0538   -2.7186   -0.6556 H   0  0  0  0  0  0  0  0  0  0  0  0
   -1.3498   -2.2206    0.5184 C   0  0  0  0  0  0  0  0  0  0  0  0
   -0.4997   -2.9426    1.0194 O   0  0  0  0  0  0  0  0  0  0  0  0
   -1.1198   -0.9926    0.0674 N   0  0  0  0  0  0  0  0  0  0  0  0
   -1.8978   -0.4486   -0.2716 H   0  0  0  0  0  0  0  0  0  0  0  0
    0.1693   -0.2866    0.0854 C   0  0  1  0  0  0  0  0  0  0  0  0
    0.9043   -0.8713   -0.4705 H   0  0  0  0  0  0  0  0  0  0  0  0
    0.0106    1.0816   -0.6124 C   0  0  0  0  0  0  0  0  0  0  0  0
    0.2633    1.8693    0.0995 H   0  0  0  0  0  0  0  0  0  0  0  0
    0.7217    1.1395   -1.4394 H   0  0  0  0  0  0  0  0  0  0  0  0
   -1.4041    1.3683   -1.1396 C   0  0  0  0  0  0  0  0  0  0  0  0
   -1.7959    2.5582   -1.1875 O   0  5  0  0  0  0  0  0  0  0  0  0
   -2.0950    0.3824   -1.4753 O   0  0  0  0  0  0  0  0  0  0  0  0
    0.6664   -0.1450    1.5428 C   0  0  0  0  0  0  0  0  0  0  0  0
    1.8485   -0.3724    1.8265 O   0  0  0  0  0  0  0  0  0  0  0  0
   -0.2161    0.2434    2.4686 N   0  0  0  0  0  0  0  0  0  0  0  0
   -1.1850    0.3219    2.1537 H   0  0  0  0  0  0  0  0  0  0  0  0
    0.0735    0.4128    3.8885 C   0  0  0  0  0  0  0  0  0  0  0  0
    1.0159    0.9483    4.0105 H   0  0  0  0  0  0  0  0  0  0  0  0
   -0.7315    0.9748    4.3613 H   0  0  0  0  0  0  0  0  0  0  0  0
    0.1564   -0.5677    4.3577 H   0  0  0  0  0  0  0  0  0  0  0  0
  5  6  2  0  0  0  0
  5  7  1  0  0  0  0
  2  3  1  0  0  0  0
  2  4  1  0  0  0  0
  2  5  1  0  0  0  0
  1  2  1  0  0  0  0
 17 18  2  0  0  0  0
 17 19  1  0  0  0  0
 14 15  1  0  0  0  0
 14 16  2  0  0  0  0
 11 12  1  0  0  0  0
 11 13  1  0  0  0  0
 11 14  1  0  0  0  0
  9 10  1  0  0  0  0
  9 11  1  0  0  0  0
  9 17  1  0  0  0  0
  7  8  1  0  0  0  0
  7  9  1  0  0  0  0
 21 22  1  0  0  0  0
 21 23  1  0  0  0  0
 21 24  1  0  0  0  0
 19 20  1  0  0  0  0
 19 21  1  0  0  0  0
M  CHG  1  15  -1
M  END
$$$$
default_name
  -OEChem-02102213163D

 24 23  0     1  0  0  0  0  0999 V2000
   -2.8347   -3.7166    0.8034 H   0  0  0  0  0  0  0  0  0  0  0  0
   -2.7728   -2.7096    0.3954 C   0  0  0  0  0  0  0  0  0  0  0  0
   -3.4267   -2.0426    0.9524 H   0  0  0  0  0  0  0  0  0  0  0  0
   -3.0538   -2.7186   -0.6556 H   0  0  0  0  0  0  0  0  0  0  0  0
   -1.3498   -2.2206    0.5184 C   0  0  0  0  0  0  0  0  0  0  0  0
   -0.4997   -2.9426    1.0194 O   0  0  0  0  0  0  0  0  0  0  0  0
   -1.1198   -0.9926    0.0674 N   0  0  0  0  0  0  0  0  0  0  0  0
   -1.8978   -0.4486   -0.2716 H   0  0  0  0  0  0  0  0  0  0  0  0
    0.1693   -0.2866    0.0854 C   0  0  1  0  0  0  0  0  0  0  0  0
    0.9043   -0.8713   -0.4705 H   0  0  0  0  0  0  0  0  0  0  0  0
    0.0106    1.0816   -0.6124 C   0  0  0  0  0  0  0  0  0  0  0  0
    0.2633    1.8693    0.0995 H   0  0  0  0  0  0  0  0  0  0  0  0
    0.7217    1.1395   -1.4394 H   0  0  0  0  0  0  0  0  0  0  0  0
   -1.4041    1.3683   -1.1396 C   0  0  0  0  0  0  0  0  0  0  0  0
   -1.6980    2.5448   -1.4575 O   0  5  0  0  0  0  0  0  0  0  0  0
   -2.1930    0.4009   -1.2023 O   0  0  0  0  0  0  0  0  0  0  0  0
    0.6664   -0.1450    1.5428 C   0  0  0  0  0  0  0  0  0  0  0  0
    1.8485   -0.3724    1.8265 O   0  0  0  0  0  0  0  0  0  0  0  0
   -0.2161    0.2434    2.4686 N   0  0  0  0  0  0  0  0  0  0  0  0
   -1.1850    0.3219    2.1537 H   0  0  0  0  0  0  0  0  0  0  0  0
    0.0735    0.4128    3.8885 C   0  0  0  0  0  0  0  0  0  0  0  0
    1.0159    0.9483    4.0105 H   0  0  0  0  0  0  0  0  0  0  0  0
   -0.7315    0.9748    4.3613 H   0  0  0  0  0  0  0  0  0  0  0  0
    0.1564   -0.5677    4.3577 H   0  0  0  0  0  0  0  0  0  0  0  0
  5  6  2  0  0  0  0
  5  7  1  0  0  0  0
  2  3  1  0  0  0  0
  2  4  1  0  0  0  0
  2  5  1  0  0  0  0
  1  2  1  0  0  0  0
 17 18  2  0  0  0  0
 17 19  1  0  0  0  0
 14 15  1  0  0  0  0
 14 16  2  0  0  0  0
 11 12  1  0  0  0  0
 11 13  1  0  0  0  0
 11 14  1  0  0  0  0
  9 10  1  0  0  0  0
  9 11  1  0  0  0  0
  9 17  1  0  0  0  0
  7  8  1  0  0  0  0
  7  9  1  0  0  0  0
 21 22  1  0  0  0  0
 21 23  1  0  0  0  0
 21 24  1  0  0  0  0
 19 20  1  0  0  0  0
 19 21  1  0  0  0  0
M  CHG  1  15  -1
M  END
$$$$
default_name
  -OEChem-02102213163D

 24 23  0     1  0  0  0  0  0999 V2000
   -2.8347   -3.7166    0.8034 H   0  0  0  0  0  0  0  0  0  0  0  0
   -2.7728   -2.7096    0.3954 C   0  0  0  0  0  0  0  0  0  0  0  0
   -3.4267   -2.0426    0.9524 H   0  0  0  0  0  0  0  0  0  0  0  0
   -3.0538   -2.7186   -0.6556 H   0  0  0  0  0  0  0  0  0  0  0  0
   -1.3498   -2.2206    0.5184 C   0  0  0  0  0  0  0  0  0  0  0  0
   -0.4997   -2.9426    1.0194 O   0  0  0  0  0  0  0  0  0  0  0  0
   -1.1198   -0.9926    0.0674 N   0  0  0  0  0  0  0  0  0  0  0  0
   -1.8978   -0.4486   -0.2716 H   0  0  0  0  0  0  0  0  0  0  0  0
    0.1693   -0.2866    0.0854 C   0  0  1  0  0  0  0  0  0  0  0  0
    0.9043   -0.8713   -0.4705 H   0  0  0  0  0  0  0  0  0  0  0  0
    0.0106    1.0816   -0.6124 C   0  0  0  0  0  0  0  0  0  0  0  0
    0.5089    1.8424   -0.0091 H   0  0  0  0  0  0  0  0  0  0  0  0
    0.5133    1.0430   -1.5812 H   0  0  0  0  0  0  0  0  0  0  0  0
   -1.4455    1.5292   -0.8146 C   0  0  0  0  0  0  0  0  0  0  0  0
   -1.6617    2.6300   -1.3744 O   0  5  0  0  0  0  0  0  0  0  0  0
   -2.3382    0.7669   -0.3856 O   0  0  0  0  0  0  0  0  0  0  0  0
    0.6664   -0.1450    1.5428 C   0  0  0  0  0  0  0  0  0  0  0  0
    1.8485   -0.3724    1.8265 O   0  0  0  0  0  0  0  0  0  0  0  0
   -0.2161    0.2434    2.4686 N   0  0  0  0  0  0  0  0  0  0  0  0
   -1.1850    0.3219    2.1537 H   0  0  0  0  0  0  0  0  0  0  0  0
    0.0735    0.4128    3.8885 C   0  0  0  0  0  0  0  0  0  0  0  0
    1.0159    0.9483    4.0105 H   0  0  0  0  0  0  0  0  0  0  0  0
   -0.7315    0.9748    4.3613 H   0  0  0  0  0  0  0  0  0  0  0  0
    0.1564   -0.5677    4.3577 H   0  0  0  0  0  0  0  0  0  0  0  0
  5  6  2  0  0  0  0
  5  7  1  0  0  0  0
  2  3  1  0  0  0  0
  2  4  1  0  0  0  0
  2  5  1  0  0  0  0
  1  2  1  0  0  0  0
 17 18  2  0  0  0  0
 17 19  1  0  0  0  0
 14 15  1  0  0  0  0
 14 16  2  0  0  0  0
 11 12  1  0  0  0  0
 11 13  1  0  0  0  0
 11 14  1  0  0  0  0
  9 10  1  0  0  0  0
  9 11  1  0  0  0  0
  9 17  1  0  0  0  0
  7  8  1  0  0  0  0
  7  9  1  0  0  0  0
 21 22  1  0  0  0  0
 21 23  1  0  0  0  0
 21 24  1  0  0  0  0
 19 20  1  0  0  0  0
 19 21  1  0  0  0  0
M  CHG  1  15  -1
M  END
$$$$
default_name
  -OEChem-02102213163D

 24 23  0     1  0  0  0  0  0999 V2000
   -2.8347   -3.7166    0.8034 H   0  0  0  0  0  0  0  0  0  0  0  0
   -2.7728   -2.7096    0.3954 C   0  0  0  0  0  0  0  0  0  0  0  0
   -3.4267   -2.0426    0.9524 H   0  0  0  0  0  0  0  0  0  0  0  0
   -3.0538   -2.7186   -0.6556 H   0  0  0  0  0  0  0  0  0  0  0  0
   -1.3498   -2.2206    0.5184 C   0  0  0  0  0  0  0  0  0  0  0  0
   -0.4997   -2.9426    1.0194 O   0  0  0  0  0  0  0  0  0  0  0  0
   -1.1198   -0.9926    0.0674 N   0  0  0  0  0  0  0  0  0  0  0  0
   -1.8978   -0.4486   -0.2716 H   0  0  0  0  0  0  0  0  0  0  0  0
    0.1693   -0.2866    0.0854 C   0  0  1  0  0  0  0  0  0  0  0  0
    0.9043   -0.8713   -0.4705 H   0  0  0  0  0  0  0  0  0  0  0  0
    0.0106    1.0816   -0.6124 C   0  0  0  0  0  0  0  0  0  0  0  0
    0.5089    1.8424   -0.0091 H   0  0  0  0  0  0  0  0  0  0  0  0
    0.5133    1.0430   -1.5812 H   0  0  0  0  0  0  0  0  0  0  0  0
   -1.4455    1.5292   -0.8146 C   0  0  0  0  0  0  0  0  0  0  0  0
   -1.6784    2.4685   -1.6116 O   0  5  0  0  0  0  0  0  0  0  0  0
   -2.3197    0.9341   -0.1485 O   0  0  0  0  0  0  0  0  0  0  0  0
    0.6664   -0.1450    1.5428 C   0  0  0  0  0  0  0  0  0  0  0  0
    1.8485   -0.3724    1.8265 O   0  0  0  0  0  0  0  0  0  0  0  0
   -0.2161    0.2434    2.4686 N   0  0  0  0  0  0  0  0  0  0  0  0
   -1.1850    0.3219    2.1537 H   0  0  0  0  0  0  0  0  0  0  0  0
    0.0735    0.4128    3.8885 C   0  0  0  0  0  0  0  0  0  0  0  0
    1.0159    0.9483    4.0105 H   0  0  0  0  0  0  0  0  0  0  0  0
   -0.7315    0.9748    4.3613 H   0  0  0  0  0  0  0  0  0  0  0  0
    0.1564   -0.5677    4.3577 H   0  0  0  0  0  0  0  0  0  0  0  0
  5  6  2  0  0  0  0
  5  7  1  0  0  0  0
  2  3  1  0  0  0  0
  2  4  1  0  0  0  0
  2  5  1  0  0  0  0
  1  2  1  0  0  0  0
 17 18  2  0  0  0  0
 17 19  1  0  0  0  0
 14 15  1  0  0  0  0
 14 16  2  0  0  0  0
 11 12  1  0  0  0  0
 11 13  1  0  0  0  0
 11 14  1  0  0  0  0
  9 10  1  0  0  0  0
  9 11  1  0  0  0  0
  9 17  1  0  0  0  0
  7  8  1  0  0  0  0
  7  9  1  0  0  0  0
 21 22  1  0  0  0  0
 21 23  1  0  0  0  0
 21 24  1  0  0  0  0
 19 20  1  0  0  0  0
 19 21  1  0  0  0  0
M  CHG  1  15  -1
M  END
$$$$
default_name
  -OEChem-02102213163D

 24 23  0     1  0  0  0  0  0999 V2000
   -2.8347   -3.7166    0.8034 H   0  0  0  0  0  0  0  0  0  0  0  0
   -2.7728   -2.7096    0.3954 C   0  0  0  0  0  0  0  0  0  0  0  0
   -3.4267   -2.0426    0.9524 H   0  0  0  0  0  0  0  0  0  0  0  0
   -3.0538   -2.7186   -0.6556 H   0  0  0  0  0  0  0  0  0  0  0  0
   -1.3498   -2.2206    0.5184 C   0  0  0  0  0  0  0  0  0  0  0  0
   -0.4997   -2.9426    1.0194 O   0  0  0  0  0  0  0  0  0  0  0  0
   -1.1198   -0.9926    0.0674 N   0  0  0  0  0  0  0  0  0  0  0  0
   -1.8978   -0.4486   -0.2716 H   0  0  0  0  0  0  0  0  0  0  0  0
    0.1693   -0.2866    0.0854 C   0  0  1  0  0  0  0  0  0  0  0  0
    0.9043   -0.8713   -0.4705 H   0  0  0  0  0  0  0  0  0  0  0  0
    0.0106    1.0816   -0.6124 C   0  0  0  0  0  0  0  0  0  0  0  0
    0.5089    1.8424   -0.0091 H   0  0  0  0  0  0  0  0  0  0  0  0
    0.5133    1.0430   -1.5812 H   0  0  0  0  0  0  0  0  0  0  0  0
   -1.4455    1.5292   -0.8146 C   0  0  0  0  0  0  0  0  0  0  0  0
   -1.7179    2.2549   -1.8000 O   0  5  0  0  0  0  0  0  0  0  0  0
   -2.2783    1.1532    0.0382 O   0  0  0  0  0  0  0  0  0  0  0  0
    0.6664   -0.1450    1.5428 C   0  0  0  0  0  0  0  0  0  0  0  0
    1.8485   -0.3724    1.8265 O   0  0  0  0  0  0  0  0  0  0  0  0
   -0.2161    0.2434    2.4686 N   0  0  0  0  0  0  0  0  0  0  0  0
   -1.1850    0.3219    2.1537 H   0  0  0  0  0  0  0  0  0  0  0  0
    0.0735    0.4128    3.8885 C   0  0  0  0  0  0  0  0  0  0  0  0
    1.0159    0.9483    4.0105 H   0  0  0  0  0  0  0  0  0  0  0  0
   -0.7315    0.9748    4.3613 H   0  0  0  0  0  0  0  0  0  0  0  0
    0.1564   -0.5677    4.3577 H   0  0  0  0  0  0  0  0  0  0  0  0
  5  6  2  0  0  0  0
  5  7  1  0  0  0  0
  2  3  1  0  0  0  0
  2  4  1  0  0  0  0
  2  5  1  0  0  0  0
  1  2  1  0  0  0  0
 17 18  2  0  0  0  0
 17 19  1  0  0  0  0
 14 15  1  0  0  0  0
 14 16  2  0  0  0  0
 11 12  1  0  0  0  0
 11 13  1  0  0  0  0
 11 14  1  0  0  0  0
  9 10  1  0  0  0  0
  9 11  1  0  0  0  0
  9 17  1  0  0  0  0
  7  8  1  0  0  0  0
  7  9  1  0  0  0  0
 21 22  1  0  0  0  0
 21 23  1  0  0  0  0
 21 24  1  0  0  0  0
 19 20  1  0  0  0  0
 19 21  1  0  0  0  0
M  CHG  1  15  -1
M  END
$$$$
default_name
  -OEChem-02102213163D

 24 23  0     1  0  0  0  0  0999 V2000
   -2.8347   -3.7166    0.8034 H   0  0  0  0  0  0  0  0  0  0  0  0
   -2.7728   -2.7096    0.3954 C   0  0  0  0  0  0  0  0  0  0  0  0
   -3.4267   -2.0426    0.9524 H   0  0  0  0  0  0  0  0  0  0  0  0
   -3.0538   -2.7186   -0.6556 H   0  0  0  0  0  0  0  0  0  0  0  0
   -1.3498   -2.2206    0.5184 C   0  0  0  0  0  0  0  0  0  0  0  0
   -0.4997   -2.9426    1.0194 O   0  0  0  0  0  0  0  0  0  0  0  0
   -1.1198   -0.9926    0.0674 N   0  0  0  0  0  0  0  0  0  0  0  0
   -1.8978   -0.4486   -0.2716 H   0  0  0  0  0  0  0  0  0  0  0  0
    0.1693   -0.2866    0.0854 C   0  0  1  0  0  0  0  0  0  0  0  0
    0.9043   -0.8713   -0.4705 H   0  0  0  0  0  0  0  0  0  0  0  0
    0.0106    1.0816   -0.6124 C   0  0  0  0  0  0  0  0  0  0  0  0
    0.5089    1.8424   -0.0091 H   0  0  0  0  0  0  0  0  0  0  0  0
    0.5133    1.0430   -1.5812 H   0  0  0  0  0  0  0  0  0  0  0  0
   -1.4455    1.5292   -0.8146 C   0  0  0  0  0  0  0  0  0  0  0  0
   -1.7775    2.0037   -1.9265 O   0  5  0  0  0  0  0  0  0  0  0  0
   -2.2168    1.4091    0.1616 O   0  0  0  0  0  0  0  0  0  0  0  0
    0.6664   -0.1450    1.5428 C   0  0  0  0  0  0  0  0  0  0  0  0
    1.8485   -0.3724    1.8265 O   0  0  0  0  0  0  0  0  0  0  0  0
   -0.2161    0.2434    2.4686 N   0  0  0  0  0  0  0  0  0  0  0  0
   -1.1850    0.3219    2.1537 H   0  0  0  0  0  0  0  0  0  0  0  0
    0.0735    0.4128    3.8885 C   0  0  0  0  0  0  0  0  0  0  0  0
    1.0159    0.9483    4.0105 H   0  0  0  0  0  0  0  0  0  0  0  0
   -0.7315    0.9748    4.3613 H   0  0  0  0  0  0  0  0  0  0  0  0
    0.1564   -0.5677    4.3577 H   0  0  0  0  0  0  0  0  0  0  0  0
  5  6  2  0  0  0  0
  5  7  1  0  0  0  0
  2  3  1  0  0  0  0
  2  4  1  0  0  0  0
  2  5  1  0  0  0  0
  1  2  1  0  0  0  0
 17 18  2  0  0  0  0
 17 19  1  0  0  0  0
 14 15  1  0  0  0  0
 14 16  2  0  0  0  0
 11 12  1  0  0  0  0
 11 13  1  0  0  0  0
 11 14  1  0  0  0  0
  9 10  1  0  0  0  0
  9 11  1  0  0  0  0
  9 17  1  0  0  0  0
  7  8  1  0  0  0  0
  7  9  1  0  0  0  0
 21 22  1  0  0  0  0
 21 23  1  0  0  0  0
 21 24  1  0  0  0  0
 19 20  1  0  0  0  0
 19 21  1  0  0  0  0
M  CHG  1  15  -1
M  END
$$$$
default_name
  -OEChem-02102213163D

 24 23  0     1  0  0  0  0  0999 V2000
   -2.8347   -3.7166    0.8034 H   0  0  0  0  0  0  0  0  0  0  0  0
   -2.7728   -2.7096    0.3954 C   0  0  0  0  0  0  0  0  0  0  0  0
   -3.4267   -2.0426    0.9524 H   0  0  0  0  0  0  0  0  0  0  0  0
   -3.0538   -2.7186   -0.6556 H   0  0  0  0  0  0  0  0  0  0  0  0
   -1.3498   -2.2206    0.5184 C   0  0  0  0  0  0  0  0  0  0  0  0
   -0.4997   -2.9426    1.0194 O   0  0  0  0  0  0  0  0  0  0  0  0
   -1.1198   -0.9926    0.0674 N   0  0  0  0  0  0  0  0  0  0  0  0
   -1.8978   -0.4486   -0.2716 H   0  0  0  0  0  0  0  0  0  0  0  0
    0.1693   -0.2866    0.0854 C   0  0  1  0  0  0  0  0  0  0  0  0
    0.9043   -0.8713   -0.4705 H   0  0  0  0  0  0  0  0  0  0  0  0
    0.0106    1.0816   -0.6124 C   0  0  0  0  0  0  0  0  0  0  0  0
    0.5089    1.8424   -0.0091 H   0  0  0  0  0  0  0  0  0  0  0  0
    0.5133    1.0430   -1.5812 H   0  0  0  0  0  0  0  0  0  0  0  0
   -1.4455    1.5292   -0.8146 C   0  0  0  0  0  0  0  0  0  0  0  0
   -1.8532    1.7321   -1.9827 O   0  5  0  0  0  0  0  0  0  0  0  0
   -2.1393    1.6845    0.2134 O   0  0  0  0  0  0  0  0  0  0  0  0
    0.6664   -0.1450    1.5428 C   0  0  0  0  0  0  0  0  0  0  0  0
    1.8485   -0.3724    1.8265 O   0  0  0  0  0  0  0  0  0  0  0  0
   -0.2161    0.2434    2.4686 N   0  0  0  0  0  0  0  0  0  0  0  0
   -1.1850    0.3219    2.1537 H   0  0  0  0  0  0  0  0  0  0  0  0
    0.0735    0.4128    3.8885 C   0  0  0  0  0  0  0  0  0  0  0  0
    1.0159    0.9483    4.0105 H   0  0  0  0  0  0  0  0  0  0  0  0
   -0.7315    0.9748    4.3613 H   0  0  0  0  0  0  0  0  0  0  0  0
    0.1564   -0.5677    4.3577 H   0  0  0  0  0  0  0  0  0  0  0  0
  5  6  2  0  0  0  0
  5  7  1  0  0  0  0
  2  3  1  0  0  0  0
  2  4  1  0  0  0  0
  2  5  1  0  0  0  0
  1  2  1  0  0  0  0
 17 18  2  0  0  0  0
 17 19  1  0  0  0  0
 14 15  1  0  0  0  0
 14 16  2  0  0  0  0
 11 12  1  0  0  0  0
 11 13  1  0  0  0  0
 11 14  1  0  0  0  0
  9 10  1  0  0  0  0
  9 11  1  0  0  0  0
  9 17  1  0  0  0  0
  7  8  1  0  0  0  0
  7  9  1  0  0  0  0
 21 22  1  0  0  0  0
 21 23  1  0  0  0  0
 21 24  1  0  0  0  0
 19 20  1  0  0  0  0
 19 21  1  0  0  0  0
M  CHG  1  15  -1
M  END
$$$$
default_name
  -OEChem-02102213163D

 24 23  0     1  0  0  0  0  0999 V2000
   -2.8347   -3.7166    0.8034 H   0  0  0  0  0  0  0  0  0  0  0  0
   -2.7728   -2.7096    0.3954 C   0  0  0  0  0  0  0  0  0  0  0  0
   -3.4267   -2.0426    0.9524 H   0  0  0  0  0  0  0  0  0  0  0  0
   -3.0538   -2.7186   -0.6556 H   0  0  0  0  0  0  0  0  0  0  0  0
   -1.3498   -2.2206    0.5184 C   0  0  0  0  0  0  0  0  0  0  0  0
   -0.4997   -2.9426    1.0194 O   0  0  0  0  0  0  0  0  0  0  0  0
   -1.1198   -0.9926    0.0674 N   0  0  0  0  0  0  0  0  0  0  0  0
   -1.8978   -0.4486   -0.2716 H   0  0  0  0  0  0  0  0  0  0  0  0
    0.1693   -0.2866    0.0854 C   0  0  1  0  0  0  0  0  0  0  0  0
    0.9043   -0.8713   -0.4705 H   0  0  0  0  0  0  0  0  0  0  0  0
    0.0106    1.0816   -0.6124 C   0  0  0  0  0  0  0  0  0  0  0  0
    0.5089    1.8424   -0.0091 H   0  0  0  0  0  0  0  0  0  0  0  0
    0.5133    1.0430   -1.5812 H   0  0  0  0  0  0  0  0  0  0  0  0
   -1.4455    1.5292   -0.8146 C   0  0  0  0  0  0  0  0  0  0  0  0
   -1.9398    1.4586   -1.9646 O   0  5  0  0  0  0  0  0  0  0  0  0
   -2.0512    1.9606    0.1900 O   0  0  0  0  0  0  0  0  0  0  0  0
    0.6664   -0.1450    1.5428 C   0  0  0  0  0  0  0  0  0  0  0  0
    1.8485   -0.3724    1.8265 O   0  0  0  0  0  0  0  0  0  0  0  0
   -0.2161    0.2434    2.4686 N   0  0  0  0  0  0  0  0  0  0  0  0
   -1.1850    0.3219    2.1537 H   0  0  0  0  0  0  0  0  0  0  0  0
    0.0735    0.4128    3.8885 C   0  0  0  0  0  0  0  0  0  0  0  0
    1.0159    0.9483    4.0105 H   0  0  0  0  0  0  0  0  0  0  0  0
   -0.7315    0.9748    4.3613 H   0  0  0  0  0  0  0  0  0  0  0  0
    0.1564   -0.5677    4.3577 H   0  0  0  0  0  0  0  0  0  0  0  0
  5  6  2  0  0  0  0
  5  7  1  0  0  0  0
  2  3  1  0  0  0  0
  2  4  1  0  0  0  0
  2  5  1  0  0  0  0
  1  2  1  0  0  0  0
 17 18  2  0  0  0  0
 17 19  1  0  0  0  0
 14 15  1  0  0  0  0
 14 16  2  0  0  0  0
 11 12  1  0  0  0  0
 11 13  1  0  0  0  0
 11 14  1  0  0  0  0
  9 10  1  0  0  0  0
  9 11  1  0  0  0  0
  9 17  1  0  0  0  0
  7  8  1  0  0  0  0
  7  9  1  0  0  0  0
 21 22  1  0  0  0  0
 21 23  1  0  0  0  0
 21 24  1  0  0  0  0
 19 20  1  0  0  0  0
 19 21  1  0  0  0  0
M  CHG  1  15  -1
M  END
$$$$
default_name
  -OEChem-02102213163D

 24 23  0     1  0  0  0  0  0999 V2000
   -2.8347   -3.7166    0.8034 H   0  0  0  0  0  0  0  0  0  0  0  0
   -2.7728   -2.7096    0.3954 C   0  0  0  0  0  0  0  0  0  0  0  0
   -3.4267   -2.0426    0.9524 H   0  0  0  0  0  0  0  0  0  0  0  0
   -3.0538   -2.7186   -0.6556 H   0  0  0  0  0  0  0  0  0  0  0  0
   -1.3498   -2.2206    0.5184 C   0  0  0  0  0  0  0  0  0  0  0  0
   -0.4997   -2.9426    1.0194 O   0  0  0  0  0  0  0  0  0  0  0  0
   -1.1198   -0.9926    0.0674 N   0  0  0  0  0  0  0  0  0  0  0  0
   -1.8978   -0.4486   -0.2716 H   0  0  0  0  0  0  0  0  0  0  0  0
    0.1693   -0.2866    0.0854 C   0  0  1  0  0  0  0  0  0  0  0  0
    0.9043   -0.8713   -0.4705 H   0  0  0  0  0  0  0  0  0  0  0  0
    0.0106    1.0816   -0.6124 C   0  0  0  0  0  0  0  0  0  0  0  0
    0.5089    1.8424   -0.0091 H   0  0  0  0  0  0  0  0  0  0  0  0
    0.5133    1.0430   -1.5812 H   0  0  0  0  0  0  0  0  0  0  0  0
   -1.4455    1.5292   -0.8146 C   0  0  0  0  0  0  0  0  0  0  0  0
   -2.0314    1.2018   -1.8735 O   0  5  0  0  0  0  0  0  0  0  0  0
   -1.9584    2.2185    0.0931 O   0  0  0  0  0  0  0  0  0  0  0  0
    0.6664   -0.1450    1.5428 C   0  0  0  0  0  0  0  0  0  0  0  0
    1.8485   -0.3724    1.8265 O   0  0  0  0  0  0  0  0  0  0  0  0
   -0.2161    0.2434    2.4686 N   0  0  0  0  0  0  0  0  0  0  0  0
   -1.1850    0.3219    2.1537 H   0  0  0  0  0  0  0  0  0  0  0  0
    0.0735    0.4128    3.8885 C   0  0  0  0  0  0  0  0  0  0  0  0
    1.0159    0.9483    4.0105 H   0  0  0  0  0  0  0  0  0  0  0  0
   -0.7315    0.9748    4.3613 H   0  0  0  0  0  0  0  0  0  0  0  0
    0.1564   -0.5677    4.3577 H   0  0  0  0  0  0  0  0  0  0  0  0
  5  6  2  0  0  0  0
  5  7  1  0  0  0  0
  2  3  1  0  0  0  0
  2  4  1  0  0  0  0
  2  5  1  0  0  0  0
  1  2  1  0  0  0  0
 17 18  2  0  0  0  0
 17 19  1  0  0  0  0
 14 15  1  0  0  0  0
 14 16  2  0  0  0  0
 11 12  1  0  0  0  0
 11 13  1  0  0  0  0
 11 14  1  0  0  0  0
  9 10  1  0  0  0  0
  9 11  1  0  0  0  0
  9 17  1  0  0  0  0
  7  8  1  0  0  0  0
  7  9  1  0  0  0  0
 21 22  1  0  0  0  0
 21 23  1  0  0  0  0
 21 24  1  0  0  0  0
 19 20  1  0  0  0  0
 19 21  1  0  0  0  0
M  CHG  1  15  -1
M  END
$$$$
default_name
  -OEChem-02102213163D

 24 23  0     1  0  0  0  0  0999 V2000
   -2.8347   -3.7166    0.8034 H   0  0  0  0  0  0  0  0  0  0  0  0
   -2.7728   -2.7096    0.3954 C   0  0  0  0  0  0  0  0  0  0  0  0
   -3.4267   -2.0426    0.9524 H   0  0  0  0  0  0  0  0  0  0  0  0
   -3.0538   -2.7186   -0.6556 H   0  0  0  0  0  0  0  0  0  0  0  0
   -1.3498   -2.2206    0.5184 C   0  0  0  0  0  0  0  0  0  0  0  0
   -0.4997   -2.9426    1.0194 O   0  0  0  0  0  0  0  0  0  0  0  0
   -1.1198   -0.9926    0.0674 N   0  0  0  0  0  0  0  0  0  0  0  0
   -1.8978   -0.4486   -0.2716 H   0  0  0  0  0  0  0  0  0  0  0  0
    0.1693   -0.2866    0.0854 C   0  0  1  0  0  0  0  0  0  0  0  0
    0.9043   -0.8713   -0.4705 H   0  0  0  0  0  0  0  0  0  0  0  0
    0.0106    1.0816   -0.6124 C   0  0  0  0  0  0  0  0  0  0  0  0
    0.5089    1.8424   -0.0091 H   0  0  0  0  0  0  0  0  0  0  0  0
    0.5133    1.0430   -1.5812 H   0  0  0  0  0  0  0  0  0  0  0  0
   -1.4455    1.5292   -0.8146 C   0  0  0  0  0  0  0  0  0  0  0  0
   -2.1217    0.9792   -1.7156 O   0  5  0  0  0  0  0  0  0  0  0  0
   -1.8674    2.4407   -0.0707 O   0  0  0  0  0  0  0  0  0  0  0  0
    0.6664   -0.1450    1.5428 C   0  0  0  0  0  0  0  0  0  0  0  0
    1.8485   -0.3724    1.8265 O   0  0  0  0  0  0  0  0  0  0  0  0
   -0.2161    0.2434    2.4686 N   0  0  0  0  0  0  0  0  0  0  0  0
   -1.1850    0.3219    2.1537 H   0  0  0  0  0  0  0  0  0  0  0  0
    0.0735    0.4128    3.8885 C   0  0  0  0  0  0  0  0  0  0  0  0
    1.0159    0.9483    4.0105 H   0  0  0  0  0  0  0  0  0  0  0  0
   -0.7315    0.9748    4.3613 H   0  0  0  0  0  0  0  0  0  0  0  0
    0.1564   -0.5677    4.3577 H   0  0  0  0  0  0  0  0  0  0  0  0
  5  6  2  0  0  0  0
  5  7  1  0  0  0  0
  2  3  1  0  0  0  0
  2  4  1  0  0  0  0
  2  5  1  0  0  0  0
  1  2  1  0  0  0  0
 17 18  2  0  0  0  0
 17 19  1  0  0  0  0
 14 15  1  0  0  0  0
 14 16  2  0  0  0  0
 11 12  1  0  0  0  0
 11 13  1  0  0  0  0
 11 14  1  0  0  0  0
  9 10  1  0  0  0  0
  9 11  1  0  0  0  0
  9 17  1  0  0  0  0
  7  8  1  0  0  0  0
  7  9  1  0  0  0  0
 21 22  1  0  0  0  0
 21 23  1  0  0  0  0
 21 24  1  0  0  0  0
 19 20  1  0  0  0  0
 19 21  1  0  0  0  0
M  CHG  1  15  -1
M  END
$$$$
default_name
  -OEChem-02102213163D

 24 23  0     1  0  0  0  0  0999 V2000
   -2.8347   -3.7166    0.8034 H   0  0  0  0  0  0  0  0  0  0  0  0
   -2.7728   -2.7096    0.3954 C   0  0  0  0  0  0  0  0  0  0  0  0
   -3.4267   -2.0426    0.9524 H   0  0  0  0  0  0  0  0  0  0  0  0
   -3.0538   -2.7186   -0.6556 H   0  0  0  0  0  0  0  0  0  0  0  0
   -1.3498   -2.2206    0.5184 C   0  0  0  0  0  0  0  0  0  0  0  0
   -0.4997   -2.9426    1.0194 O   0  0  0  0  0  0  0  0  0  0  0  0
   -1.1198   -0.9926    0.0674 N   0  0  0  0  0  0  0  0  0  0  0  0
   -1.8978   -0.4486   -0.2716 H   0  0  0  0  0  0  0  0  0  0  0  0
    0.1693   -0.2866    0.0854 C   0  0  1  0  0  0  0  0  0  0  0  0
    0.9043   -0.8713   -0.4705 H   0  0  0  0  0  0  0  0  0  0  0  0
    0.0106    1.0816   -0.6124 C   0  0  0  0  0  0  0  0  0  0  0  0
    0.5089    1.8424   -0.0091 H   0  0  0  0  0  0  0  0  0  0  0  0
    0.5133    1.0430   -1.5812 H   0  0  0  0  0  0  0  0  0  0  0  0
   -1.4455    1.5292   -0.8146 C   0  0  0  0  0  0  0  0  0  0  0  0
   -2.2047    0.8059   -1.5017 O   0  5  0  0  0  0  0  0  0  0  0  0
   -1.7842    2.6121   -0.2904 O   0  0  0  0  0  0  0  0  0  0  0  0
    0.6664   -0.1450    1.5428 C   0  0  0  0  0  0  0  0  0  0  0  0
    1.8485   -0.3724    1.8265 O   0  0  0  0  0  0  0  0  0  0  0  0
   -0.2161    0.2434    2.4686 N   0  0  0  0  0  0  0  0  0  0  0  0
   -1.1850    0.3219    2.1537 H   0  0  0  0  0  0  0  0  0  0  0  0
    0.0735    0.4128    3.8885 C   0  0  0  0  0  0  0  0  0  0  0  0
    1.0159    0.9483    4.0105 H   0  0  0  0  0  0  0  0  0  0  0  0
   -0.7315    0.9748    4.3613 H   0  0  0  0  0  0  0  0  0  0  0  0
    0.1564   -0.5677    4.3577 H   0  0  0  0  0  0  0  0  0  0  0  0
  5  6  2  0  0  0  0
  5  7  1  0  0  0  0
  2  3  1  0  0  0  0
  2  4  1  0  0  0  0
  2  5  1  0  0  0  0
  1  2  1  0  0  0  0
 17 18  2  0  0  0  0
 17 19  1  0  0  0  0
 14 15  1  0  0  0  0
 14 16  2  0  0  0  0
 11 12  1  0  0  0  0
 11 13  1  0  0  0  0
 11 14  1  0  0  0  0
  9 10  1  0  0  0  0
  9 11  1  0  0  0  0
  9 17  1  0  0  0  0
  7  8  1  0  0  0  0
  7  9  1  0  0  0  0
 21 22  1  0  0  0  0
 21 23  1  0  0  0  0
 21 24  1  0  0  0  0
 19 20  1  0  0  0  0
 19 21  1  0  0  0  0
M  CHG  1  15  -1
M  END
$$$$
default_name
  -OEChem-02102213163D

 24 23  0     1  0  0  0  0  0999 V2000
   -2.8347   -3.7166    0.8034 H   0  0  0  0  0  0  0  0  0  0  0  0
   -2.7728   -2.7096    0.3954 C   0  0  0  0  0  0  0  0  0  0  0  0
   -3.4267   -2.0426    0.9524 H   0  0  0  0  0  0  0  0  0  0  0  0
   -3.0538   -2.7186   -0.6556 H   0  0  0  0  0  0  0  0  0  0  0  0
   -1.3498   -2.2206    0.5184 C   0  0  0  0  0  0  0  0  0  0  0  0
   -0.4997   -2.9426    1.0194 O   0  0  0  0  0  0  0  0  0  0  0  0
   -1.1198   -0.9926    0.0674 N   0  0  0  0  0  0  0  0  0  0  0  0
   -1.8978   -0.4486   -0.2716 H   0  0  0  0  0  0  0  0  0  0  0  0
    0.1693   -0.2866    0.0854 C   0  0  1  0  0  0  0  0  0  0  0  0
    0.9043   -0.8713   -0.4705 H   0  0  0  0  0  0  0  0  0  0  0  0
    0.0106    1.0816   -0.6124 C   0  0  0  0  0  0  0  0  0  0  0  0
    0.5089    1.8424   -0.0091 H   0  0  0  0  0  0  0  0  0  0  0  0
    0.5133    1.0430   -1.5812 H   0  0  0  0  0  0  0  0  0  0  0  0
   -1.4455    1.5292   -0.8146 C   0  0  0  0  0  0  0  0  0  0  0  0
   -2.2746    0.6938   -1.2464 O   0  5  0  0  0  0  0  0  0  0  0  0
   -1.7146    2.7209   -0.5508 O   0  0  0  0  0  0  0  0  0  0  0  0
    0.6664   -0.1450    1.5428 C   0  0  0  0  0  0  0  0  0  0  0  0
    1.8485   -0.3724    1.8265 O   0  0  0  0  0  0  0  0  0  0  0  0
   -0.2161    0.2434    2.4686 N   0  0  0  0  0  0  0  0  0  0  0  0
   -1.1850    0.3219    2.1537 H   0  0  0  0  0  0  0  0  0  0  0  0
    0.0735    0.4128    3.8885 C   0  0  0  0  0  0  0  0  0  0  0  0
    1.0159    0.9483    4.0105 H   0  0  0  0  0  0  0  0  0  0  0  0
   -0.7315    0.9748    4.3613 H   0  0  0  0  0  0  0  0  0  0  0  0
    0.1564   -0.5677    4.3577 H   0  0  0  0  0  0  0  0  0  0  0  0
  5  6  2  0  0  0  0
  5  7  1  0  0  0  0
  2  3  1  0  0  0  0
  2  4  1  0  0  0  0
  2  5  1  0  0  0  0
  1  2  1  0  0  0  0
 17 18  2  0  0  0  0
 17 19  1  0  0  0  0
 14 15  1  0  0  0  0
 14 16  2  0  0  0  0
 11 12  1  0  0  0  0
 11 13  1  0  0  0  0
 11 14  1  0  0  0  0
  9 10  1  0  0  0  0
  9 11  1  0  0  0  0
  9 17  1  0  0  0  0
  7  8  1  0  0  0  0
  7  9  1  0  0  0  0
 21 22  1  0  0  0  0
 21 23  1  0  0  0  0
 21 24  1  0  0  0  0
 19 20  1  0  0  0  0
 19 21  1  0  0  0  0
M  CHG  1  15  -1
M  END
$$$$
default_name
  -OEChem-02102213163D

 24 23  0     1  0  0  0  0  0999 V2000
   -2.8347   -3.7166    0.8034 H   0  0  0  0  0  0  0  0  0  0  0  0
   -2.7728   -2.7096    0.3954 C   0  0  0  0  0  0  0  0  0  0  0  0
   -3.4267   -2.0426    0.9524 H   0  0  0  0  0  0  0  0  0  0  0  0
   -3.0538   -2.7186   -0.6556 H   0  0  0  0  0  0  0  0  0  0  0  0
   -1.3498   -2.2206    0.5184 C   0  0  0  0  0  0  0  0  0  0  0  0
   -0.4997   -2.9426    1.0194 O   0  0  0  0  0  0  0  0  0  0  0  0
   -1.1198   -0.9926    0.0674 N   0  0  0  0  0  0  0  0  0  0  0  0
   -1.8978   -0.4486   -0.2716 H   0  0  0  0  0  0  0  0  0  0  0  0
    0.1693   -0.2866    0.0854 C   0  0  1  0  0  0  0  0  0  0  0  0
    0.9043   -0.8713   -0.4705 H   0  0  0  0  0  0  0  0  0  0  0  0
    0.0106    1.0816   -0.6124 C   0  0  0  0  0  0  0  0  0  0  0  0
    0.5089    1.8424   -0.0091 H   0  0  0  0  0  0  0  0  0  0  0  0
    0.5133    1.0430   -1.5812 H   0  0  0  0  0  0  0  0  0  0  0  0
   -1.4455    1.5292   -0.8146 C   0  0  0  0  0  0  0  0  0  0  0  0
   -2.3267    0.6506   -0.9670 O   0  5  0  0  0  0  0  0  0  0  0  0
   -1.6632    2.7598   -0.8343 O   0  0  0  0  0  0  0  0  0  0  0  0
    0.6664   -0.1450    1.5428 C   0  0  0  0  0  0  0  0  0  0  0  0
    1.8485   -0.3724    1.8265 O   0  0  0  0  0  0  0  0  0  0  0  0
   -0.2161    0.2434    2.4686 N   0  0  0  0  0  0  0  0  0  0  0  0
   -1.1850    0.3219    2.1537 H   0  0  0  0  0  0  0  0  0  0  0  0
    0.0735    0.4128    3.8885 C   0  0  0  0  0  0  0  0  0  0  0  0
    1.0159    0.9483    4.0105 H   0  0  0  0  0  0  0  0  0  0  0  0
   -0.7315    0.9748    4.3613 H   0  0  0  0  0  0  0  0  0  0  0  0
    0.1564   -0.5677    4.3577 H   0  0  0  0  0  0  0  0  0  0  0  0
  5  6  2  0  0  0  0
  5  7  1  0  0  0  0
  2  3  1  0  0  0  0
  2  4  1  0  0  0  0
  2  5  1  0  0  0  0
  1  2  1  0  0  0  0
 17 18  2  0  0  0  0
 17 19  1  0  0  0  0
 14 15  1  0  0  0  0
 14 16  2  0  0  0  0
 11 12  1  0  0  0  0
 11 13  1  0  0  0  0
 11 14  1  0  0  0  0
  9 10  1  0  0  0  0
  9 11  1  0  0  0  0
  9 17  1  0  0  0  0
  7  8  1  0  0  0  0
  7  9  1  0  0  0  0
 21 22  1  0  0  0  0
 21 23  1  0  0  0  0
 21 24  1  0  0  0  0
 19 20  1  0  0  0  0
 19 21  1  0  0  0  0
M  CHG  1  15  -1
M  END
$$$$
default_name
  -OEChem-02102213163D

 24 23  0     1  0  0  0  0  0999 V2000
   -2.8347   -3.7166    0.8034 H   0  0  0  0  0  0  0  0  0  0  0  0
   -2.7728   -2.7096    0.3954 C   0  0  0  0  0  0  0  0  0  0  0  0
   -3.4267   -2.0426    0.9524 H   0  0  0  0  0  0  0  0  0  0  0  0
   -3.0538   -2.7186   -0.6556 H   0  0  0  0  0  0  0  0  0  0  0  0
   -1.3498   -2.2206    0.5184 C   0  0  0  0  0  0  0  0  0  0  0  0
   -0.4997   -2.9426    1.0194 O   0  0  0  0  0  0  0  0  0  0  0  0
   -1.1198   -0.9926    0.0674 N   0  0  0  0  0  0  0  0  0  0  0  0
   -1.8978   -0.4486   -0.2716 H   0  0  0  0  0  0  0  0  0  0  0  0
    0.1693   -0.2866    0.0854 C   0  0  1  0  0  0  0  0  0  0  0  0
    0.9043   -0.8713   -0.4705 H   0  0  0  0  0  0  0  0  0  0  0  0
    0.0106    1.0816   -0.6124 C   0  0  0  0  0  0  0  0  0  0  0  0
    0.5089    1.8424   -0.0091 H   0  0  0  0  0  0  0  0  0  0  0  0
    0.5133    1.0430   -1.5812 H   0  0  0  0  0  0  0  0  0  0  0  0
   -1.4455    1.5292   -0.8146 C   0  0  0  0  0  0  0  0  0  0  0  0
   -2.3574    0.6791   -0.6826 O   0  5  0  0  0  0  0  0  0  0  0  0
   -1.6337    2.7261   -1.1216 O   0  0  0  0  0  0  0  0  0  0  0  0
    0.6664   -0.1450    1.5428 C   0  0  0  0  0  0  0  0  0  0  0  0
    1.8485   -0.3724    1.8265 O   0  0  0  0  0  0  0  0  0  0  0  0
   -0.2161    0.2434    2.4686 N   0  0  0  0  0  0  0  0  0  0  0  0
   -1.1850    0.3219    2.1537 H   0  0  0  0  0  0  0  0  0  0  0  0
    0.0735    0.4128    3.8885 C   0  0  0  0  0  0  0  0  0  0  0  0
    1.0159    0.9483    4.0105 H   0  0  0  0  0  0  0  0  0  0  0  0
   -0.7315    0.9748    4.3613 H   0  0  0  0  0  0  0  0  0  0  0  0
    0.1564   -0.5677    4.3577 H   0  0  0  0  0  0  0  0  0  0  0  0
  5  6  2  0  0  0  0
  5  7  1  0  0  0  0
  2  3  1  0  0  0  0
  2  4  1  0  0  0  0
  2  5  1  0  0  0  0
  1  2  1  0  0  0  0
 17 18  2  0  0  0  0
 17 19  1  0  0  0  0
 14 15  1  0  0  0  0
 14 16  2  0  0  0  0
 11 12  1  0  0  0  0
 11 13  1  0  0  0  0
 11 14  1  0  0  0  0
  9 10  1  0  0  0  0
  9 11  1  0  0  0  0
  9 17  1  0  0  0  0
  7  8  1  0  0  0  0
  7  9  1  0  0  0  0
 21 22  1  0  0  0  0
 21 23  1  0  0  0  0
 21 24  1  0  0  0  0
 19 20  1  0  0  0  0
 19 21  1  0  0  0  0
M  CHG  1  15  -1
M  END
$$$$
default_name
  -OEChem-02102213163D

 24 23  0     1  0  0  0  0  0999 V2000
   -2.8347   -3.7166    0.8034 H   0  0  0  0  0  0  0  0  0  0  0  0
   -2.7728   -2.7096    0.3954 C   0  0  0  0  0  0  0  0  0  0  0  0
   -3.4267   -2.0426    0.9524 H   0  0  0  0  0  0  0  0  0  0  0  0
   -3.0538   -2.7186   -0.6556 H   0  0  0  0  0  0  0  0  0  0  0  0
   -1.3498   -2.2206    0.5184 C   0  0  0  0  0  0  0  0  0  0  0  0
   -0.4997   -2.9426    1.0194 O   0  0  0  0  0  0  0  0  0  0  0  0
   -1.1198   -0.9926    0.0674 N   0  0  0  0  0  0  0  0  0  0  0  0
   -1.8978   -0.4486   -0.2716 H   0  0  0  0  0  0  0  0  0  0  0  0
    0.1693   -0.2866    0.0854 C   0  0  1  0  0  0  0  0  0  0  0  0
    0.9043   -0.8713   -0.4705 H   0  0  0  0  0  0  0  0  0  0  0  0
    0.0106    1.0816   -0.6124 C   0  0  0  0  0  0  0  0  0  0  0  0
    0.5089    1.8424   -0.0091 H   0  0  0  0  0  0  0  0  0  0  0  0
    0.5133    1.0430   -1.5812 H   0  0  0  0  0  0  0  0  0  0  0  0
   -1.4455    1.5292   -0.8146 C   0  0  0  0  0  0  0  0  0  0  0  0
   -2.3647    0.7775   -0.4125 O   0  5  0  0  0  0  0  0  0  0  0  0
   -1.6280    2.6221   -1.3930 O   0  0  0  0  0  0  0  0  0  0  0  0
    0.6664   -0.1450    1.5428 C   0  0  0  0  0  0  0  0  0  0  0  0
    1.8485   -0.3724    1.8265 O   0  0  0  0  0  0  0  0  0  0  0  0
   -0.2161    0.2434    2.4686 N   0  0  0  0  0  0  0  0  0  0  0  0
   -1.1850    0.3219    2.1537 H   0  0  0  0  0  0  0  0  0  0  0  0
    0.0735    0.4128    3.8885 C   0  0  0  0  0  0  0  0  0  0  0  0
    1.0159    0.9483    4.0105 H   0  0  0  0  0  0  0  0  0  0  0  0
   -0.7315    0.9748    4.3613 H   0  0  0  0  0  0  0  0  0  0  0  0
    0.1564   -0.5677    4.3577 H   0  0  0  0  0  0  0  0  0  0  0  0
  5  6  2  0  0  0  0
  5  7  1  0  0  0  0
  2  3  1  0  0  0  0
  2  4  1  0  0  0  0
  2  5  1  0  0  0  0
  1  2  1  0  0  0  0
 17 18  2  0  0  0  0
 17 19  1  0  0  0  0
 14 15  1  0  0  0  0
 14 16  2  0  0  0  0
 11 12  1  0  0  0  0
 11 13  1  0  0  0  0
 11 14  1  0  0  0  0
  9 10  1  0  0  0  0
  9 11  1  0  0  0  0
  9 17  1  0  0  0  0
  7  8  1  0  0  0  0
  7  9  1  0  0  0  0
 21 22  1  0  0  0  0
 21 23  1  0  0  0  0
 21 24  1  0  0  0  0
 19 20  1  0  0  0  0
 19 21  1  0  0  0  0
M  CHG  1  15  -1
M  END
$$$$
default_name
  -OEChem-02102213163D

 24 23  0     1  0  0  0  0  0999 V2000
   -2.8347   -3.7166    0.8034 H   0  0  0  0  0  0  0  0  0  0  0  0
   -2.7728   -2.7096    0.3954 C   0  0  0  0  0  0  0  0  0  0  0  0
   -3.4267   -2.0426    0.9524 H   0  0  0  0  0  0  0  0  0  0  0  0
   -3.0538   -2.7186   -0.6556 H   0  0  0  0  0  0  0  0  0  0  0  0
   -1.3498   -2.2206    0.5184 C   0  0  0  0  0  0  0  0  0  0  0  0
   -0.4997   -2.9426    1.0194 O   0  0  0  0  0  0  0  0  0  0  0  0
   -1.1198   -0.9926    0.0674 N   0  0  0  0  0  0  0  0  0  0  0  0
   -1.8978   -0.4486   -0.2716 H   0  0  0  0  0  0  0  0  0  0  0  0
    0.1693   -0.2866    0.0854 C   0  0  1  0  0  0  0  0  0  0  0  0
    0.9043   -0.8713   -0.4705 H   0  0  0  0  0  0  0  0  0  0  0  0
    0.0106    1.0816   -0.6124 C   0  0  0  0  0  0  0  0  0  0  0  0
    0.5089    1.8424   -0.0091 H   0  0  0  0  0  0  0  0  0  0  0  0
    0.5133    1.0430   -1.5812 H   0  0  0  0  0  0  0  0  0  0  0  0
   -1.4455    1.5292   -0.8146 C   0  0  0  0  0  0  0  0  0  0  0  0
   -2.3480    0.9390   -0.1753 O   0  5  0  0  0  0  0  0  0  0  0  0
   -1.6465    2.4549   -1.6301 O   0  0  0  0  0  0  0  0  0  0  0  0
    0.6664   -0.1450    1.5428 C   0  0  0  0  0  0  0  0  0  0  0  0
    1.8485   -0.3724    1.8265 O   0  0  0  0  0  0  0  0  0  0  0  0
   -0.2161    0.2434    2.4686 N   0  0  0  0  0  0  0  0  0  0  0  0
   -1.1850    0.3219    2.1537 H   0  0  0  0  0  0  0  0  0  0  0  0
    0.0735    0.4128    3.8885 C   0  0  0  0  0  0  0  0  0  0  0  0
    1.0159    0.9483    4.0105 H   0  0  0  0  0  0  0  0  0  0  0  0
   -0.7315    0.9748    4.3613 H   0  0  0  0  0  0  0  0  0  0  0  0
    0.1564   -0.5677    4.3577 H   0  0  0  0  0  0  0  0  0  0  0  0
  5  6  2  0  0  0  0
  5  7  1  0  0  0  0
  2  3  1  0  0  0  0
  2  4  1  0  0  0  0
  2  5  1  0  0  0  0
  1  2  1  0  0  0  0
 17 18  2  0  0  0  0
 17 19  1  0  0  0  0
 14 15  1  0  0  0  0
 14 16  2  0  0  0  0
 11 12  1  0  0  0  0
 11 13  1  0  0  0  0
 11 14  1  0  0  0  0
  9 10  1  0  0  0  0
  9 11  1  0  0  0  0
  9 17  1  0  0  0  0
  7  8  1  0  0  0  0
  7  9  1  0  0  0  0
 21 22  1  0  0  0  0
 21 23  1  0  0  0  0
 21 24  1  0  0  0  0
 19 20  1  0  0  0  0
 19 21  1  0  0  0  0
M  CHG  1  15  -1
M  END
$$$$
default_name
  -OEChem-02102213163D

 24 23  0     1  0  0  0  0  0999 V2000
   -2.8347   -3.7166    0.8034 H   0  0  0  0  0  0  0  0  0  0  0  0
   -2.7728   -2.7096    0.3954 C   0  0  0  0  0  0  0  0  0  0  0  0
   -3.4267   -2.0426    0.9524 H   0  0  0  0  0  0  0  0  0  0  0  0
   -3.0538   -2.7186   -0.6556 H   0  0  0  0  0  0  0  0  0  0  0  0
   -1.3498   -2.2206    0.5184 C   0  0  0  0  0  0  0  0  0  0  0  0
   -0.4997   -2.9426    1.0194 O   0  0  0  0  0  0  0  0  0  0  0  0
   -1.1198   -0.9926    0.0674 N   0  0  0  0  0  0  0  0  0  0  0  0
   -1.8978   -0.4486   -0.2716 H   0  0  0  0  0  0  0  0  0  0  0  0
    0.1693   -0.2866    0.0854 C   0  0  1  0  0  0  0  0  0  0  0  0
    0.9043   -0.8713   -0.4705 H   0  0  0  0  0  0  0  0  0  0  0  0
    0.0106    1.0816   -0.6124 C   0  0  0  0  0  0  0  0  0  0  0  0
    0.5089    1.8424   -0.0091 H   0  0  0  0  0  0  0  0  0  0  0  0
    0.5133    1.0430   -1.5812 H   0  0  0  0  0  0  0  0  0  0  0  0
   -1.4455    1.5292   -0.8146 C   0  0  0  0  0  0  0  0  0  0  0  0
   -2.3085    1.1525    0.0130 O   0  5  0  0  0  0  0  0  0  0  0  0
   -1.6879    2.2358   -1.8167 O   0  0  0  0  0  0  0  0  0  0  0  0
    0.6664   -0.1450    1.5428 C   0  0  0  0  0  0  0  0  0  0  0  0
    1.8485   -0.3724    1.8265 O   0  0  0  0  0  0  0  0  0  0  0  0
   -0.2161    0.2434    2.4686 N   0  0  0  0  0  0  0  0  0  0  0  0
   -1.1850    0.3219    2.1537 H   0  0  0  0  0  0  0  0  0  0  0  0
    0.0735    0.4128    3.8885 C   0  0  0  0  0  0  0  0  0  0  0  0
    1.0159    0.9483    4.0105 H   0  0  0  0  0  0  0  0  0  0  0  0
   -0.7315    0.9748    4.3613 H   0  0  0  0  0  0  0  0  0  0  0  0
    0.1564   -0.5677    4.3577 H   0  0  0  0  0  0  0  0  0  0  0  0
  5  6  2  0  0  0  0
  5  7  1  0  0  0  0
  2  3  1  0  0  0  0
  2  4  1  0  0  0  0
  2  5  1  0  0  0  0
  1  2  1  0  0  0  0
 17 18  2  0  0  0  0
 17 19  1  0  0  0  0
 14 15  1  0  0  0  0
 14 16  2  0  0  0  0
 11 12  1  0  0  0  0
 11 13  1  0  0  0  0
 11 14  1  0  0  0  0
  9 10  1  0  0  0  0
  9 11  1  0  0  0  0
  9 17  1  0  0  0  0
  7  8  1  0  0  0  0
  7  9  1  0  0  0  0
 21 22  1  0  0  0  0
 21 23  1  0  0  0  0
 21 24  1  0  0  0  0
 19 20  1  0  0  0  0
 19 21  1  0  0  0  0
M  CHG  1  15  -1
M  END
$$$$
default_name
  -OEChem-02102213163D

 24 23  0     1  0  0  0  0  0999 V2000
   -2.8347   -3.7166    0.8034 H   0  0  0  0  0  0  0  0  0  0  0  0
   -2.7728   -2.7096    0.3954 C   0  0  0  0  0  0  0  0  0  0  0  0
   -3.4267   -2.0426    0.9524 H   0  0  0  0  0  0  0  0  0  0  0  0
   -3.0538   -2.7186   -0.6556 H   0  0  0  0  0  0  0  0  0  0  0  0
   -1.3498   -2.2206    0.5184 C   0  0  0  0  0  0  0  0  0  0  0  0
   -0.4997   -2.9426    1.0194 O   0  0  0  0  0  0  0  0  0  0  0  0
   -1.1198   -0.9926    0.0674 N   0  0  0  0  0  0  0  0  0  0  0  0
   -1.8978   -0.4486   -0.2716 H   0  0  0  0  0  0  0  0  0  0  0  0
    0.1693   -0.2866    0.0854 C   0  0  1  0  0  0  0  0  0  0  0  0
    0.9043   -0.8713   -0.4705 H   0  0  0  0  0  0  0  0  0  0  0  0
    0.0106    1.0816   -0.6124 C   0  0  0  0  0  0  0  0  0  0  0  0
    0.5089    1.8424   -0.0091 H   0  0  0  0  0  0  0  0  0  0  0  0
    0.5133    1.0430   -1.5812 H   0  0  0  0  0  0  0  0  0  0  0  0
   -1.4455    1.5292   -0.8146 C   0  0  0  0  0  0  0  0  0  0  0  0
   -2.2489    1.4037    0.1396 O   0  5  0  0  0  0  0  0  0  0  0  0
   -1.7494    1.9799   -1.9401 O   0  0  0  0  0  0  0  0  0  0  0  0
    0.6664   -0.1450    1.5428 C   0  0  0  0  0  0  0  0  0  0  0  0
    1.8485   -0.3724    1.8265 O   0  0  0  0  0  0  0  0  0  0  0  0
   -0.2161    0.2434    2.4686 N   0  0  0  0  0  0  0  0  0  0  0  0
   -1.1850    0.3219    2.1537 H   0  0  0  0  0  0  0  0  0  0  0  0
    0.0735    0.4128    3.8885 C   0  0  0  0  0  0  0  0  0  0  0  0
    1.0159    0.9483    4.0105 H   0  0  0  0  0  0  0  0  0  0  0  0
   -0.7315    0.9748    4.3613 H   0  0  0  0  0  0  0  0  0  0  0  0
    0.1564   -0.5677    4.3577 H   0  0  0  0  0  0  0  0  0  0  0  0
  5  6  2  0  0  0  0
  5  7  1  0  0  0  0
  2  3  1  0  0  0  0
  2  4  1  0  0  0  0
  2  5  1  0  0  0  0
  1  2  1  0  0  0  0
 17 18  2  0  0  0  0
 17 19  1  0  0  0  0
 14 15  1  0  0  0  0
 14 16  2  0  0  0  0
 11 12  1  0  0  0  0
 11 13  1  0  0  0  0
 11 14  1  0  0  0  0
  9 10  1  0  0  0  0
  9 11  1  0  0  0  0
  9 17  1  0  0  0  0
  7  8  1  0  0  0  0
  7  9  1  0  0  0  0
 21 22  1  0  0  0  0
 21 23  1  0  0  0  0
 21 24  1  0  0  0  0
 19 20  1  0  0  0  0
 19 21  1  0  0  0  0
M  CHG  1  15  -1
M  END
$$$$
default_name
  -OEChem-02102213163D

 24 23  0     1  0  0  0  0  0999 V2000
   -2.8347   -3.7166    0.8034 H   0  0  0  0  0  0  0  0  0  0  0  0
   -2.7728   -2.7096    0.3954 C   0  0  0  0  0  0  0  0  0  0  0  0
   -3.4267   -2.0426    0.9524 H   0  0  0  0  0  0  0  0  0  0  0  0
   -3.0538   -2.7186   -0.6556 H   0  0  0  0  0  0  0  0  0  0  0  0
   -1.3498   -2.2206    0.5184 C   0  0  0  0  0  0  0  0  0  0  0  0
   -0.4997   -2.9426    1.0194 O   0  0  0  0  0  0  0  0  0  0  0  0
   -1.1198   -0.9926    0.0674 N   0  0  0  0  0  0  0  0  0  0  0  0
   -1.8978   -0.4486   -0.2716 H   0  0  0  0  0  0  0  0  0  0  0  0
    0.1693   -0.2866    0.0854 C   0  0  1  0  0  0  0  0  0  0  0  0
    0.9043   -0.8713   -0.4705 H   0  0  0  0  0  0  0  0  0  0  0  0
    0.0106    1.0816   -0.6124 C   0  0  0  0  0  0  0  0  0  0  0  0
    0.5089    1.8424   -0.0091 H   0  0  0  0  0  0  0  0  0  0  0  0
    0.5133    1.0430   -1.5812 H   0  0  0  0  0  0  0  0  0  0  0  0
   -1.4455    1.5292   -0.8146 C   0  0  0  0  0  0  0  0  0  0  0  0
   -2.1732    1.6753    0.1957 O   0  5  0  0  0  0  0  0  0  0  0  0
   -1.8269    1.7045   -1.9919 O   0  0  0  0  0  0  0  0  0  0  0  0
    0.6664   -0.1450    1.5428 C   0  0  0  0  0  0  0  0  0  0  0  0
    1.8485   -0.3724    1.8265 O   0  0  0  0  0  0  0  0  0  0  0  0
   -0.2161    0.2434    2.4686 N   0  0  0  0  0  0  0  0  0  0  0  0
   -1.1850    0.3219    2.1537 H   0  0  0  0  0  0  0  0  0  0  0  0
    0.0735    0.4128    3.8885 C   0  0  0  0  0  0  0  0  0  0  0  0
    1.0159    0.9483    4.0105 H   0  0  0  0  0  0  0  0  0  0  0  0
   -0.7315    0.9748    4.3613 H   0  0  0  0  0  0  0  0  0  0  0  0
    0.1564   -0.5677    4.3577 H   0  0  0  0  0  0  0  0  0  0  0  0
  5  6  2  0  0  0  0
  5  7  1  0  0  0  0
  2  3  1  0  0  0  0
  2  4  1  0  0  0  0
  2  5  1  0  0  0  0
  1  2  1  0  0  0  0
 17 18  2  0  0  0  0
 17 19  1  0  0  0  0
 14 15  1  0  0  0  0
 14 16  2  0  0  0  0
 11 12  1  0  0  0  0
 11 13  1  0  0  0  0
 11 14  1  0  0  0  0
  9 10  1  0  0  0  0
  9 11  1  0  0  0  0
  9 17  1  0  0  0  0
  7  8  1  0  0  0  0
  7  9  1  0  0  0  0
 21 22  1  0  0  0  0
 21 23  1  0  0  0  0
 21 24  1  0  0  0  0
 19 20  1  0  0  0  0
 19 21  1  0  0  0  0
M  CHG  1  15  -1
M  END
$$$$
default_name
  -OEChem-02102213163D

 24 23  0     1  0  0  0  0  0999 V2000
   -2.8347   -3.7166    0.8034 H   0  0  0  0  0  0  0  0  0  0  0  0
   -2.7728   -2.7096    0.3954 C   0  0  0  0  0  0  0  0  0  0  0  0
   -3.4267   -2.0426    0.9524 H   0  0  0  0  0  0  0  0  0  0  0  0
   -3.0538   -2.7186   -0.6556 H   0  0  0  0  0  0  0  0  0  0  0  0
   -1.3498   -2.2206    0.5184 C   0  0  0  0  0  0  0  0  0  0  0  0
   -0.4997   -2.9426    1.0194 O   0  0  0  0  0  0  0  0  0  0  0  0
   -1.1198   -0.9926    0.0674 N   0  0  0  0  0  0  0  0  0  0  0  0
   -1.8978   -0.4486   -0.2716 H   0  0  0  0  0  0  0  0  0  0  0  0
    0.1693   -0.2866    0.0854 C   0  0  1  0  0  0  0  0  0  0  0  0
    0.9043   -0.8713   -0.4705 H   0  0  0  0  0  0  0  0  0  0  0  0
    0.0106    1.0816   -0.6124 C   0  0  0  0  0  0  0  0  0  0  0  0
    0.5089    1.8424   -0.0091 H   0  0  0  0  0  0  0  0  0  0  0  0
    0.5133    1.0430   -1.5812 H   0  0  0  0  0  0  0  0  0  0  0  0
   -1.4455    1.5292   -0.8146 C   0  0  0  0  0  0  0  0  0  0  0  0
   -2.0866    1.9488    0.1777 O   0  5  0  0  0  0  0  0  0  0  0  0
   -1.9150    1.4284   -1.9686 O   0  0  0  0  0  0  0  0  0  0  0  0
    0.6664   -0.1450    1.5428 C   0  0  0  0  0  0  0  0  0  0  0  0
    1.8485   -0.3724    1.8265 O   0  0  0  0  0  0  0  0  0  0  0  0
   -0.2161    0.2434    2.4686 N   0  0  0  0  0  0  0  0  0  0  0  0
   -1.1850    0.3219    2.1537 H   0  0  0  0  0  0  0  0  0  0  0  0
    0.0735    0.4128    3.8885 C   0  0  0  0  0  0  0  0  0  0  0  0
    1.0159    0.9483    4.0105 H   0  0  0  0  0  0  0  0  0  0  0  0
   -0.7315    0.9748    4.3613 H   0  0  0  0  0  0  0  0  0  0  0  0
    0.1564   -0.5677    4.3577 H   0  0  0  0  0  0  0  0  0  0  0  0
  5  6  2  0  0  0  0
  5  7  1  0  0  0  0
  2  3  1  0  0  0  0
  2  4  1  0  0  0  0
  2  5  1  0  0  0  0
  1  2  1  0  0  0  0
 17 18  2  0  0  0  0
 17 19  1  0  0  0  0
 14 15  1  0  0  0  0
 14 16  2  0  0  0  0
 11 12  1  0  0  0  0
 11 13  1  0  0  0  0
 11 14  1  0  0  0  0
  9 10  1  0  0  0  0
  9 11  1  0  0  0  0
  9 17  1  0  0  0  0
  7  8  1  0  0  0  0
  7  9  1  0  0  0  0
 21 22  1  0  0  0  0
 21 23  1  0  0  0  0
 21 24  1  0  0  0  0
 19 20  1  0  0  0  0
 19 21  1  0  0  0  0
M  CHG  1  15  -1
M  END
$$$$
default_name
  -OEChem-02102213163D

 24 23  0     1  0  0  0  0  0999 V2000
   -2.8347   -3.7166    0.8034 H   0  0  0  0  0  0  0  0  0  0  0  0
   -2.7728   -2.7096    0.3954 C   0  0  0  0  0  0  0  0  0  0  0  0
   -3.4267   -2.0426    0.9524 H   0  0  0  0  0  0  0  0  0  0  0  0
   -3.0538   -2.7186   -0.6556 H   0  0  0  0  0  0  0  0  0  0  0  0
   -1.3498   -2.2206    0.5184 C   0  0  0  0  0  0  0  0  0  0  0  0
   -0.4997   -2.9426    1.0194 O   0  0  0  0  0  0  0  0  0  0  0  0
   -1.1198   -0.9926    0.0674 N   0  0  0  0  0  0  0  0  0  0  0  0
   -1.8978   -0.4486   -0.2716 H   0  0  0  0  0  0  0  0  0  0  0  0
    0.1693   -0.2866    0.0854 C   0  0  1  0  0  0  0  0  0  0  0  0
    0.9043   -0.8713   -0.4705 H   0  0  0  0  0  0  0  0  0  0  0  0
    0.0106    1.0816   -0.6124 C   0  0  0  0  0  0  0  0  0  0  0  0
    0.5089    1.8424   -0.0091 H   0  0  0  0  0  0  0  0  0  0  0  0
    0.5133    1.0430   -1.5812 H   0  0  0  0  0  0  0  0  0  0  0  0
   -1.4455    1.5292   -0.8146 C   0  0  0  0  0  0  0  0  0  0  0  0
   -1.9950    2.2057    0.0866 O   0  5  0  0  0  0  0  0  0  0  0  0
   -2.0078    1.1704   -1.8717 O   0  0  0  0  0  0  0  0  0  0  0  0
    0.6664   -0.1450    1.5428 C   0  0  0  0  0  0  0  0  0  0  0  0
    1.8485   -0.3724    1.8265 O   0  0  0  0  0  0  0  0  0  0  0  0
   -0.2161    0.2434    2.4686 N   0  0  0  0  0  0  0  0  0  0  0  0
   -1.1850    0.3219    2.1537 H   0  0  0  0  0  0  0  0  0  0  0  0
    0.0735    0.4128    3.8885 C   0  0  0  0  0  0  0  0  0  0  0  0
    1.0159    0.9483    4.0105 H   0  0  0  0  0  0  0  0  0  0  0  0
   -0.7315    0.9748    4.3613 H   0  0  0  0  0  0  0  0  0  0  0  0
    0.1564   -0.5677    4.3577 H   0  0  0  0  0  0  0  0  0  0  0  0
  5  6  2  0  0  0  0
  5  7  1  0  0  0  0
  2  3  1  0  0  0  0
  2  4  1  0  0  0  0
  2  5  1  0  0  0  0
  1  2  1  0  0  0  0
 17 18  2  0  0  0  0
 17 19  1  0  0  0  0
 14 15  1  0  0  0  0
 14 16  2  0  0  0  0
 11 12  1  0  0  0  0
 11 13  1  0  0  0  0
 11 14  1  0  0  0  0
  9 10  1  0  0  0  0
  9 11  1  0  0  0  0
  9 17  1  0  0  0  0
  7  8  1  0  0  0  0
  7  9  1  0  0  0  0
 21 22  1  0  0  0  0
 21 23  1  0  0  0  0
 21 24  1  0  0  0  0
 19 20  1  0  0  0  0
 19 21  1  0  0  0  0
M  CHG  1  15  -1
M  END
$$$$
default_name
  -OEChem-02102213163D

 24 23  0     1  0  0  0  0  0999 V2000
   -2.8347   -3.7166    0.8034 H   0  0  0  0  0  0  0  0  0  0  0  0
   -2.7728   -2.7096    0.3954 C   0  0  0  0  0  0  0  0  0  0  0  0
   -3.4267   -2.0426    0.9524 H   0  0  0  0  0  0  0  0  0  0  0  0
   -3.0538   -2.7186   -0.6556 H   0  0  0  0  0  0  0  0  0  0  0  0
   -1.3498   -2.2206    0.5184 C   0  0  0  0  0  0  0  0  0  0  0  0
   -0.4997   -2.9426    1.0194 O   0  0  0  0  0  0  0  0  0  0  0  0
   -1.1198   -0.9926    0.0674 N   0  0  0  0  0  0  0  0  0  0  0  0
   -1.8978   -0.4486   -0.2716 H   0  0  0  0  0  0  0  0  0  0  0  0
    0.1693   -0.2866    0.0854 C   0  0  1  0  0  0  0  0  0  0  0  0
    0.9043   -0.8713   -0.4705 H   0  0  0  0  0  0  0  0  0  0  0  0
    0.0106    1.0816   -0.6124 C   0  0  0  0  0  0  0  0  0  0  0  0
    0.5089    1.8424   -0.0091 H   0  0  0  0  0  0  0  0  0  0  0  0
    0.5133    1.0430   -1.5812 H   0  0  0  0  0  0  0  0  0  0  0  0
   -1.4455    1.5292   -0.8146 C   0  0  0  0  0  0  0  0  0  0  0  0
   -1.9046    2.4283   -0.0713 O   0  5  0  0  0  0  0  0  0  0  0  0
   -2.0988    0.9482   -1.7078 O   0  0  0  0  0  0  0  0  0  0  0  0
    0.6664   -0.1450    1.5428 C   0  0  0  0  0  0  0  0  0  0  0  0
    1.8485   -0.3724    1.8265 O   0  0  0  0  0  0  0  0  0  0  0  0
   -0.2161    0.2434    2.4686 N   0  0  0  0  0  0  0  0  0  0  0  0
   -1.1850    0.3219    2.1537 H   0  0  0  0  0  0  0  0  0  0  0  0
    0.0735    0.4128    3.8885 C   0  0  0  0  0  0  0  0  0  0  0  0
    1.0159    0.9483    4.0105 H   0  0  0  0  0  0  0  0  0  0  0  0
   -0.7315    0.9748    4.3613 H   0  0  0  0  0  0  0  0  0  0  0  0
    0.1564   -0.5677    4.3577 H   0  0  0  0  0  0  0  0  0  0  0  0
  5  6  2  0  0  0  0
  5  7  1  0  0  0  0
  2  3  1  0  0  0  0
  2  4  1  0  0  0  0
  2  5  1  0  0  0  0
  1  2  1  0  0  0  0
 17 18  2  0  0  0  0
 17 19  1  0  0  0  0
 14 15  1  0  0  0  0
 14 16  2  0  0  0  0
 11 12  1  0  0  0  0
 11 13  1  0  0  0  0
 11 14  1  0  0  0  0
  9 10  1  0  0  0  0
  9 11  1  0  0  0  0
  9 17  1  0  0  0  0
  7  8  1  0  0  0  0
  7  9  1  0  0  0  0
 21 22  1  0  0  0  0
 21 23  1  0  0  0  0
 21 24  1  0  0  0  0
 19 20  1  0  0  0  0
 19 21  1  0  0  0  0
M  CHG  1  15  -1
M  END
$$$$
default_name
  -OEChem-02102213163D

 24 23  0     1  0  0  0  0  0999 V2000
   -2.8347   -3.7166    0.8034 H   0  0  0  0  0  0  0  0  0  0  0  0
   -2.7728   -2.7096    0.3954 C   0  0  0  0  0  0  0  0  0  0  0  0
   -3.4267   -2.0426    0.9524 H   0  0  0  0  0  0  0  0  0  0  0  0
   -3.0538   -2.7186   -0.6556 H   0  0  0  0  0  0  0  0  0  0  0  0
   -1.3498   -2.2206    0.5184 C   0  0  0  0  0  0  0  0  0  0  0  0
   -0.4997   -2.9426    1.0194 O   0  0  0  0  0  0  0  0  0  0  0  0
   -1.1198   -0.9926    0.0674 N   0  0  0  0  0  0  0  0  0  0  0  0
   -1.8978   -0.4486   -0.2716 H   0  0  0  0  0  0  0  0  0  0  0  0
    0.1693   -0.2866    0.0854 C   0  0  1  0  0  0  0  0  0  0  0  0
    0.9043   -0.8713   -0.4705 H   0  0  0  0  0  0  0  0  0  0  0  0
    0.0106    1.0816   -0.6124 C   0  0  0  0  0  0  0  0  0  0  0  0
    0.5089    1.8424   -0.0091 H   0  0  0  0  0  0  0  0  0  0  0  0
    0.5133    1.0430   -1.5812 H   0  0  0  0  0  0  0  0  0  0  0  0
   -1.4455    1.5292   -0.8146 C   0  0  0  0  0  0  0  0  0  0  0  0
   -1.8217    2.6015   -0.2852 O   0  5  0  0  0  0  0  0  0  0  0  0
   -2.1820    0.7768   -1.4882 O   0  0  0  0  0  0  0  0  0  0  0  0
    0.6664   -0.1450    1.5428 C   0  0  0  0  0  0  0  0  0  0  0  0
    1.8485   -0.3724    1.8265 O   0  0  0  0  0  0  0  0  0  0  0  0
   -0.2161    0.2434    2.4686 N   0  0  0  0  0  0  0  0  0  0  0  0
   -1.1850    0.3219    2.1537 H   0  0  0  0  0  0  0  0  0  0  0  0
    0.0735    0.4128    3.8885 C   0  0  0  0  0  0  0  0  0  0  0  0
    1.0159    0.9483    4.0105 H   0  0  0  0  0  0  0  0  0  0  0  0
   -0.7315    0.9748    4.3613 H   0  0  0  0  0  0  0  0  0  0  0  0
    0.1564   -0.5677    4.3577 H   0  0  0  0  0  0  0  0  0  0  0  0
  5  6  2  0  0  0  0
  5  7  1  0  0  0  0
  2  3  1  0  0  0  0
  2  4  1  0  0  0  0
  2  5  1  0  0  0  0
  1  2  1  0  0  0  0
 17 18  2  0  0  0  0
 17 19  1  0  0  0  0
 14 15  1  0  0  0  0
 14 16  2  0  0  0  0
 11 12  1  0  0  0  0
 11 13  1  0  0  0  0
 11 14  1  0  0  0  0
  9 10  1  0  0  0  0
  9 11  1  0  0  0  0
  9 17  1  0  0  0  0
  7  8  1  0  0  0  0
  7  9  1  0  0  0  0
 21 22  1  0  0  0  0
 21 23  1  0  0  0  0
 21 24  1  0  0  0  0
 19 20  1  0  0  0  0
 19 21  1  0  0  0  0
M  CHG  1  15  -1
M  END
$$$$
default_name
  -OEChem-02102213163D

 24 23  0     1  0  0  0  0  0999 V2000
   -2.8347   -3.7166    0.8034 H   0  0  0  0  0  0  0  0  0  0  0  0
   -2.7728   -2.7096    0.3954 C   0  0  0  0  0  0  0  0  0  0  0  0
   -3.4267   -2.0426    0.9524 H   0  0  0  0  0  0  0  0  0  0  0  0
   -3.0538   -2.7186   -0.6556 H   0  0  0  0  0  0  0  0  0  0  0  0
   -1.3498   -2.2206    0.5184 C   0  0  0  0  0  0  0  0  0  0  0  0
   -0.4997   -2.9426    1.0194 O   0  0  0  0  0  0  0  0  0  0  0  0
   -1.1198   -0.9926    0.0674 N   0  0  0  0  0  0  0  0  0  0  0  0
   -1.8978   -0.4486   -0.2716 H   0  0  0  0  0  0  0  0  0  0  0  0
    0.1693   -0.2866    0.0854 C   0  0  1  0  0  0  0  0  0  0  0  0
    0.9043   -0.8713   -0.4705 H   0  0  0  0  0  0  0  0  0  0  0  0
    0.0106    1.0816   -0.6124 C   0  0  0  0  0  0  0  0  0  0  0  0
    0.5089    1.8424   -0.0091 H   0  0  0  0  0  0  0  0  0  0  0  0
    0.5133    1.0430   -1.5812 H   0  0  0  0  0  0  0  0  0  0  0  0
   -1.4455    1.5292   -0.8146 C   0  0  0  0  0  0  0  0  0  0  0  0
   -1.7518    2.7136   -0.5405 O   0  5  0  0  0  0  0  0  0  0  0  0
   -2.2516    0.6680   -1.2277 O   0  0  0  0  0  0  0  0  0  0  0  0
    0.6664   -0.1450    1.5428 C   0  0  0  0  0  0  0  0  0  0  0  0
    1.8485   -0.3724    1.8265 O   0  0  0  0  0  0  0  0  0  0  0  0
   -0.2161    0.2434    2.4686 N   0  0  0  0  0  0  0  0  0  0  0  0
   -1.1850    0.3219    2.1537 H   0  0  0  0  0  0  0  0  0  0  0  0
    0.0735    0.4128    3.8885 C   0  0  0  0  0  0  0  0  0  0  0  0
    1.0159    0.9483    4.0105 H   0  0  0  0  0  0  0  0  0  0  0  0
   -0.7315    0.9748    4.3613 H   0  0  0  0  0  0  0  0  0  0  0  0
    0.1564   -0.5677    4.3577 H   0  0  0  0  0  0  0  0  0  0  0  0
  5  6  2  0  0  0  0
  5  7  1  0  0  0  0
  2  3  1  0  0  0  0
  2  4  1  0  0  0  0
  2  5  1  0  0  0  0
  1  2  1  0  0  0  0
 17 18  2  0  0  0  0
 17 19  1  0  0  0  0
 14 15  1  0  0  0  0
 14 16  2  0  0  0  0
 11 12  1  0  0  0  0
 11 13  1  0  0  0  0
 11 14  1  0  0  0  0
  9 10  1  0  0  0  0
  9 11  1  0  0  0  0
  9 17  1  0  0  0  0
  7  8  1  0  0  0  0
  7  9  1  0  0  0  0
 21 22  1  0  0  0  0
 21 23  1  0  0  0  0
 21 24  1  0  0  0  0
 19 20  1  0  0  0  0
 19 21  1  0  0  0  0
M  CHG  1  15  -1
M  END
$$$$
default_name
  -OEChem-02102213163D

 24 23  0     1  0  0  0  0  0999 V2000
   -2.8347   -3.7166    0.8034 H   0  0  0  0  0  0  0  0  0  0  0  0
   -2.7728   -2.7096    0.3954 C   0  0  0  0  0  0  0  0  0  0  0  0
   -3.4267   -2.0426    0.9524 H   0  0  0  0  0  0  0  0  0  0  0  0
   -3.0538   -2.7186   -0.6556 H   0  0  0  0  0  0  0  0  0  0  0  0
   -1.3498   -2.2206    0.5184 C   0  0  0  0  0  0  0  0  0  0  0  0
   -0.4997   -2.9426    1.0194 O   0  0  0  0  0  0  0  0  0  0  0  0
   -1.1198   -0.9926    0.0674 N   0  0  0  0  0  0  0  0  0  0  0  0
   -1.8978   -0.4486   -0.2716 H   0  0  0  0  0  0  0  0  0  0  0  0
    0.1693   -0.2866    0.0854 C   0  0  1  0  0  0  0  0  0  0  0  0
    0.9043   -0.8713   -0.4705 H   0  0  0  0  0  0  0  0  0  0  0  0
    0.0106    1.0816   -0.6124 C   0  0  0  0  0  0  0  0  0  0  0  0
    0.5089    1.8424   -0.0091 H   0  0  0  0  0  0  0  0  0  0  0  0
    0.5133    1.0430   -1.5812 H   0  0  0  0  0  0  0  0  0  0  0  0
   -1.4455    1.5292   -0.8146 C   0  0  0  0  0  0  0  0  0  0  0  0
   -1.6997    2.7568   -0.8199 O   0  5  0  0  0  0  0  0  0  0  0  0
   -2.3029    0.6291   -0.9442 O   0  0  0  0  0  0  0  0  0  0  0  0
    0.6664   -0.1450    1.5428 C   0  0  0  0  0  0  0  0  0  0  0  0
    1.8485   -0.3724    1.8265 O   0  0  0  0  0  0  0  0  0  0  0  0
   -0.2161    0.2434    2.4686 N   0  0  0  0  0  0  0  0  0  0  0  0
   -1.1850    0.3219    2.1537 H   0  0  0  0  0  0  0  0  0  0  0  0
    0.0735    0.4128    3.8885 C   0  0  0  0  0  0  0  0  0  0  0  0
    1.0159    0.9483    4.0105 H   0  0  0  0  0  0  0  0  0  0  0  0
   -0.7315    0.9748    4.3613 H   0  0  0  0  0  0  0  0  0  0  0  0
    0.1564   -0.5677    4.3577 H   0  0  0  0  0  0  0  0  0  0  0  0
  5  6  2  0  0  0  0
  5  7  1  0  0  0  0
  2  3  1  0  0  0  0
  2  4  1  0  0  0  0
  2  5  1  0  0  0  0
  1  2  1  0  0  0  0
 17 18  2  0  0  0  0
 17 19  1  0  0  0  0
 14 15  1  0  0  0  0
 14 16  2  0  0  0  0
 11 12  1  0  0  0  0
 11 13  1  0  0  0  0
 11 14  1  0  0  0  0
  9 10  1  0  0  0  0
  9 11  1  0  0  0  0
  9 17  1  0  0  0  0
  7  8  1  0  0  0  0
  7  9  1  0  0  0  0
 21 22  1  0  0  0  0
 21 23  1  0  0  0  0
 21 24  1  0  0  0  0
 19 20  1  0  0  0  0
 19 21  1  0  0  0  0
M  CHG  1  15  -1
M  END
$$$$
default_name
  -OEChem-02102213163D

 24 23  0     1  0  0  0  0  0999 V2000
   -2.8347   -3.7166    0.8034 H   0  0  0  0  0  0  0  0  0  0  0  0
   -2.7728   -2.7096    0.3954 C   0  0  0  0  0  0  0  0  0  0  0  0
   -3.4267   -2.0426    0.9524 H   0  0  0  0  0  0  0  0  0  0  0  0
   -3.0538   -2.7186   -0.6556 H   0  0  0  0  0  0  0  0  0  0  0  0
   -1.3498   -2.2206    0.5184 C   0  0  0  0  0  0  0  0  0  0  0  0
   -0.4997   -2.9426    1.0194 O   0  0  0  0  0  0  0  0  0  0  0  0
   -1.1198   -0.9926    0.0674 N   0  0  0  0  0  0  0  0  0  0  0  0
   -1.8978   -0.4486   -0.2716 H   0  0  0  0  0  0  0  0  0  0  0  0
    0.1693   -0.2866    0.0854 C   0  0  1  0  0  0  0  0  0  0  0  0
    0.9043   -0.8713   -0.4705 H   0  0  0  0  0  0  0  0  0  0  0  0
    0.0106    1.0816   -0.6124 C   0  0  0  0  0  0  0  0  0  0  0  0
    0.5089    1.8424   -0.0091 H   0  0  0  0  0  0  0  0  0  0  0  0
    0.5133    1.0430   -1.5812 H   0  0  0  0  0  0  0  0  0  0  0  0
   -1.4455    1.5292   -0.8146 C   0  0  0  0  0  0  0  0  0  0  0  0
   -1.6689    2.7283   -1.1043 O   0  5  0  0  0  0  0  0  0  0  0  0
   -2.3325    0.6628   -0.6570 O   0  0  0  0  0  0  0  0  0  0  0  0
    0.6664   -0.1450    1.5428 C   0  0  0  0  0  0  0  0  0  0  0  0
    1.8485   -0.3724    1.8265 O   0  0  0  0  0  0  0  0  0  0  0  0
   -0.2161    0.2434    2.4686 N   0  0  0  0  0  0  0  0  0  0  0  0
   -1.1850    0.3219    2.1537 H   0  0  0  0  0  0  0  0  0  0  0  0
    0.0735    0.4128    3.8885 C   0  0  0  0  0  0  0  0  0  0  0  0
    1.0159    0.9483    4.0105 H   0  0  0  0  0  0  0  0  0  0  0  0
   -0.7315    0.9748    4.3613 H   0  0  0  0  0  0  0  0  0  0  0  0
    0.1564   -0.5677    4.3577 H   0  0  0  0  0  0  0  0  0  0  0  0
  5  6  2  0  0  0  0
  5  7  1  0  0  0  0
  2  3  1  0  0  0  0
  2  4  1  0  0  0  0
  2  5  1  0  0  0  0
  1  2  1  0  0  0  0
 17 18  2  0  0  0  0
 17 19  1  0  0  0  0
 14 15  1  0  0  0  0
 14 16  2  0  0  0  0
 11 12  1  0  0  0  0
 11 13  1  0  0  0  0
 11 14  1  0  0  0  0
  9 10  1  0  0  0  0
  9 11  1  0  0  0  0
  9 17  1  0  0  0  0
  7  8  1  0  0  0  0
  7  9  1  0  0  0  0
 21 22  1  0  0  0  0
 21 23  1  0  0  0  0
 21 24  1  0  0  0  0
 19 20  1  0  0  0  0
 19 21  1  0  0  0  0
M  CHG  1  15  -1
M  END
$$$$
default_name
  -OEChem-02102213163D

 24 23  0     1  0  0  0  0  0999 V2000
   -2.8347   -3.7166    0.8034 H   0  0  0  0  0  0  0  0  0  0  0  0
   -2.7728   -2.7096    0.3954 C   0  0  0  0  0  0  0  0  0  0  0  0
   -3.4267   -2.0426    0.9524 H   0  0  0  0  0  0  0  0  0  0  0  0
   -3.0538   -2.7186   -0.6556 H   0  0  0  0  0  0  0  0  0  0  0  0
   -1.3498   -2.2206    0.5184 C   0  0  0  0  0  0  0  0  0  0  0  0
   -0.4997   -2.9426    1.0194 O   0  0  0  0  0  0  0  0  0  0  0  0
   -1.1198   -0.9926    0.0674 N   0  0  0  0  0  0  0  0  0  0  0  0
   -1.8978   -0.4486   -0.2716 H   0  0  0  0  0  0  0  0  0  0  0  0
    0.1693   -0.2866    0.0854 C   0  0  1  0  0  0  0  0  0  0  0  0
    0.9043   -0.8713   -0.4705 H   0  0  0  0  0  0  0  0  0  0  0  0
    0.0106    1.0816   -0.6124 C   0  0  0  0  0  0  0  0  0  0  0  0
    0.7181    1.7849   -0.1696 H   0  0  0  0  0  0  0  0  0  0  0  0
    0.2682    0.9703   -1.6679 H   0  0  0  0  0  0  0  0  0  0  0  0
   -1.3922    1.6982   -0.4955 C   0  0  0  0  0  0  0  0  0  0  0  0
   -1.6049    2.8095   -1.0352 O   0  5  0  0  0  0  0  0  0  0  0  0
   -2.2425    1.0541    0.1559 O   0  0  0  0  0  0  0  0  0  0  0  0
    0.6664   -0.1450    1.5428 C   0  0  0  0  0  0  0  0  0  0  0  0
    1.8485   -0.3724    1.8265 O   0  0  0  0  0  0  0  0  0  0  0  0
   -0.2161    0.2434    2.4686 N   0  0  0  0  0  0  0  0  0  0  0  0
   -1.1850    0.3219    2.1537 H   0  0  0  0  0  0  0  0  0  0  0  0
    0.0735    0.4128    3.8885 C   0  0  0  0  0  0  0  0  0  0  0  0
    1.0159    0.9483    4.0105 H   0  0  0  0  0  0  0  0  0  0  0  0
   -0.7315    0.9748    4.3613 H   0  0  0  0  0  0  0  0  0  0  0  0
    0.1564   -0.5677    4.3577 H   0  0  0  0  0  0  0  0  0  0  0  0
  5  6  2  0  0  0  0
  5  7  1  0  0  0  0
  2  3  1  0  0  0  0
  2  4  1  0  0  0  0
  2  5  1  0  0  0  0
  1  2  1  0  0  0  0
 17 18  2  0  0  0  0
 17 19  1  0  0  0  0
 14 15  1  0  0  0  0
 14 16  2  0  0  0  0
 11 12  1  0  0  0  0
 11 13  1  0  0  0  0
 11 14  1  0  0  0  0
  9 10  1  0  0  0  0
  9 11  1  0  0  0  0
  9 17  1  0  0  0  0
  7  8  1  0  0  0  0
  7  9  1  0  0  0  0
 21 22  1  0  0  0  0
 21 23  1  0  0  0  0
 21 24  1  0  0  0  0
 19 20  1  0  0  0  0
 19 21  1  0  0  0  0
M  CHG  1  15  -1
M  END
$$$$
default_name
  -OEChem-02102213163D

 24 23  0     1  0  0  0  0  0999 V2000
   -2.8347   -3.7166    0.8034 H   0  0  0  0  0  0  0  0  0  0  0  0
   -2.7728   -2.7096    0.3954 C   0  0  0  0  0  0  0  0  0  0  0  0
   -3.4267   -2.0426    0.9524 H   0  0  0  0  0  0  0  0  0  0  0  0
   -3.0538   -2.7186   -0.6556 H   0  0  0  0  0  0  0  0  0  0  0  0
   -1.3498   -2.2206    0.5184 C   0  0  0  0  0  0  0  0  0  0  0  0
   -0.4997   -2.9426    1.0194 O   0  0  0  0  0  0  0  0  0  0  0  0
   -1.1198   -0.9926    0.0674 N   0  0  0  0  0  0  0  0  0  0  0  0
   -1.8978   -0.4486   -0.2716 H   0  0  0  0  0  0  0  0  0  0  0  0
    0.1693   -0.2866    0.0854 C   0  0  1  0  0  0  0  0  0  0  0  0
    0.9043   -0.8713   -0.4705 H   0  0  0  0  0  0  0  0  0  0  0  0
    0.0106    1.0816   -0.6124 C   0  0  0  0  0  0  0  0  0  0  0  0
    0.7181    1.7849   -0.1696 H   0  0  0  0  0  0  0  0  0  0  0  0
    0.2682    0.9703   -1.6679 H   0  0  0  0  0  0  0  0  0  0  0  0
   -1.3922    1.6982   -0.4955 C   0  0  0  0  0  0  0  0  0  0  0  0
   -1.6942    2.6482   -1.2557 O   0  5  0  0  0  0  0  0  0  0  0  0
   -2.1508    1.2210    0.3756 O   0  0  0  0  0  0  0  0  0  0  0  0
    0.6664   -0.1450    1.5428 C   0  0  0  0  0  0  0  0  0  0  0  0
    1.8485   -0.3724    1.8265 O   0  0  0  0  0  0  0  0  0  0  0  0
   -0.2161    0.2434    2.4686 N   0  0  0  0  0  0  0  0  0  0  0  0
   -1.1850    0.3219    2.1537 H   0  0  0  0  0  0  0  0  0  0  0  0
    0.0735    0.4128    3.8885 C   0  0  0  0  0  0  0  0  0  0  0  0
    1.0159    0.9483    4.0105 H   0  0  0  0  0  0  0  0  0  0  0  0
   -0.7315    0.9748    4.3613 H   0  0  0  0  0  0  0  0  0  0  0  0
    0.1564   -0.5677    4.3577 H   0  0  0  0  0  0  0  0  0  0  0  0
  5  6  2  0  0  0  0
  5  7  1  0  0  0  0
  2  3  1  0  0  0  0
  2  4  1  0  0  0  0
  2  5  1  0  0  0  0
  1  2  1  0  0  0  0
 17 18  2  0  0  0  0
 17 19  1  0  0  0  0
 14 15  1  0  0  0  0
 14 16  2  0  0  0  0
 11 12  1  0  0  0  0
 11 13  1  0  0  0  0
 11 14  1  0  0  0  0
  9 10  1  0  0  0  0
  9 11  1  0  0  0  0
  9 17  1  0  0  0  0
  7  8  1  0  0  0  0
  7  9  1  0  0  0  0
 21 22  1  0  0  0  0
 21 23  1  0  0  0  0
 21 24  1  0  0  0  0
 19 20  1  0  0  0  0
 19 21  1  0  0  0  0
M  CHG  1  15  -1
M  END
$$$$
default_name
  -OEChem-02102213163D

 24 23  0     1  0  0  0  0  0999 V2000
   -2.8347   -3.7166    0.8034 H   0  0  0  0  0  0  0  0  0  0  0  0
   -2.7728   -2.7096    0.3954 C   0  0  0  0  0  0  0  0  0  0  0  0
   -3.4267   -2.0426    0.9524 H   0  0  0  0  0  0  0  0  0  0  0  0
   -3.0538   -2.7186   -0.6556 H   0  0  0  0  0  0  0  0  0  0  0  0
   -1.3498   -2.2206    0.5184 C   0  0  0  0  0  0  0  0  0  0  0  0
   -0.4997   -2.9426    1.0194 O   0  0  0  0  0  0  0  0  0  0  0  0
   -1.1198   -0.9926    0.0674 N   0  0  0  0  0  0  0  0  0  0  0  0
   -1.8978   -0.4486   -0.2716 H   0  0  0  0  0  0  0  0  0  0  0  0
    0.1693   -0.2866    0.0854 C   0  0  1  0  0  0  0  0  0  0  0  0
    0.9043   -0.8713   -0.4705 H   0  0  0  0  0  0  0  0  0  0  0  0
    0.0106    1.0816   -0.6124 C   0  0  0  0  0  0  0  0  0  0  0  0
    0.7181    1.7849   -0.1696 H   0  0  0  0  0  0  0  0  0  0  0  0
    0.2682    0.9703   -1.6679 H   0  0  0  0  0  0  0  0  0  0  0  0
   -1.3922    1.6982   -0.4955 C   0  0  0  0  0  0  0  0  0  0  0  0
   -1.8002    2.4385   -1.4213 O   0  5  0  0  0  0  0  0  0  0  0  0
   -2.0427    1.4359    0.5389 O   0  0  0  0  0  0  0  0  0  0  0  0
    0.6664   -0.1450    1.5428 C   0  0  0  0  0  0  0  0  0  0  0  0
    1.8485   -0.3724    1.8265 O   0  0  0  0  0  0  0  0  0  0  0  0
   -0.2161    0.2434    2.4686 N   0  0  0  0  0  0  0  0  0  0  0  0
   -1.1850    0.3219    2.1537 H   0  0  0  0  0  0  0  0  0  0  0  0
    0.0735    0.4128    3.8885 C   0  0  0  0  0  0  0  0  0  0  0  0
    1.0159    0.9483    4.0105 H   0  0  0  0  0  0  0  0  0  0  0  0
   -0.7315    0.9748    4.3613 H   0  0  0  0  0  0  0  0  0  0  0  0
    0.1564   -0.5677    4.3577 H   0  0  0  0  0  0  0  0  0  0  0  0
  5  6  2  0  0  0  0
  5  7  1  0  0  0  0
  2  3  1  0  0  0  0
  2  4  1  0  0  0  0
  2  5  1  0  0  0  0
  1  2  1  0  0  0  0
 17 18  2  0  0  0  0
 17 19  1  0  0  0  0
 14 15  1  0  0  0  0
 14 16  2  0  0  0  0
 11 12  1  0  0  0  0
 11 13  1  0  0  0  0
 11 14  1  0  0  0  0
  9 10  1  0  0  0  0
  9 11  1  0  0  0  0
  9 17  1  0  0  0  0
  7  8  1  0  0  0  0
  7  9  1  0  0  0  0
 21 22  1  0  0  0  0
 21 23  1  0  0  0  0
 21 24  1  0  0  0  0
 19 20  1  0  0  0  0
 19 21  1  0  0  0  0
M  CHG  1  15  -1
M  END
$$$$
default_name
  -OEChem-02102213163D

 24 23  0     1  0  0  0  0  0999 V2000
   -2.8347   -3.7166    0.8034 H   0  0  0  0  0  0  0  0  0  0  0  0
   -2.7728   -2.7096    0.3954 C   0  0  0  0  0  0  0  0  0  0  0  0
   -3.4267   -2.0426    0.9524 H   0  0  0  0  0  0  0  0  0  0  0  0
   -3.0538   -2.7186   -0.6556 H   0  0  0  0  0  0  0  0  0  0  0  0
   -1.3498   -2.2206    0.5184 C   0  0  0  0  0  0  0  0  0  0  0  0
   -0.4997   -2.9426    1.0194 O   0  0  0  0  0  0  0  0  0  0  0  0
   -1.1198   -0.9926    0.0674 N   0  0  0  0  0  0  0  0  0  0  0  0
   -1.8978   -0.4486   -0.2716 H   0  0  0  0  0  0  0  0  0  0  0  0
    0.1693   -0.2866    0.0854 C   0  0  1  0  0  0  0  0  0  0  0  0
    0.9043   -0.8713   -0.4705 H   0  0  0  0  0  0  0  0  0  0  0  0
    0.0106    1.0816   -0.6124 C   0  0  0  0  0  0  0  0  0  0  0  0
    0.7181    1.7849   -0.1696 H   0  0  0  0  0  0  0  0  0  0  0  0
    0.2682    0.9703   -1.6679 H   0  0  0  0  0  0  0  0  0  0  0  0
   -1.3922    1.6982   -0.4955 C   0  0  0  0  0  0  0  0  0  0  0  0
   -1.9157    2.1947   -1.5208 O   0  5  0  0  0  0  0  0  0  0  0  0
   -1.9256    1.6842    0.6347 O   0  0  0  0  0  0  0  0  0  0  0  0
    0.6664   -0.1450    1.5428 C   0  0  0  0  0  0  0  0  0  0  0  0
    1.8485   -0.3724    1.8265 O   0  0  0  0  0  0  0  0  0  0  0  0
   -0.2161    0.2434    2.4686 N   0  0  0  0  0  0  0  0  0  0  0  0
   -1.1850    0.3219    2.1537 H   0  0  0  0  0  0  0  0  0  0  0  0
    0.0735    0.4128    3.8885 C   0  0  0  0  0  0  0  0  0  0  0  0
    1.0159    0.9483    4.0105 H   0  0  0  0  0  0  0  0  0  0  0  0
   -0.7315    0.9748    4.3613 H   0  0  0  0  0  0  0  0  0  0  0  0
    0.1564   -0.5677    4.3577 H   0  0  0  0  0  0  0  0  0  0  0  0
  5  6  2  0  0  0  0
  5  7  1  0  0  0  0
  2  3  1  0  0  0  0
  2  4  1  0  0  0  0
  2  5  1  0  0  0  0
  1  2  1  0  0  0  0
 17 18  2  0  0  0  0
 17 19  1  0  0  0  0
 14 15  1  0  0  0  0
 14 16  2  0  0  0  0
 11 12  1  0  0  0  0
 11 13  1  0  0  0  0
 11 14  1  0  0  0  0
  9 10  1  0  0  0  0
  9 11  1  0  0  0  0
  9 17  1  0  0  0  0
  7  8  1  0  0  0  0
  7  9  1  0  0  0  0
 21 22  1  0  0  0  0
 21 23  1  0  0  0  0
 21 24  1  0  0  0  0
 19 20  1  0  0  0  0
 19 21  1  0  0  0  0
M  CHG  1  15  -1
M  END
$$$$
default_name
  -OEChem-02102213163D

 24 23  0     1  0  0  0  0  0999 V2000
   -2.8347   -3.7166    0.8034 H   0  0  0  0  0  0  0  0  0  0  0  0
   -2.7728   -2.7096    0.3954 C   0  0  0  0  0  0  0  0  0  0  0  0
   -3.4267   -2.0426    0.9524 H   0  0  0  0  0  0  0  0  0  0  0  0
   -3.0538   -2.7186   -0.6556 H   0  0  0  0  0  0  0  0  0  0  0  0
   -1.3498   -2.2206    0.5184 C   0  0  0  0  0  0  0  0  0  0  0  0
   -0.4997   -2.9426    1.0194 O   0  0  0  0  0  0  0  0  0  0  0  0
   -1.1198   -0.9926    0.0674 N   0  0  0  0  0  0  0  0  0  0  0  0
   -1.8978   -0.4486   -0.2716 H   0  0  0  0  0  0  0  0  0  0  0  0
    0.1693   -0.2866    0.0854 C   0  0  1  0  0  0  0  0  0  0  0  0
    0.9043   -0.8713   -0.4705 H   0  0  0  0  0  0  0  0  0  0  0  0
    0.0106    1.0816   -0.6124 C   0  0  0  0  0  0  0  0  0  0  0  0
    0.7181    1.7849   -0.1696 H   0  0  0  0  0  0  0  0  0  0  0  0
    0.2682    0.9703   -1.6679 H   0  0  0  0  0  0  0  0  0  0  0  0
   -1.3922    1.6982   -0.4955 C   0  0  0  0  0  0  0  0  0  0  0  0
   -2.0327    1.9334   -1.5472 O   0  5  0  0  0  0  0  0  0  0  0  0
   -1.8075    1.9489    0.6564 O   0  0  0  0  0  0  0  0  0  0  0  0
    0.6664   -0.1450    1.5428 C   0  0  0  0  0  0  0  0  0  0  0  0
    1.8485   -0.3724    1.8265 O   0  0  0  0  0  0  0  0  0  0  0  0
   -0.2161    0.2434    2.4686 N   0  0  0  0  0  0  0  0  0  0  0  0
   -1.1850    0.3219    2.1537 H   0  0  0  0  0  0  0  0  0  0  0  0
    0.0735    0.4128    3.8885 C   0  0  0  0  0  0  0  0  0  0  0  0
    1.0159    0.9483    4.0105 H   0  0  0  0  0  0  0  0  0  0  0  0
   -0.7315    0.9748    4.3613 H   0  0  0  0  0  0  0  0  0  0  0  0
    0.1564   -0.5677    4.3577 H   0  0  0  0  0  0  0  0  0  0  0  0
  5  6  2  0  0  0  0
  5  7  1  0  0  0  0
  2  3  1  0  0  0  0
  2  4  1  0  0  0  0
  2  5  1  0  0  0  0
  1  2  1  0  0  0  0
 17 18  2  0  0  0  0
 17 19  1  0  0  0  0
 14 15  1  0  0  0  0
 14 16  2  0  0  0  0
 11 12  1  0  0  0  0
 11 13  1  0  0  0  0
 11 14  1  0  0  0  0
  9 10  1  0  0  0  0
  9 11  1  0  0  0  0
  9 17  1  0  0  0  0
  7  8  1  0  0  0  0
  7  9  1  0  0  0  0
 21 22  1  0  0  0  0
 21 23  1  0  0  0  0
 21 24  1  0  0  0  0
 19 20  1  0  0  0  0
 19 21  1  0  0  0  0
M  CHG  1  15  -1
M  END
$$$$
default_name
  -OEChem-02102213163D

 24 23  0     1  0  0  0  0  0999 V2000
   -2.8347   -3.7166    0.8034 H   0  0  0  0  0  0  0  0  0  0  0  0
   -2.7728   -2.7096    0.3954 C   0  0  0  0  0  0  0  0  0  0  0  0
   -3.4267   -2.0426    0.9524 H   0  0  0  0  0  0  0  0  0  0  0  0
   -3.0538   -2.7186   -0.6556 H   0  0  0  0  0  0  0  0  0  0  0  0
   -1.3498   -2.2206    0.5184 C   0  0  0  0  0  0  0  0  0  0  0  0
   -0.4997   -2.9426    1.0194 O   0  0  0  0  0  0  0  0  0  0  0  0
   -1.1198   -0.9926    0.0674 N   0  0  0  0  0  0  0  0  0  0  0  0
   -1.8978   -0.4486   -0.2716 H   0  0  0  0  0  0  0  0  0  0  0  0
    0.1693   -0.2866    0.0854 C   0  0  1  0  0  0  0  0  0  0  0  0
    0.9043   -0.8713   -0.4705 H   0  0  0  0  0  0  0  0  0  0  0  0
    0.0106    1.0816   -0.6124 C   0  0  0  0  0  0  0  0  0  0  0  0
    0.7181    1.7849   -0.1696 H   0  0  0  0  0  0  0  0  0  0  0  0
    0.2682    0.9703   -1.6679 H   0  0  0  0  0  0  0  0  0  0  0  0
   -1.3922    1.6982   -0.4955 C   0  0  0  0  0  0  0  0  0  0  0  0
   -2.1433    1.6725   -1.4989 O   0  5  0  0  0  0  0  0  0  0  0  0
   -1.6963    2.2121    0.6025 O   0  0  0  0  0  0  0  0  0  0  0  0
    0.6664   -0.1450    1.5428 C   0  0  0  0  0  0  0  0  0  0  0  0
    1.8485   -0.3724    1.8265 O   0  0  0  0  0  0  0  0  0  0  0  0
   -0.2161    0.2434    2.4686 N   0  0  0  0  0  0  0  0  0  0  0  0
   -1.1850    0.3219    2.1537 H   0  0  0  0  0  0  0  0  0  0  0  0
    0.0735    0.4128    3.8885 C   0  0  0  0  0  0  0  0  0  0  0  0
    1.0159    0.9483    4.0105 H   0  0  0  0  0  0  0  0  0  0  0  0
   -0.7315    0.9748    4.3613 H   0  0  0  0  0  0  0  0  0  0  0  0
    0.1564   -0.5677    4.3577 H   0  0  0  0  0  0  0  0  0  0  0  0
  5  6  2  0  0  0  0
  5  7  1  0  0  0  0
  2  3  1  0  0  0  0
  2  4  1  0  0  0  0
  2  5  1  0  0  0  0
  1  2  1  0  0  0  0
 17 18  2  0  0  0  0
 17 19  1  0  0  0  0
 14 15  1  0  0  0  0
 14 16  2  0  0  0  0
 11 12  1  0  0  0  0
 11 13  1  0  0  0  0
 11 14  1  0  0  0  0
  9 10  1  0  0  0  0
  9 11  1  0  0  0  0
  9 17  1  0  0  0  0
  7  8  1  0  0  0  0
  7  9  1  0  0  0  0
 21 22  1  0  0  0  0
 21 23  1  0  0  0  0
 21 24  1  0  0  0  0
 19 20  1  0  0  0  0
 19 21  1  0  0  0  0
M  CHG  1  15  -1
M  END
$$$$
default_name
  -OEChem-02102213163D

 24 23  0     1  0  0  0  0  0999 V2000
   -2.8347   -3.7166    0.8034 H   0  0  0  0  0  0  0  0  0  0  0  0
   -2.7728   -2.7096    0.3954 C   0  0  0  0  0  0  0  0  0  0  0  0
   -3.4267   -2.0426    0.9524 H   0  0  0  0  0  0  0  0  0  0  0  0
   -3.0538   -2.7186   -0.6556 H   0  0  0  0  0  0  0  0  0  0  0  0
   -1.3498   -2.2206    0.5184 C   0  0  0  0  0  0  0  0  0  0  0  0
   -0.4997   -2.9426    1.0194 O   0  0  0  0  0  0  0  0  0  0  0  0
   -1.1198   -0.9926    0.0674 N   0  0  0  0  0  0  0  0  0  0  0  0
   -1.8978   -0.4486   -0.2716 H   0  0  0  0  0  0  0  0  0  0  0  0
    0.1693   -0.2866    0.0854 C   0  0  1  0  0  0  0  0  0  0  0  0
    0.9043   -0.8713   -0.4705 H   0  0  0  0  0  0  0  0  0  0  0  0
    0.0106    1.0816   -0.6124 C   0  0  0  0  0  0  0  0  0  0  0  0
    0.7181    1.7849   -0.1696 H   0  0  0  0  0  0  0  0  0  0  0  0
    0.2682    0.9703   -1.6679 H   0  0  0  0  0  0  0  0  0  0  0  0
   -1.3922    1.6982   -0.4955 C   0  0  0  0  0  0  0  0  0  0  0  0
   -2.2401    1.4297   -1.3791 O   0  5  0  0  0  0  0  0  0  0  0  0
   -1.5997    2.4557    0.4767 O   0  0  0  0  0  0  0  0  0  0  0  0
    0.6664   -0.1450    1.5428 C   0  0  0  0  0  0  0  0  0  0  0  0
    1.8485   -0.3724    1.8265 O   0  0  0  0  0  0  0  0  0  0  0  0
   -0.2161    0.2434    2.4686 N   0  0  0  0  0  0  0  0  0  0  0  0
   -1.1850    0.3219    2.1537 H   0  0  0  0  0  0  0  0  0  0  0  0
    0.0735    0.4128    3.8885 C   0  0  0  0  0  0  0  0  0  0  0  0
    1.0159    0.9483    4.0105 H   0  0  0  0  0  0  0  0  0  0  0  0
   -0.7315    0.9748    4.3613 H   0  0  0  0  0  0  0  0  0  0  0  0
    0.1564   -0.5677    4.3577 H   0  0  0  0  0  0  0  0  0  0  0  0
  5  6  2  0  0  0  0
  5  7  1  0  0  0  0
  2  3  1  0  0  0  0
  2  4  1  0  0  0  0
  2  5  1  0  0  0  0
  1  2  1  0  0  0  0
 17 18  2  0  0  0  0
 17 19  1  0  0  0  0
 14 15  1  0  0  0  0
 14 16  2  0  0  0  0
 11 12  1  0  0  0  0
 11 13  1  0  0  0  0
 11 14  1  0  0  0  0
  9 10  1  0  0  0  0
  9 11  1  0  0  0  0
  9 17  1  0  0  0  0
  7  8  1  0  0  0  0
  7  9  1  0  0  0  0
 21 22  1  0  0  0  0
 21 23  1  0  0  0  0
 21 24  1  0  0  0  0
 19 20  1  0  0  0  0
 19 21  1  0  0  0  0
M  CHG  1  15  -1
M  END
$$$$
default_name
  -OEChem-02102213163D

 24 23  0     1  0  0  0  0  0999 V2000
   -2.8347   -3.7166    0.8034 H   0  0  0  0  0  0  0  0  0  0  0  0
   -2.7728   -2.7096    0.3954 C   0  0  0  0  0  0  0  0  0  0  0  0
   -3.4267   -2.0426    0.9524 H   0  0  0  0  0  0  0  0  0  0  0  0
   -3.0538   -2.7186   -0.6556 H   0  0  0  0  0  0  0  0  0  0  0  0
   -1.3498   -2.2206    0.5184 C   0  0  0  0  0  0  0  0  0  0  0  0
   -0.4997   -2.9426    1.0194 O   0  0  0  0  0  0  0  0  0  0  0  0
   -1.1198   -0.9926    0.0674 N   0  0  0  0  0  0  0  0  0  0  0  0
   -1.8978   -0.4486   -0.2716 H   0  0  0  0  0  0  0  0  0  0  0  0
    0.1693   -0.2866    0.0854 C   0  0  1  0  0  0  0  0  0  0  0  0
    0.9043   -0.8713   -0.4705 H   0  0  0  0  0  0  0  0  0  0  0  0
    0.0106    1.0816   -0.6124 C   0  0  0  0  0  0  0  0  0  0  0  0
    0.7181    1.7849   -0.1696 H   0  0  0  0  0  0  0  0  0  0  0  0
    0.2682    0.9703   -1.6679 H   0  0  0  0  0  0  0  0  0  0  0  0
   -1.3922    1.6982   -0.4955 C   0  0  0  0  0  0  0  0  0  0  0  0
   -2.3163    1.2216   -1.1960 O   0  5  0  0  0  0  0  0  0  0  0  0
   -1.5242    2.6633    0.2876 O   0  0  0  0  0  0  0  0  0  0  0  0
    0.6664   -0.1450    1.5428 C   0  0  0  0  0  0  0  0  0  0  0  0
    1.8485   -0.3724    1.8265 O   0  0  0  0  0  0  0  0  0  0  0  0
   -0.2161    0.2434    2.4686 N   0  0  0  0  0  0  0  0  0  0  0  0
   -1.1850    0.3219    2.1537 H   0  0  0  0  0  0  0  0  0  0  0  0
    0.0735    0.4128    3.8885 C   0  0  0  0  0  0  0  0  0  0  0  0
    1.0159    0.9483    4.0105 H   0  0  0  0  0  0  0  0  0  0  0  0
   -0.7315    0.9748    4.3613 H   0  0  0  0  0  0  0  0  0  0  0  0
    0.1564   -0.5677    4.3577 H   0  0  0  0  0  0  0  0  0  0  0  0
  5  6  2  0  0  0  0
  5  7  1  0  0  0  0
  2  3  1  0  0  0  0
  2  4  1  0  0  0  0
  2  5  1  0  0  0  0
  1  2  1  0  0  0  0
 17 18  2  0  0  0  0
 17 19  1  0  0  0  0
 14 15  1  0  0  0  0
 14 16  2  0  0  0  0
 11 12  1  0  0  0  0
 11 13  1  0  0  0  0
 11 14  1  0  0  0  0
  9 10  1  0  0  0  0
  9 11  1  0  0  0  0
  9 17  1  0  0  0  0
  7  8  1  0  0  0  0
  7  9  1  0  0  0  0
 21 22  1  0  0  0  0
 21 23  1  0  0  0  0
 21 24  1  0  0  0  0
 19 20  1  0  0  0  0
 19 21  1  0  0  0  0
M  CHG  1  15  -1
M  END
$$$$
default_name
  -OEChem-02102213163D

 24 23  0     1  0  0  0  0  0999 V2000
   -2.8347   -3.7166    0.8034 H   0  0  0  0  0  0  0  0  0  0  0  0
   -2.7728   -2.7096    0.3954 C   0  0  0  0  0  0  0  0  0  0  0  0
   -3.4267   -2.0426    0.9524 H   0  0  0  0  0  0  0  0  0  0  0  0
   -3.0538   -2.7186   -0.6556 H   0  0  0  0  0  0  0  0  0  0  0  0
   -1.3498   -2.2206    0.5184 C   0  0  0  0  0  0  0  0  0  0  0  0
   -0.4997   -2.9426    1.0194 O   0  0  0  0  0  0  0  0  0  0  0  0
   -1.1198   -0.9926    0.0674 N   0  0  0  0  0  0  0  0  0  0  0  0
   -1.8978   -0.4486   -0.2716 H   0  0  0  0  0  0  0  0  0  0  0  0
    0.1693   -0.2866    0.0854 C   0  0  1  0  0  0  0  0  0  0  0  0
    0.9043   -0.8713   -0.4705 H   0  0  0  0  0  0  0  0  0  0  0  0
    0.0106    1.0816   -0.6124 C   0  0  0  0  0  0  0  0  0  0  0  0
    0.7181    1.7849   -0.1696 H   0  0  0  0  0  0  0  0  0  0  0  0
    0.2682    0.9703   -1.6679 H   0  0  0  0  0  0  0  0  0  0  0  0
   -1.3922    1.6982   -0.4955 C   0  0  0  0  0  0  0  0  0  0  0  0
   -2.3668    1.0624   -0.9620 O   0  5  0  0  0  0  0  0  0  0  0  0
   -1.4750    2.8206    0.0481 O   0  0  0  0  0  0  0  0  0  0  0  0
    0.6664   -0.1450    1.5428 C   0  0  0  0  0  0  0  0  0  0  0  0
    1.8485   -0.3724    1.8265 O   0  0  0  0  0  0  0  0  0  0  0  0
   -0.2161    0.2434    2.4686 N   0  0  0  0  0  0  0  0  0  0  0  0
   -1.1850    0.3219    2.1537 H   0  0  0  0  0  0  0  0  0  0  0  0
    0.0735    0.4128    3.8885 C   0  0  0  0  0  0  0  0  0  0  0  0
    1.0159    0.9483    4.0105 H   0  0  0  0  0  0  0  0  0  0  0  0
   -0.7315    0.9748    4.3613 H   0  0  0  0  0  0  0  0  0  0  0  0
    0.1564   -0.5677    4.3577 H   0  0  0  0  0  0  0  0  0  0  0  0
  5  6  2  0  0  0  0
  5  7  1  0  0  0  0
  2  3  1  0  0  0  0
  2  4  1  0  0  0  0
  2  5  1  0  0  0  0
  1  2  1  0  0  0  0
 17 18  2  0  0  0  0
 17 19  1  0  0  0  0
 14 15  1  0  0  0  0
 14 16  2  0  0  0  0
 11 12  1  0  0  0  0
 11 13  1  0  0  0  0
 11 14  1  0  0  0  0
  9 10  1  0  0  0  0
  9 11  1  0  0  0  0
  9 17  1  0  0  0  0
  7  8  1  0  0  0  0
  7  9  1  0  0  0  0
 21 22  1  0  0  0  0
 21 23  1  0  0  0  0
 21 24  1  0  0  0  0
 19 20  1  0  0  0  0
 19 21  1  0  0  0  0
M  CHG  1  15  -1
M  END
$$$$
default_name
  -OEChem-02102213163D

 24 23  0     1  0  0  0  0  0999 V2000
   -2.8347   -3.7166    0.8034 H   0  0  0  0  0  0  0  0  0  0  0  0
   -2.7728   -2.7096    0.3954 C   0  0  0  0  0  0  0  0  0  0  0  0
   -3.4267   -2.0426    0.9524 H   0  0  0  0  0  0  0  0  0  0  0  0
   -3.0538   -2.7186   -0.6556 H   0  0  0  0  0  0  0  0  0  0  0  0
   -1.3498   -2.2206    0.5184 C   0  0  0  0  0  0  0  0  0  0  0  0
   -0.4997   -2.9426    1.0194 O   0  0  0  0  0  0  0  0  0  0  0  0
   -1.1198   -0.9926    0.0674 N   0  0  0  0  0  0  0  0  0  0  0  0
   -1.8978   -0.4486   -0.2716 H   0  0  0  0  0  0  0  0  0  0  0  0
    0.1693   -0.2866    0.0854 C   0  0  1  0  0  0  0  0  0  0  0  0
    0.9043   -0.8713   -0.4705 H   0  0  0  0  0  0  0  0  0  0  0  0
    0.0106    1.0816   -0.6124 C   0  0  0  0  0  0  0  0  0  0  0  0
    0.7181    1.7849   -0.1696 H   0  0  0  0  0  0  0  0  0  0  0  0
    0.2682    0.9703   -1.6679 H   0  0  0  0  0  0  0  0  0  0  0  0
   -1.3922    1.6982   -0.4955 C   0  0  0  0  0  0  0  0  0  0  0  0
   -2.3881    0.9628   -0.6931 O   0  5  0  0  0  0  0  0  0  0  0  0
   -1.4555    2.9169   -0.2255 O   0  0  0  0  0  0  0  0  0  0  0  0
    0.6664   -0.1450    1.5428 C   0  0  0  0  0  0  0  0  0  0  0  0
    1.8485   -0.3724    1.8265 O   0  0  0  0  0  0  0  0  0  0  0  0
   -0.2161    0.2434    2.4686 N   0  0  0  0  0  0  0  0  0  0  0  0
   -1.1850    0.3219    2.1537 H   0  0  0  0  0  0  0  0  0  0  0  0
    0.0735    0.4128    3.8885 C   0  0  0  0  0  0  0  0  0  0  0  0
    1.0159    0.9483    4.0105 H   0  0  0  0  0  0  0  0  0  0  0  0
   -0.7315    0.9748    4.3613 H   0  0  0  0  0  0  0  0  0  0  0  0
    0.1564   -0.5677    4.3577 H   0  0  0  0  0  0  0  0  0  0  0  0
  5  6  2  0  0  0  0
  5  7  1  0  0  0  0
  2  3  1  0  0  0  0
  2  4  1  0  0  0  0
  2  5  1  0  0  0  0
  1  2  1  0  0  0  0
 17 18  2  0  0  0  0
 17 19  1  0  0  0  0
 14 15  1  0  0  0  0
 14 16  2  0  0  0  0
 11 12  1  0  0  0  0
 11 13  1  0  0  0  0
 11 14  1  0  0  0  0
  9 10  1  0  0  0  0
  9 11  1  0  0  0  0
  9 17  1  0  0  0  0
  7  8  1  0  0  0  0
  7  9  1  0  0  0  0
 21 22  1  0  0  0  0
 21 23  1  0  0  0  0
 21 24  1  0  0  0  0
 19 20  1  0  0  0  0
 19 21  1  0  0  0  0
M  CHG  1  15  -1
M  END
$$$$
default_name
  -OEChem-02102213163D

 24 23  0     1  0  0  0  0  0999 V2000
   -2.8347   -3.7166    0.8034 H   0  0  0  0  0  0  0  0  0  0  0  0
   -2.7728   -2.7096    0.3954 C   0  0  0  0  0  0  0  0  0  0  0  0
   -3.4267   -2.0426    0.9524 H   0  0  0  0  0  0  0  0  0  0  0  0
   -3.0538   -2.7186   -0.6556 H   0  0  0  0  0  0  0  0  0  0  0  0
   -1.3498   -2.2206    0.5184 C   0  0  0  0  0  0  0  0  0  0  0  0
   -0.4997   -2.9426    1.0194 O   0  0  0  0  0  0  0  0  0  0  0  0
   -1.1198   -0.9926    0.0674 N   0  0  0  0  0  0  0  0  0  0  0  0
   -1.8978   -0.4486   -0.2716 H   0  0  0  0  0  0  0  0  0  0  0  0
    0.1693   -0.2866    0.0854 C   0  0  1  0  0  0  0  0  0  0  0  0
    0.9043   -0.8713   -0.4705 H   0  0  0  0  0  0  0  0  0  0  0  0
    0.0106    1.0816   -0.6124 C   0  0  0  0  0  0  0  0  0  0  0  0
    0.7181    1.7849   -0.1696 H   0  0  0  0  0  0  0  0  0  0  0  0
    0.2682    0.9703   -1.6679 H   0  0  0  0  0  0  0  0  0  0  0  0
   -1.3922    1.6982   -0.4955 C   0  0  0  0  0  0  0  0  0  0  0  0
   -2.3789    0.9298   -0.4077 O   0  5  0  0  0  0  0  0  0  0  0  0
   -1.4670    2.9456   -0.5146 O   0  0  0  0  0  0  0  0  0  0  0  0
    0.6664   -0.1450    1.5428 C   0  0  0  0  0  0  0  0  0  0  0  0
    1.8485   -0.3724    1.8265 O   0  0  0  0  0  0  0  0  0  0  0  0
   -0.2161    0.2434    2.4686 N   0  0  0  0  0  0  0  0  0  0  0  0
   -1.1850    0.3219    2.1537 H   0  0  0  0  0  0  0  0  0  0  0  0
    0.0735    0.4128    3.8885 C   0  0  0  0  0  0  0  0  0  0  0  0
    1.0159    0.9483    4.0105 H   0  0  0  0  0  0  0  0  0  0  0  0
   -0.7315    0.9748    4.3613 H   0  0  0  0  0  0  0  0  0  0  0  0
    0.1564   -0.5677    4.3577 H   0  0  0  0  0  0  0  0  0  0  0  0
  5  6  2  0  0  0  0
  5  7  1  0  0  0  0
  2  3  1  0  0  0  0
  2  4  1  0  0  0  0
  2  5  1  0  0  0  0
  1  2  1  0  0  0  0
 17 18  2  0  0  0  0
 17 19  1  0  0  0  0
 14 15  1  0  0  0  0
 14 16  2  0  0  0  0
 11 12  1  0  0  0  0
 11 13  1  0  0  0  0
 11 14  1  0  0  0  0
  9 10  1  0  0  0  0
  9 11  1  0  0  0  0
  9 17  1  0  0  0  0
  7  8  1  0  0  0  0
  7  9  1  0  0  0  0
 21 22  1  0  0  0  0
 21 23  1  0  0  0  0
 21 24  1  0  0  0  0
 19 20  1  0  0  0  0
 19 21  1  0  0  0  0
M  CHG  1  15  -1
M  END
$$$$
default_name
  -OEChem-02102213163D

 24 23  0     1  0  0  0  0  0999 V2000
   -2.8347   -3.7166    0.8034 H   0  0  0  0  0  0  0  0  0  0  0  0
   -2.7728   -2.7096    0.3954 C   0  0  0  0  0  0  0  0  0  0  0  0
   -3.4267   -2.0426    0.9524 H   0  0  0  0  0  0  0  0  0  0  0  0
   -3.0538   -2.7186   -0.6556 H   0  0  0  0  0  0  0  0  0  0  0  0
   -1.3498   -2.2206    0.5184 C   0  0  0  0  0  0  0  0  0  0  0  0
   -0.4997   -2.9426    1.0194 O   0  0  0  0  0  0  0  0  0  0  0  0
   -1.1198   -0.9926    0.0674 N   0  0  0  0  0  0  0  0  0  0  0  0
   -1.8978   -0.4486   -0.2716 H   0  0  0  0  0  0  0  0  0  0  0  0
    0.1693   -0.2866    0.0854 C   0  0  1  0  0  0  0  0  0  0  0  0
    0.9043   -0.8713   -0.4705 H   0  0  0  0  0  0  0  0  0  0  0  0
    0.0106    1.0816   -0.6124 C   0  0  0  0  0  0  0  0  0  0  0  0
    0.7181    1.7849   -0.1696 H   0  0  0  0  0  0  0  0  0  0  0  0
    0.2682    0.9703   -1.6679 H   0  0  0  0  0  0  0  0  0  0  0  0
   -1.3922    1.6982   -0.4955 C   0  0  0  0  0  0  0  0  0  0  0  0
   -2.3396    0.9655   -0.1252 O   0  5  0  0  0  0  0  0  0  0  0  0
   -1.5086    2.9049   -0.7995 O   0  0  0  0  0  0  0  0  0  0  0  0
    0.6664   -0.1450    1.5428 C   0  0  0  0  0  0  0  0  0  0  0  0
    1.8485   -0.3724    1.8265 O   0  0  0  0  0  0  0  0  0  0  0  0
   -0.2161    0.2434    2.4686 N   0  0  0  0  0  0  0  0  0  0  0  0
   -1.1850    0.3219    2.1537 H   0  0  0  0  0  0  0  0  0  0  0  0
    0.0735    0.4128    3.8885 C   0  0  0  0  0  0  0  0  0  0  0  0
    1.0159    0.9483    4.0105 H   0  0  0  0  0  0  0  0  0  0  0  0
   -0.7315    0.9748    4.3613 H   0  0  0  0  0  0  0  0  0  0  0  0
    0.1564   -0.5677    4.3577 H   0  0  0  0  0  0  0  0  0  0  0  0
  5  6  2  0  0  0  0
  5  7  1  0  0  0  0
  2  3  1  0  0  0  0
  2  4  1  0  0  0  0
  2  5  1  0  0  0  0
  1  2  1  0  0  0  0
 17 18  2  0  0  0  0
 17 19  1  0  0  0  0
 14 15  1  0  0  0  0
 14 16  2  0  0  0  0
 11 12  1  0  0  0  0
 11 13  1  0  0  0  0
 11 14  1  0  0  0  0
  9 10  1  0  0  0  0
  9 11  1  0  0  0  0
  9 17  1  0  0  0  0
  7  8  1  0  0  0  0
  7  9  1  0  0  0  0
 21 22  1  0  0  0  0
 21 23  1  0  0  0  0
 21 24  1  0  0  0  0
 19 20  1  0  0  0  0
 19 21  1  0  0  0  0
M  CHG  1  15  -1
M  END
$$$$
default_name
  -OEChem-02102213163D

 24 23  0     1  0  0  0  0  0999 V2000
   -2.8347   -3.7166    0.8034 H   0  0  0  0  0  0  0  0  0  0  0  0
   -2.7728   -2.7096    0.3954 C   0  0  0  0  0  0  0  0  0  0  0  0
   -3.4267   -2.0426    0.9524 H   0  0  0  0  0  0  0  0  0  0  0  0
   -3.0538   -2.7186   -0.6556 H   0  0  0  0  0  0  0  0  0  0  0  0
   -1.3498   -2.2206    0.5184 C   0  0  0  0  0  0  0  0  0  0  0  0
   -0.4997   -2.9426    1.0194 O   0  0  0  0  0  0  0  0  0  0  0  0
   -1.1198   -0.9926    0.0674 N   0  0  0  0  0  0  0  0  0  0  0  0
   -1.8978   -0.4486   -0.2716 H   0  0  0  0  0  0  0  0  0  0  0  0
    0.1693   -0.2866    0.0854 C   0  0  1  0  0  0  0  0  0  0  0  0
    0.9043   -0.8713   -0.4705 H   0  0  0  0  0  0  0  0  0  0  0  0
    0.0106    1.0816   -0.6124 C   0  0  0  0  0  0  0  0  0  0  0  0
    0.7181    1.7849   -0.1696 H   0  0  0  0  0  0  0  0  0  0  0  0
    0.2682    0.9703   -1.6679 H   0  0  0  0  0  0  0  0  0  0  0  0
   -1.3922    1.6982   -0.4955 C   0  0  0  0  0  0  0  0  0  0  0  0
   -2.2731    1.0675    0.1353 O   0  5  0  0  0  0  0  0  0  0  0  0
   -1.5776    2.7974   -1.0606 O   0  0  0  0  0  0  0  0  0  0  0  0
    0.6664   -0.1450    1.5428 C   0  0  0  0  0  0  0  0  0  0  0  0
    1.8485   -0.3724    1.8265 O   0  0  0  0  0  0  0  0  0  0  0  0
   -0.2161    0.2434    2.4686 N   0  0  0  0  0  0  0  0  0  0  0  0
   -1.1850    0.3219    2.1537 H   0  0  0  0  0  0  0  0  0  0  0  0
    0.0735    0.4128    3.8885 C   0  0  0  0  0  0  0  0  0  0  0  0
    1.0159    0.9483    4.0105 H   0  0  0  0  0  0  0  0  0  0  0  0
   -0.7315    0.9748    4.3613 H   0  0  0  0  0  0  0  0  0  0  0  0
    0.1564   -0.5677    4.3577 H   0  0  0  0  0  0  0  0  0  0  0  0
  5  6  2  0  0  0  0
  5  7  1  0  0  0  0
  2  3  1  0  0  0  0
  2  4  1  0  0  0  0
  2  5  1  0  0  0  0
  1  2  1  0  0  0  0
 17 18  2  0  0  0  0
 17 19  1  0  0  0  0
 14 15  1  0  0  0  0
 14 16  2  0  0  0  0
 11 12  1  0  0  0  0
 11 13  1  0  0  0  0
 11 14  1  0  0  0  0
  9 10  1  0  0  0  0
  9 11  1  0  0  0  0
  9 17  1  0  0  0  0
  7  8  1  0  0  0  0
  7  9  1  0  0  0  0
 21 22  1  0  0  0  0
 21 23  1  0  0  0  0
 21 24  1  0  0  0  0
 19 20  1  0  0  0  0
 19 21  1  0  0  0  0
M  CHG  1  15  -1
M  END
$$$$
default_name
  -OEChem-02102213163D

 24 23  0     1  0  0  0  0  0999 V2000
   -2.8347   -3.7166    0.8034 H   0  0  0  0  0  0  0  0  0  0  0  0
   -2.7728   -2.7096    0.3954 C   0  0  0  0  0  0  0  0  0  0  0  0
   -3.4267   -2.0426    0.9524 H   0  0  0  0  0  0  0  0  0  0  0  0
   -3.0538   -2.7186   -0.6556 H   0  0  0  0  0  0  0  0  0  0  0  0
   -1.3498   -2.2206    0.5184 C   0  0  0  0  0  0  0  0  0  0  0  0
   -0.4997   -2.9426    1.0194 O   0  0  0  0  0  0  0  0  0  0  0  0
   -1.1198   -0.9926    0.0674 N   0  0  0  0  0  0  0  0  0  0  0  0
   -1.8978   -0.4486   -0.2716 H   0  0  0  0  0  0  0  0  0  0  0  0
    0.1693   -0.2866    0.0854 C   0  0  1  0  0  0  0  0  0  0  0  0
    0.9043   -0.8713   -0.4705 H   0  0  0  0  0  0  0  0  0  0  0  0
    0.0106    1.0816   -0.6124 C   0  0  0  0  0  0  0  0  0  0  0  0
    0.7181    1.7849   -0.1696 H   0  0  0  0  0  0  0  0  0  0  0  0
    0.2682    0.9703   -1.6679 H   0  0  0  0  0  0  0  0  0  0  0  0
   -1.3922    1.6982   -0.4955 C   0  0  0  0  0  0  0  0  0  0  0  0
   -2.1838    1.2289    0.3558 O   0  5  0  0  0  0  0  0  0  0  0  0
   -1.6693    2.6306   -1.2804 O   0  0  0  0  0  0  0  0  0  0  0  0
    0.6664   -0.1450    1.5428 C   0  0  0  0  0  0  0  0  0  0  0  0
    1.8485   -0.3724    1.8265 O   0  0  0  0  0  0  0  0  0  0  0  0
   -0.2161    0.2434    2.4686 N   0  0  0  0  0  0  0  0  0  0  0  0
   -1.1850    0.3219    2.1537 H   0  0  0  0  0  0  0  0  0  0  0  0
    0.0735    0.4128    3.8885 C   0  0  0  0  0  0  0  0  0  0  0  0
    1.0159    0.9483    4.0105 H   0  0  0  0  0  0  0  0  0  0  0  0
   -0.7315    0.9748    4.3613 H   0  0  0  0  0  0  0  0  0  0  0  0
    0.1564   -0.5677    4.3577 H   0  0  0  0  0  0  0  0  0  0  0  0
  5  6  2  0  0  0  0
  5  7  1  0  0  0  0
  2  3  1  0  0  0  0
  2  4  1  0  0  0  0
  2  5  1  0  0  0  0
  1  2  1  0  0  0  0
 17 18  2  0  0  0  0
 17 19  1  0  0  0  0
 14 15  1  0  0  0  0
 14 16  2  0  0  0  0
 11 12  1  0  0  0  0
 11 13  1  0  0  0  0
 11 14  1  0  0  0  0
  9 10  1  0  0  0  0
  9 11  1  0  0  0  0
  9 17  1  0  0  0  0
  7  8  1  0  0  0  0
  7  9  1  0  0  0  0
 21 22  1  0  0  0  0
 21 23  1  0  0  0  0
 21 24  1  0  0  0  0
 19 20  1  0  0  0  0
 19 21  1  0  0  0  0
M  CHG  1  15  -1
M  END
$$$$
default_name
  -OEChem-02102213163D

 24 23  0     1  0  0  0  0  0999 V2000
   -2.8347   -3.7166    0.8034 H   0  0  0  0  0  0  0  0  0  0  0  0
   -2.7728   -2.7096    0.3954 C   0  0  0  0  0  0  0  0  0  0  0  0
   -3.4267   -2.0426    0.9524 H   0  0  0  0  0  0  0  0  0  0  0  0
   -3.0538   -2.7186   -0.6556 H   0  0  0  0  0  0  0  0  0  0  0  0
   -1.3498   -2.2206    0.5184 C   0  0  0  0  0  0  0  0  0  0  0  0
   -0.4997   -2.9426    1.0194 O   0  0  0  0  0  0  0  0  0  0  0  0
   -1.1198   -0.9926    0.0674 N   0  0  0  0  0  0  0  0  0  0  0  0
   -1.8978   -0.4486   -0.2716 H   0  0  0  0  0  0  0  0  0  0  0  0
    0.1693   -0.2866    0.0854 C   0  0  1  0  0  0  0  0  0  0  0  0
    0.9043   -0.8713   -0.4705 H   0  0  0  0  0  0  0  0  0  0  0  0
    0.0106    1.0816   -0.6124 C   0  0  0  0  0  0  0  0  0  0  0  0
    0.7181    1.7849   -0.1696 H   0  0  0  0  0  0  0  0  0  0  0  0
    0.2682    0.9703   -1.6679 H   0  0  0  0  0  0  0  0  0  0  0  0
   -1.3922    1.6982   -0.4955 C   0  0  0  0  0  0  0  0  0  0  0  0
   -2.0778    1.4386    0.5214 O   0  5  0  0  0  0  0  0  0  0  0  0
   -1.7773    2.4157   -1.4437 O   0  0  0  0  0  0  0  0  0  0  0  0
    0.6664   -0.1450    1.5428 C   0  0  0  0  0  0  0  0  0  0  0  0
    1.8485   -0.3724    1.8265 O   0  0  0  0  0  0  0  0  0  0  0  0
   -0.2161    0.2434    2.4686 N   0  0  0  0  0  0  0  0  0  0  0  0
   -1.1850    0.3219    2.1537 H   0  0  0  0  0  0  0  0  0  0  0  0
    0.0735    0.4128    3.8885 C   0  0  0  0  0  0  0  0  0  0  0  0
    1.0159    0.9483    4.0105 H   0  0  0  0  0  0  0  0  0  0  0  0
   -0.7315    0.9748    4.3613 H   0  0  0  0  0  0  0  0  0  0  0  0
    0.1564   -0.5677    4.3577 H   0  0  0  0  0  0  0  0  0  0  0  0
  5  6  2  0  0  0  0
  5  7  1  0  0  0  0
  2  3  1  0  0  0  0
  2  4  1  0  0  0  0
  2  5  1  0  0  0  0
  1  2  1  0  0  0  0
 17 18  2  0  0  0  0
 17 19  1  0  0  0  0
 14 15  1  0  0  0  0
 14 16  2  0  0  0  0
 11 12  1  0  0  0  0
 11 13  1  0  0  0  0
 11 14  1  0  0  0  0
  9 10  1  0  0  0  0
  9 11  1  0  0  0  0
  9 17  1  0  0  0  0
  7  8  1  0  0  0  0
  7  9  1  0  0  0  0
 21 22  1  0  0  0  0
 21 23  1  0  0  0  0
 21 24  1  0  0  0  0
 19 20  1  0  0  0  0
 19 21  1  0  0  0  0
M  CHG  1  15  -1
M  END
$$$$
default_name
  -OEChem-02102213163D

 24 23  0     1  0  0  0  0  0999 V2000
   -2.8347   -3.7166    0.8034 H   0  0  0  0  0  0  0  0  0  0  0  0
   -2.7728   -2.7096    0.3954 C   0  0  0  0  0  0  0  0  0  0  0  0
   -3.4267   -2.0426    0.9524 H   0  0  0  0  0  0  0  0  0  0  0  0
   -3.0538   -2.7186   -0.6556 H   0  0  0  0  0  0  0  0  0  0  0  0
   -1.3498   -2.2206    0.5184 C   0  0  0  0  0  0  0  0  0  0  0  0
   -0.4997   -2.9426    1.0194 O   0  0  0  0  0  0  0  0  0  0  0  0
   -1.1198   -0.9926    0.0674 N   0  0  0  0  0  0  0  0  0  0  0  0
   -1.8978   -0.4486   -0.2716 H   0  0  0  0  0  0  0  0  0  0  0  0
    0.1693   -0.2866    0.0854 C   0  0  1  0  0  0  0  0  0  0  0  0
    0.9043   -0.8713   -0.4705 H   0  0  0  0  0  0  0  0  0  0  0  0
    0.0106    1.0816   -0.6124 C   0  0  0  0  0  0  0  0  0  0  0  0
    0.7181    1.7849   -0.1696 H   0  0  0  0  0  0  0  0  0  0  0  0
    0.2682    0.9703   -1.6679 H   0  0  0  0  0  0  0  0  0  0  0  0
   -1.3922    1.6982   -0.4955 C   0  0  0  0  0  0  0  0  0  0  0  0
   -1.9624    1.6824    0.6209 O   0  5  0  0  0  0  0  0  0  0  0  0
   -1.8944    2.1674   -1.5394 O   0  0  0  0  0  0  0  0  0  0  0  0
    0.6664   -0.1450    1.5428 C   0  0  0  0  0  0  0  0  0  0  0  0
    1.8485   -0.3724    1.8265 O   0  0  0  0  0  0  0  0  0  0  0  0
   -0.2161    0.2434    2.4686 N   0  0  0  0  0  0  0  0  0  0  0  0
   -1.1850    0.3219    2.1537 H   0  0  0  0  0  0  0  0  0  0  0  0
    0.0735    0.4128    3.8885 C   0  0  0  0  0  0  0  0  0  0  0  0
    1.0159    0.9483    4.0105 H   0  0  0  0  0  0  0  0  0  0  0  0
   -0.7315    0.9748    4.3613 H   0  0  0  0  0  0  0  0  0  0  0  0
    0.1564   -0.5677    4.3577 H   0  0  0  0  0  0  0  0  0  0  0  0
  5  6  2  0  0  0  0
  5  7  1  0  0  0  0
  2  3  1  0  0  0  0
  2  4  1  0  0  0  0
  2  5  1  0  0  0  0
  1  2  1  0  0  0  0
 17 18  2  0  0  0  0
 17 19  1  0  0  0  0
 14 15  1  0  0  0  0
 14 16  2  0  0  0  0
 11 12  1  0  0  0  0
 11 13  1  0  0  0  0
 11 14  1  0  0  0  0
  9 10  1  0  0  0  0
  9 11  1  0  0  0  0
  9 17  1  0  0  0  0
  7  8  1  0  0  0  0
  7  9  1  0  0  0  0
 21 22  1  0  0  0  0
 21 23  1  0  0  0  0
 21 24  1  0  0  0  0
 19 20  1  0  0  0  0
 19 21  1  0  0  0  0
M  CHG  1  15  -1
M  END
$$$$
default_name
  -OEChem-02102213163D

 24 23  0     1  0  0  0  0  0999 V2000
   -2.8347   -3.7166    0.8034 H   0  0  0  0  0  0  0  0  0  0  0  0
   -2.7728   -2.7096    0.3954 C   0  0  0  0  0  0  0  0  0  0  0  0
   -3.4267   -2.0426    0.9524 H   0  0  0  0  0  0  0  0  0  0  0  0
   -3.0538   -2.7186   -0.6556 H   0  0  0  0  0  0  0  0  0  0  0  0
   -1.3498   -2.2206    0.5184 C   0  0  0  0  0  0  0  0  0  0  0  0
   -0.4997   -2.9426    1.0194 O   0  0  0  0  0  0  0  0  0  0  0  0
   -1.1198   -0.9926    0.0674 N   0  0  0  0  0  0  0  0  0  0  0  0
   -1.8978   -0.4486   -0.2716 H   0  0  0  0  0  0  0  0  0  0  0  0
    0.1693   -0.2866    0.0854 C   0  0  1  0  0  0  0  0  0  0  0  0
    0.9043   -0.8713   -0.4705 H   0  0  0  0  0  0  0  0  0  0  0  0
    0.0106    1.0816   -0.6124 C   0  0  0  0  0  0  0  0  0  0  0  0
    0.7181    1.7849   -0.1696 H   0  0  0  0  0  0  0  0  0  0  0  0
    0.2682    0.9703   -1.6679 H   0  0  0  0  0  0  0  0  0  0  0  0
   -1.3922    1.6982   -0.4955 C   0  0  0  0  0  0  0  0  0  0  0  0
   -1.8453    1.9436    0.6473 O   0  5  0  0  0  0  0  0  0  0  0  0
   -2.0126    1.9027   -1.5611 O   0  0  0  0  0  0  0  0  0  0  0  0
    0.6664   -0.1450    1.5428 C   0  0  0  0  0  0  0  0  0  0  0  0
    1.8485   -0.3724    1.8265 O   0  0  0  0  0  0  0  0  0  0  0  0
   -0.2161    0.2434    2.4686 N   0  0  0  0  0  0  0  0  0  0  0  0
   -1.1850    0.3219    2.1537 H   0  0  0  0  0  0  0  0  0  0  0  0
    0.0735    0.4128    3.8885 C   0  0  0  0  0  0  0  0  0  0  0  0
    1.0159    0.9483    4.0105 H   0  0  0  0  0  0  0  0  0  0  0  0
   -0.7315    0.9748    4.3613 H   0  0  0  0  0  0  0  0  0  0  0  0
    0.1564   -0.5677    4.3577 H   0  0  0  0  0  0  0  0  0  0  0  0
  5  6  2  0  0  0  0
  5  7  1  0  0  0  0
  2  3  1  0  0  0  0
  2  4  1  0  0  0  0
  2  5  1  0  0  0  0
  1  2  1  0  0  0  0
 17 18  2  0  0  0  0
 17 19  1  0  0  0  0
 14 15  1  0  0  0  0
 14 16  2  0  0  0  0
 11 12  1  0  0  0  0
 11 13  1  0  0  0  0
 11 14  1  0  0  0  0
  9 10  1  0  0  0  0
  9 11  1  0  0  0  0
  9 17  1  0  0  0  0
  7  8  1  0  0  0  0
  7  9  1  0  0  0  0
 21 22  1  0  0  0  0
 21 23  1  0  0  0  0
 21 24  1  0  0  0  0
 19 20  1  0  0  0  0
 19 21  1  0  0  0  0
M  CHG  1  15  -1
M  END
$$$$
default_name
  -OEChem-02102213163D

 24 23  0     1  0  0  0  0  0999 V2000
   -2.8347   -3.7166    0.8034 H   0  0  0  0  0  0  0  0  0  0  0  0
   -2.7728   -2.7096    0.3954 C   0  0  0  0  0  0  0  0  0  0  0  0
   -3.4267   -2.0426    0.9524 H   0  0  0  0  0  0  0  0  0  0  0  0
   -3.0538   -2.7186   -0.6556 H   0  0  0  0  0  0  0  0  0  0  0  0
   -1.3498   -2.2206    0.5184 C   0  0  0  0  0  0  0  0  0  0  0  0
   -0.4997   -2.9426    1.0194 O   0  0  0  0  0  0  0  0  0  0  0  0
   -1.1198   -0.9926    0.0674 N   0  0  0  0  0  0  0  0  0  0  0  0
   -1.8978   -0.4486   -0.2716 H   0  0  0  0  0  0  0  0  0  0  0  0
    0.1693   -0.2866    0.0854 C   0  0  1  0  0  0  0  0  0  0  0  0
    0.9043   -0.8713   -0.4705 H   0  0  0  0  0  0  0  0  0  0  0  0
    0.0106    1.0816   -0.6124 C   0  0  0  0  0  0  0  0  0  0  0  0
    0.7181    1.7849   -0.1696 H   0  0  0  0  0  0  0  0  0  0  0  0
    0.2682    0.9703   -1.6679 H   0  0  0  0  0  0  0  0  0  0  0  0
   -1.3922    1.6982   -0.4955 C   0  0  0  0  0  0  0  0  0  0  0  0
   -1.7347    2.2045    0.5990 O   0  5  0  0  0  0  0  0  0  0  0  0
   -2.1238    1.6395   -1.5072 O   0  0  0  0  0  0  0  0  0  0  0  0
    0.6664   -0.1450    1.5428 C   0  0  0  0  0  0  0  0  0  0  0  0
    1.8485   -0.3724    1.8265 O   0  0  0  0  0  0  0  0  0  0  0  0
   -0.2161    0.2434    2.4686 N   0  0  0  0  0  0  0  0  0  0  0  0
   -1.1850    0.3219    2.1537 H   0  0  0  0  0  0  0  0  0  0  0  0
    0.0735    0.4128    3.8885 C   0  0  0  0  0  0  0  0  0  0  0  0
    1.0159    0.9483    4.0105 H   0  0  0  0  0  0  0  0  0  0  0  0
   -0.7315    0.9748    4.3613 H   0  0  0  0  0  0  0  0  0  0  0  0
    0.1564   -0.5677    4.3577 H   0  0  0  0  0  0  0  0  0  0  0  0
  5  6  2  0  0  0  0
  5  7  1  0  0  0  0
  2  3  1  0  0  0  0
  2  4  1  0  0  0  0
  2  5  1  0  0  0  0
  1  2  1  0  0  0  0
 17 18  2  0  0  0  0
 17 19  1  0  0  0  0
 14 15  1  0  0  0  0
 14 16  2  0  0  0  0
 11 12  1  0  0  0  0
 11 13  1  0  0  0  0
 11 14  1  0  0  0  0
  9 10  1  0  0  0  0
  9 11  1  0  0  0  0
  9 17  1  0  0  0  0
  7  8  1  0  0  0  0
  7  9  1  0  0  0  0
 21 22  1  0  0  0  0
 21 23  1  0  0  0  0
 21 24  1  0  0  0  0
 19 20  1  0  0  0  0
 19 21  1  0  0  0  0
M  CHG  1  15  -1
M  END
$$$$
default_name
  -OEChem-02102213163D

 24 23  0     1  0  0  0  0  0999 V2000
   -2.8347   -3.7166    0.8034 H   0  0  0  0  0  0  0  0  0  0  0  0
   -2.7728   -2.7096    0.3954 C   0  0  0  0  0  0  0  0  0  0  0  0
   -3.4267   -2.0426    0.9524 H   0  0  0  0  0  0  0  0  0  0  0  0
   -3.0538   -2.7186   -0.6556 H   0  0  0  0  0  0  0  0  0  0  0  0
   -1.3498   -2.2206    0.5184 C   0  0  0  0  0  0  0  0  0  0  0  0
   -0.4997   -2.9426    1.0194 O   0  0  0  0  0  0  0  0  0  0  0  0
   -1.1198   -0.9926    0.0674 N   0  0  0  0  0  0  0  0  0  0  0  0
   -1.8978   -0.4486   -0.2716 H   0  0  0  0  0  0  0  0  0  0  0  0
    0.1693   -0.2866    0.0854 C   0  0  1  0  0  0  0  0  0  0  0  0
    0.9043   -0.8713   -0.4705 H   0  0  0  0  0  0  0  0  0  0  0  0
    0.0106    1.0816   -0.6124 C   0  0  0  0  0  0  0  0  0  0  0  0
    0.7181    1.7849   -0.1696 H   0  0  0  0  0  0  0  0  0  0  0  0
    0.2682    0.9703   -1.6679 H   0  0  0  0  0  0  0  0  0  0  0  0
   -1.3922    1.6982   -0.4955 C   0  0  0  0  0  0  0  0  0  0  0  0
   -1.6380    2.4473    0.4792 O   0  5  0  0  0  0  0  0  0  0  0  0
   -2.2204    1.3958   -1.3814 O   0  0  0  0  0  0  0  0  0  0  0  0
    0.6664   -0.1450    1.5428 C   0  0  0  0  0  0  0  0  0  0  0  0
    1.8485   -0.3724    1.8265 O   0  0  0  0  0  0  0  0  0  0  0  0
   -0.2161    0.2434    2.4686 N   0  0  0  0  0  0  0  0  0  0  0  0
   -1.1850    0.3219    2.1537 H   0  0  0  0  0  0  0  0  0  0  0  0
    0.0735    0.4128    3.8885 C   0  0  0  0  0  0  0  0  0  0  0  0
    1.0159    0.9483    4.0105 H   0  0  0  0  0  0  0  0  0  0  0  0
   -0.7315    0.9748    4.3613 H   0  0  0  0  0  0  0  0  0  0  0  0
    0.1564   -0.5677    4.3577 H   0  0  0  0  0  0  0  0  0  0  0  0
  5  6  2  0  0  0  0
  5  7  1  0  0  0  0
  2  3  1  0  0  0  0
  2  4  1  0  0  0  0
  2  5  1  0  0  0  0
  1  2  1  0  0  0  0
 17 18  2  0  0  0  0
 17 19  1  0  0  0  0
 14 15  1  0  0  0  0
 14 16  2  0  0  0  0
 11 12  1  0  0  0  0
 11 13  1  0  0  0  0
 11 14  1  0  0  0  0
  9 10  1  0  0  0  0
  9 11  1  0  0  0  0
  9 17  1  0  0  0  0
  7  8  1  0  0  0  0
  7  9  1  0  0  0  0
 21 22  1  0  0  0  0
 21 23  1  0  0  0  0
 21 24  1  0  0  0  0
 19 20  1  0  0  0  0
 19 21  1  0  0  0  0
M  CHG  1  15  -1
M  END
$$$$
default_name
  -OEChem-02102213163D

 24 23  0     1  0  0  0  0  0999 V2000
   -2.8347   -3.7166    0.8034 H   0  0  0  0  0  0  0  0  0  0  0  0
   -2.7728   -2.7096    0.3954 C   0  0  0  0  0  0  0  0  0  0  0  0
   -3.4267   -2.0426    0.9524 H   0  0  0  0  0  0  0  0  0  0  0  0
   -3.0538   -2.7186   -0.6556 H   0  0  0  0  0  0  0  0  0  0  0  0
   -1.3498   -2.2206    0.5184 C   0  0  0  0  0  0  0  0  0  0  0  0
   -0.4997   -2.9426    1.0194 O   0  0  0  0  0  0  0  0  0  0  0  0
   -1.1198   -0.9926    0.0674 N   0  0  0  0  0  0  0  0  0  0  0  0
   -1.8978   -0.4486   -0.2716 H   0  0  0  0  0  0  0  0  0  0  0  0
    0.1693   -0.2866    0.0854 C   0  0  1  0  0  0  0  0  0  0  0  0
    0.9043   -0.8713   -0.4705 H   0  0  0  0  0  0  0  0  0  0  0  0
    0.0106    1.0816   -0.6124 C   0  0  0  0  0  0  0  0  0  0  0  0
    0.7181    1.7849   -0.1696 H   0  0  0  0  0  0  0  0  0  0  0  0
    0.2682    0.9703   -1.6679 H   0  0  0  0  0  0  0  0  0  0  0  0
   -1.3922    1.6982   -0.4955 C   0  0  0  0  0  0  0  0  0  0  0  0
   -1.5618    2.6554    0.2961 O   0  5  0  0  0  0  0  0  0  0  0  0
   -2.2959    1.1883   -1.1923 O   0  0  0  0  0  0  0  0  0  0  0  0
    0.6664   -0.1450    1.5428 C   0  0  0  0  0  0  0  0  0  0  0  0
    1.8485   -0.3724    1.8265 O   0  0  0  0  0  0  0  0  0  0  0  0
   -0.2161    0.2434    2.4686 N   0  0  0  0  0  0  0  0  0  0  0  0
   -1.1850    0.3219    2.1537 H   0  0  0  0  0  0  0  0  0  0  0  0
    0.0735    0.4128    3.8885 C   0  0  0  0  0  0  0  0  0  0  0  0
    1.0159    0.9483    4.0105 H   0  0  0  0  0  0  0  0  0  0  0  0
   -0.7315    0.9748    4.3613 H   0  0  0  0  0  0  0  0  0  0  0  0
    0.1564   -0.5677    4.3577 H   0  0  0  0  0  0  0  0  0  0  0  0
  5  6  2  0  0  0  0
  5  7  1  0  0  0  0
  2  3  1  0  0  0  0
  2  4  1  0  0  0  0
  2  5  1  0  0  0  0
  1  2  1  0  0  0  0
 17 18  2  0  0  0  0
 17 19  1  0  0  0  0
 14 15  1  0  0  0  0
 14 16  2  0  0  0  0
 11 12  1  0  0  0  0
 11 13  1  0  0  0  0
 11 14  1  0  0  0  0
  9 10  1  0  0  0  0
  9 11  1  0  0  0  0
  9 17  1  0  0  0  0
  7  8  1  0  0  0  0
  7  9  1  0  0  0  0
 21 22  1  0  0  0  0
 21 23  1  0  0  0  0
 21 24  1  0  0  0  0
 19 20  1  0  0  0  0
 19 21  1  0  0  0  0
M  CHG  1  15  -1
M  END
$$$$
default_name
  -OEChem-02102213163D

 24 23  0     1  0  0  0  0  0999 V2000
   -2.8347   -3.7166    0.8034 H   0  0  0  0  0  0  0  0  0  0  0  0
   -2.7728   -2.7096    0.3954 C   0  0  0  0  0  0  0  0  0  0  0  0
   -3.4267   -2.0426    0.9524 H   0  0  0  0  0  0  0  0  0  0  0  0
   -3.0538   -2.7186   -0.6556 H   0  0  0  0  0  0  0  0  0  0  0  0
   -1.3498   -2.2206    0.5184 C   0  0  0  0  0  0  0  0  0  0  0  0
   -0.4997   -2.9426    1.0194 O   0  0  0  0  0  0  0  0  0  0  0  0
   -1.1198   -0.9926    0.0674 N   0  0  0  0  0  0  0  0  0  0  0  0
   -1.8978   -0.4486   -0.2716 H   0  0  0  0  0  0  0  0  0  0  0  0
    0.1693   -0.2866    0.0854 C   0  0  1  0  0  0  0  0  0  0  0  0
    0.9043   -0.8713   -0.4705 H   0  0  0  0  0  0  0  0  0  0  0  0
    0.0106    1.0816   -0.6124 C   0  0  0  0  0  0  0  0  0  0  0  0
    0.7181    1.7849   -0.1696 H   0  0  0  0  0  0  0  0  0  0  0  0
    0.2682    0.9703   -1.6679 H   0  0  0  0  0  0  0  0  0  0  0  0
   -1.3922    1.6982   -0.4955 C   0  0  0  0  0  0  0  0  0  0  0  0
   -1.5113    2.8147    0.0621 O   0  5  0  0  0  0  0  0  0  0  0  0
   -2.3450    1.0310   -0.9528 O   0  0  0  0  0  0  0  0  0  0  0  0
    0.6664   -0.1450    1.5428 C   0  0  0  0  0  0  0  0  0  0  0  0
    1.8485   -0.3724    1.8265 O   0  0  0  0  0  0  0  0  0  0  0  0
   -0.2161    0.2434    2.4686 N   0  0  0  0  0  0  0  0  0  0  0  0
   -1.1850    0.3219    2.1537 H   0  0  0  0  0  0  0  0  0  0  0  0
    0.0735    0.4128    3.8885 C   0  0  0  0  0  0  0  0  0  0  0  0
    1.0159    0.9483    4.0105 H   0  0  0  0  0  0  0  0  0  0  0  0
   -0.7315    0.9748    4.3613 H   0  0  0  0  0  0  0  0  0  0  0  0
    0.1564   -0.5677    4.3577 H   0  0  0  0  0  0  0  0  0  0  0  0
  5  6  2  0  0  0  0
  5  7  1  0  0  0  0
  2  3  1  0  0  0  0
  2  4  1  0  0  0  0
  2  5  1  0  0  0  0
  1  2  1  0  0  0  0
 17 18  2  0  0  0  0
 17 19  1  0  0  0  0
 14 15  1  0  0  0  0
 14 16  2  0  0  0  0
 11 12  1  0  0  0  0
 11 13  1  0  0  0  0
 11 14  1  0  0  0  0
  9 10  1  0  0  0  0
  9 11  1  0  0  0  0
  9 17  1  0  0  0  0
  7  8  1  0  0  0  0
  7  9  1  0  0  0  0
 21 22  1  0  0  0  0
 21 23  1  0  0  0  0
 21 24  1  0  0  0  0
 19 20  1  0  0  0  0
 19 21  1  0  0  0  0
M  CHG  1  15  -1
M  END
$$$$
default_name
  -OEChem-02102213163D

 24 23  0     1  0  0  0  0  0999 V2000
   -2.8347   -3.7166    0.8034 H   0  0  0  0  0  0  0  0  0  0  0  0
   -2.7728   -2.7096    0.3954 C   0  0  0  0  0  0  0  0  0  0  0  0
   -3.4267   -2.0426    0.9524 H   0  0  0  0  0  0  0  0  0  0  0  0
   -3.0538   -2.7186   -0.6556 H   0  0  0  0  0  0  0  0  0  0  0  0
   -1.3498   -2.2206    0.5184 C   0  0  0  0  0  0  0  0  0  0  0  0
   -0.4997   -2.9426    1.0194 O   0  0  0  0  0  0  0  0  0  0  0  0
   -1.1198   -0.9926    0.0674 N   0  0  0  0  0  0  0  0  0  0  0  0
   -1.8978   -0.4486   -0.2716 H   0  0  0  0  0  0  0  0  0  0  0  0
    0.1693   -0.2866    0.0854 C   0  0  1  0  0  0  0  0  0  0  0  0
    0.9043   -0.8713   -0.4705 H   0  0  0  0  0  0  0  0  0  0  0  0
    0.0106    1.0816   -0.6124 C   0  0  0  0  0  0  0  0  0  0  0  0
    0.7181    1.7849   -0.1696 H   0  0  0  0  0  0  0  0  0  0  0  0
    0.2682    0.9703   -1.6679 H   0  0  0  0  0  0  0  0  0  0  0  0
   -1.3922    1.6982   -0.4955 C   0  0  0  0  0  0  0  0  0  0  0  0
   -1.4899    2.9142   -0.2068 O   0  5  0  0  0  0  0  0  0  0  0  0
   -2.3645    0.9347   -0.6792 O   0  0  0  0  0  0  0  0  0  0  0  0
    0.6664   -0.1450    1.5428 C   0  0  0  0  0  0  0  0  0  0  0  0
    1.8485   -0.3724    1.8265 O   0  0  0  0  0  0  0  0  0  0  0  0
   -0.2161    0.2434    2.4686 N   0  0  0  0  0  0  0  0  0  0  0  0
   -1.1850    0.3219    2.1537 H   0  0  0  0  0  0  0  0  0  0  0  0
    0.0735    0.4128    3.8885 C   0  0  0  0  0  0  0  0  0  0  0  0
    1.0159    0.9483    4.0105 H   0  0  0  0  0  0  0  0  0  0  0  0
   -0.7315    0.9748    4.3613 H   0  0  0  0  0  0  0  0  0  0  0  0
    0.1564   -0.5677    4.3577 H   0  0  0  0  0  0  0  0  0  0  0  0
  5  6  2  0  0  0  0
  5  7  1  0  0  0  0
  2  3  1  0  0  0  0
  2  4  1  0  0  0  0
  2  5  1  0  0  0  0
  1  2  1  0  0  0  0
 17 18  2  0  0  0  0
 17 19  1  0  0  0  0
 14 15  1  0  0  0  0
 14 16  2  0  0  0  0
 11 12  1  0  0  0  0
 11 13  1  0  0  0  0
 11 14  1  0  0  0  0
  9 10  1  0  0  0  0
  9 11  1  0  0  0  0
  9 17  1  0  0  0  0
  7  8  1  0  0  0  0
  7  9  1  0  0  0  0
 21 22  1  0  0  0  0
 21 23  1  0  0  0  0
 21 24  1  0  0  0  0
 19 20  1  0  0  0  0
 19 21  1  0  0  0  0
M  CHG  1  15  -1
M  END
$$$$
default_name
  -OEChem-02102213163D

 24 23  0     1  0  0  0  0  0999 V2000
   -2.8347   -3.7166    0.8034 H   0  0  0  0  0  0  0  0  0  0  0  0
   -2.7728   -2.7096    0.3954 C   0  0  0  0  0  0  0  0  0  0  0  0
   -3.4267   -2.0426    0.9524 H   0  0  0  0  0  0  0  0  0  0  0  0
   -3.0538   -2.7186   -0.6556 H   0  0  0  0  0  0  0  0  0  0  0  0
   -1.3498   -2.2206    0.5184 C   0  0  0  0  0  0  0  0  0  0  0  0
   -0.4997   -2.9426    1.0194 O   0  0  0  0  0  0  0  0  0  0  0  0
   -1.1198   -0.9926    0.0674 N   0  0  0  0  0  0  0  0  0  0  0  0
   -1.8978   -0.4486   -0.2716 H   0  0  0  0  0  0  0  0  0  0  0  0
    0.1693   -0.2866    0.0854 C   0  0  1  0  0  0  0  0  0  0  0  0
    0.9043   -0.8713   -0.4705 H   0  0  0  0  0  0  0  0  0  0  0  0
    0.0106    1.0816   -0.6124 C   0  0  0  0  0  0  0  0  0  0  0  0
    0.7181    1.7849   -0.1696 H   0  0  0  0  0  0  0  0  0  0  0  0
    0.2682    0.9703   -1.6679 H   0  0  0  0  0  0  0  0  0  0  0  0
   -1.3922    1.6982   -0.4955 C   0  0  0  0  0  0  0  0  0  0  0  0
   -1.4992    2.9472   -0.4922 O   0  5  0  0  0  0  0  0  0  0  0  0
   -2.3531    0.9059   -0.3901 O   0  0  0  0  0  0  0  0  0  0  0  0
    0.6664   -0.1450    1.5428 C   0  0  0  0  0  0  0  0  0  0  0  0
    1.8485   -0.3724    1.8265 O   0  0  0  0  0  0  0  0  0  0  0  0
   -0.2161    0.2434    2.4686 N   0  0  0  0  0  0  0  0  0  0  0  0
   -1.1850    0.3219    2.1537 H   0  0  0  0  0  0  0  0  0  0  0  0
    0.0735    0.4128    3.8885 C   0  0  0  0  0  0  0  0  0  0  0  0
    1.0159    0.9483    4.0105 H   0  0  0  0  0  0  0  0  0  0  0  0
   -0.7315    0.9748    4.3613 H   0  0  0  0  0  0  0  0  0  0  0  0
    0.1564   -0.5677    4.3577 H   0  0  0  0  0  0  0  0  0  0  0  0
  5  6  2  0  0  0  0
  5  7  1  0  0  0  0
  2  3  1  0  0  0  0
  2  4  1  0  0  0  0
  2  5  1  0  0  0  0
  1  2  1  0  0  0  0
 17 18  2  0  0  0  0
 17 19  1  0  0  0  0
 14 15  1  0  0  0  0
 14 16  2  0  0  0  0
 11 12  1  0  0  0  0
 11 13  1  0  0  0  0
 11 14  1  0  0  0  0
  9 10  1  0  0  0  0
  9 11  1  0  0  0  0
  9 17  1  0  0  0  0
  7  8  1  0  0  0  0
  7  9  1  0  0  0  0
 21 22  1  0  0  0  0
 21 23  1  0  0  0  0
 21 24  1  0  0  0  0
 19 20  1  0  0  0  0
 19 21  1  0  0  0  0
M  CHG  1  15  -1
M  END
$$$$
default_name
  -OEChem-02102213163D

 24 23  0     1  0  0  0  0  0999 V2000
   -2.8347   -3.7166    0.8034 H   0  0  0  0  0  0  0  0  0  0  0  0
   -2.7728   -2.7096    0.3954 C   0  0  0  0  0  0  0  0  0  0  0  0
   -3.4267   -2.0426    0.9524 H   0  0  0  0  0  0  0  0  0  0  0  0
   -3.0538   -2.7186   -0.6556 H   0  0  0  0  0  0  0  0  0  0  0  0
   -1.3498   -2.2206    0.5184 C   0  0  0  0  0  0  0  0  0  0  0  0
   -0.4997   -2.9426    1.0194 O   0  0  0  0  0  0  0  0  0  0  0  0
   -1.1198   -0.9926    0.0674 N   0  0  0  0  0  0  0  0  0  0  0  0
   -1.8978   -0.4486   -0.2716 H   0  0  0  0  0  0  0  0  0  0  0  0
    0.1693   -0.2866    0.0854 C   0  0  1  0  0  0  0  0  0  0  0  0
    0.9043   -0.8713   -0.4705 H   0  0  0  0  0  0  0  0  0  0  0  0
    0.0106    1.0816   -0.6124 C   0  0  0  0  0  0  0  0  0  0  0  0
    0.7181    1.7849   -0.1696 H   0  0  0  0  0  0  0  0  0  0  0  0
    0.2682    0.9703   -1.6679 H   0  0  0  0  0  0  0  0  0  0  0  0
   -1.3922    1.6982   -0.4955 C   0  0  0  0  0  0  0  0  0  0  0  0
   -1.5384    2.9116   -0.7747 O   0  5  0  0  0  0  0  0  0  0  0  0
   -2.3115    0.9467   -0.1053 O   0  0  0  0  0  0  0  0  0  0  0  0
    0.6664   -0.1450    1.5428 C   0  0  0  0  0  0  0  0  0  0  0  0
    1.8485   -0.3724    1.8265 O   0  0  0  0  0  0  0  0  0  0  0  0
   -0.2161    0.2434    2.4686 N   0  0  0  0  0  0  0  0  0  0  0  0
   -1.1850    0.3219    2.1537 H   0  0  0  0  0  0  0  0  0  0  0  0
    0.0735    0.4128    3.8885 C   0  0  0  0  0  0  0  0  0  0  0  0
    1.0159    0.9483    4.0105 H   0  0  0  0  0  0  0  0  0  0  0  0
   -0.7315    0.9748    4.3613 H   0  0  0  0  0  0  0  0  0  0  0  0
    0.1564   -0.5677    4.3577 H   0  0  0  0  0  0  0  0  0  0  0  0
  5  6  2  0  0  0  0
  5  7  1  0  0  0  0
  2  3  1  0  0  0  0
  2  4  1  0  0  0  0
  2  5  1  0  0  0  0
  1  2  1  0  0  0  0
 17 18  2  0  0  0  0
 17 19  1  0  0  0  0
 14 15  1  0  0  0  0
 14 16  2  0  0  0  0
 11 12  1  0  0  0  0
 11 13  1  0  0  0  0
 11 14  1  0  0  0  0
  9 10  1  0  0  0  0
  9 11  1  0  0  0  0
  9 17  1  0  0  0  0
  7  8  1  0  0  0  0
  7  9  1  0  0  0  0
 21 22  1  0  0  0  0
 21 23  1  0  0  0  0
 21 24  1  0  0  0  0
 19 20  1  0  0  0  0
 19 21  1  0  0  0  0
M  CHG  1  15  -1
M  END
$$$$
default_name
  -OEChem-02102213163D

 24 23  0     1  0  0  0  0  0999 V2000
   -2.8347   -3.7166    0.8034 H   0  0  0  0  0  0  0  0  0  0  0  0
   -2.7728   -2.7096    0.3954 C   0  0  0  0  0  0  0  0  0  0  0  0
   -3.4267   -2.0426    0.9524 H   0  0  0  0  0  0  0  0  0  0  0  0
   -3.0538   -2.7186   -0.6556 H   0  0  0  0  0  0  0  0  0  0  0  0
   -1.3498   -2.2206    0.5184 C   0  0  0  0  0  0  0  0  0  0  0  0
   -0.4997   -2.9426    1.0194 O   0  0  0  0  0  0  0  0  0  0  0  0
   -1.1198   -0.9926    0.0674 N   0  0  0  0  0  0  0  0  0  0  0  0
   -1.8978   -0.4486   -0.2716 H   0  0  0  0  0  0  0  0  0  0  0  0
    0.1693   -0.2866    0.0854 C   0  0  1  0  0  0  0  0  0  0  0  0
    0.9043   -0.8713   -0.4705 H   0  0  0  0  0  0  0  0  0  0  0  0
    0.0106    1.0816   -0.6124 C   0  0  0  0  0  0  0  0  0  0  0  0
    0.8765    1.7005   -0.3710 H   0  0  0  0  0  0  0  0  0  0  0  0
    0.0031    0.9265   -1.6935 H   0  0  0  0  0  0  0  0  0  0  0  0
   -1.2477    1.8636   -0.2040 C   0  0  0  0  0  0  0  0  0  0  0  0
   -1.4514    2.9854   -0.7253 O   0  5  0  0  0  0  0  0  0  0  0  0
   -1.9922    1.3348    0.6493 O   0  0  0  0  0  0  0  0  0  0  0  0
    0.6664   -0.1450    1.5428 C   0  0  0  0  0  0  0  0  0  0  0  0
    1.8485   -0.3724    1.8265 O   0  0  0  0  0  0  0  0  0  0  0  0
   -0.2161    0.2434    2.4686 N   0  0  0  0  0  0  0  0  0  0  0  0
   -1.1850    0.3219    2.1537 H   0  0  0  0  0  0  0  0  0  0  0  0
    0.0735    0.4128    3.8885 C   0  0  0  0  0  0  0  0  0  0  0  0
    1.0159    0.9483    4.0105 H   0  0  0  0  0  0  0  0  0  0  0  0
   -0.7315    0.9748    4.3613 H   0  0  0  0  0  0  0  0  0  0  0  0
    0.1564   -0.5677    4.3577 H   0  0  0  0  0  0  0  0  0  0  0  0
  5  6  2  0  0  0  0
  5  7  1  0  0  0  0
  2  3  1  0  0  0  0
  2  4  1  0  0  0  0
  2  5  1  0  0  0  0
  1  2  1  0  0  0  0
 17 18  2  0  0  0  0
 17 19  1  0  0  0  0
 14 15  1  0  0  0  0
 14 16  2  0  0  0  0
 11 12  1  0  0  0  0
 11 13  1  0  0  0  0
 11 14  1  0  0  0  0
  9 10  1  0  0  0  0
  9 11  1  0  0  0  0
  9 17  1  0  0  0  0
  7  8  1  0  0  0  0
  7  9  1  0  0  0  0
 21 22  1  0  0  0  0
 21 23  1  0  0  0  0
 21 24  1  0  0  0  0
 19 20  1  0  0  0  0
 19 21  1  0  0  0  0
M  CHG  1  15  -1
M  END
$$$$
default_name
  -OEChem-02102213163D

 24 23  0     1  0  0  0  0  0999 V2000
   -2.8347   -3.7166    0.8034 H   0  0  0  0  0  0  0  0  0  0  0  0
   -2.7728   -2.7096    0.3954 C   0  0  0  0  0  0  0  0  0  0  0  0
   -3.4267   -2.0426    0.9524 H   0  0  0  0  0  0  0  0  0  0  0  0
   -3.0538   -2.7186   -0.6556 H   0  0  0  0  0  0  0  0  0  0  0  0
   -1.3498   -2.2206    0.5184 C   0  0  0  0  0  0  0  0  0  0  0  0
   -0.4997   -2.9426    1.0194 O   0  0  0  0  0  0  0  0  0  0  0  0
   -1.1198   -0.9926    0.0674 N   0  0  0  0  0  0  0  0  0  0  0  0
   -1.8978   -0.4486   -0.2716 H   0  0  0  0  0  0  0  0  0  0  0  0
    0.1693   -0.2866    0.0854 C   0  0  1  0  0  0  0  0  0  0  0  0
    0.9043   -0.8713   -0.4705 H   0  0  0  0  0  0  0  0  0  0  0  0
    0.0106    1.0816   -0.6124 C   0  0  0  0  0  0  0  0  0  0  0  0
    0.8765    1.7005   -0.3710 H   0  0  0  0  0  0  0  0  0  0  0  0
    0.0031    0.9265   -1.6935 H   0  0  0  0  0  0  0  0  0  0  0  0
   -1.2477    1.8636   -0.2040 C   0  0  0  0  0  0  0  0  0  0  0  0
   -1.6069    2.8331   -0.9130 O   0  5  0  0  0  0  0  0  0  0  0  0
   -1.8339    1.4923    0.8355 O   0  0  0  0  0  0  0  0  0  0  0  0
    0.6664   -0.1450    1.5428 C   0  0  0  0  0  0  0  0  0  0  0  0
    1.8485   -0.3724    1.8265 O   0  0  0  0  0  0  0  0  0  0  0  0
   -0.2161    0.2434    2.4686 N   0  0  0  0  0  0  0  0  0  0  0  0
   -1.1850    0.3219    2.1537 H   0  0  0  0  0  0  0  0  0  0  0  0
    0.0735    0.4128    3.8885 C   0  0  0  0  0  0  0  0  0  0  0  0
    1.0159    0.9483    4.0105 H   0  0  0  0  0  0  0  0  0  0  0  0
   -0.7315    0.9748    4.3613 H   0  0  0  0  0  0  0  0  0  0  0  0
    0.1564   -0.5677    4.3577 H   0  0  0  0  0  0  0  0  0  0  0  0
  5  6  2  0  0  0  0
  5  7  1  0  0  0  0
  2  3  1  0  0  0  0
  2  4  1  0  0  0  0
  2  5  1  0  0  0  0
  1  2  1  0  0  0  0
 17 18  2  0  0  0  0
 17 19  1  0  0  0  0
 14 15  1  0  0  0  0
 14 16  2  0  0  0  0
 11 12  1  0  0  0  0
 11 13  1  0  0  0  0
 11 14  1  0  0  0  0
  9 10  1  0  0  0  0
  9 11  1  0  0  0  0
  9 17  1  0  0  0  0
  7  8  1  0  0  0  0
  7  9  1  0  0  0  0
 21 22  1  0  0  0  0
 21 23  1  0  0  0  0
 21 24  1  0  0  0  0
 19 20  1  0  0  0  0
 19 21  1  0  0  0  0
M  CHG  1  15  -1
M  END
$$$$
default_name
  -OEChem-02102213163D

 24 23  0     1  0  0  0  0  0999 V2000
   -2.8347   -3.7166    0.8034 H   0  0  0  0  0  0  0  0  0  0  0  0
   -2.7728   -2.7096    0.3954 C   0  0  0  0  0  0  0  0  0  0  0  0
   -3.4267   -2.0426    0.9524 H   0  0  0  0  0  0  0  0  0  0  0  0
   -3.0538   -2.7186   -0.6556 H   0  0  0  0  0  0  0  0  0  0  0  0
   -1.3498   -2.2206    0.5184 C   0  0  0  0  0  0  0  0  0  0  0  0
   -0.4997   -2.9426    1.0194 O   0  0  0  0  0  0  0  0  0  0  0  0
   -1.1198   -0.9926    0.0674 N   0  0  0  0  0  0  0  0  0  0  0  0
   -1.8978   -0.4486   -0.2716 H   0  0  0  0  0  0  0  0  0  0  0  0
    0.1693   -0.2866    0.0854 C   0  0  1  0  0  0  0  0  0  0  0  0
    0.9043   -0.8713   -0.4705 H   0  0  0  0  0  0  0  0  0  0  0  0
    0.0106    1.0816   -0.6124 C   0  0  0  0  0  0  0  0  0  0  0  0
    0.8765    1.7005   -0.3710 H   0  0  0  0  0  0  0  0  0  0  0  0
    0.0031    0.9265   -1.6935 H   0  0  0  0  0  0  0  0  0  0  0  0
   -1.2477    1.8636   -0.2040 C   0  0  0  0  0  0  0  0  0  0  0  0
   -1.7715    2.6355   -1.0416 O   0  5  0  0  0  0  0  0  0  0  0  0
   -1.6673    1.6947    0.9611 O   0  0  0  0  0  0  0  0  0  0  0  0
    0.6664   -0.1450    1.5428 C   0  0  0  0  0  0  0  0  0  0  0  0
    1.8485   -0.3724    1.8265 O   0  0  0  0  0  0  0  0  0  0  0  0
   -0.2161    0.2434    2.4686 N   0  0  0  0  0  0  0  0  0  0  0  0
   -1.1850    0.3219    2.1537 H   0  0  0  0  0  0  0  0  0  0  0  0
    0.0735    0.4128    3.8885 C   0  0  0  0  0  0  0  0  0  0  0  0
    1.0159    0.9483    4.0105 H   0  0  0  0  0  0  0  0  0  0  0  0
   -0.7315    0.9748    4.3613 H   0  0  0  0  0  0  0  0  0  0  0  0
    0.1564   -0.5677    4.3577 H   0  0  0  0  0  0  0  0  0  0  0  0
  5  6  2  0  0  0  0
  5  7  1  0  0  0  0
  2  3  1  0  0  0  0
  2  4  1  0  0  0  0
  2  5  1  0  0  0  0
  1  2  1  0  0  0  0
 17 18  2  0  0  0  0
 17 19  1  0  0  0  0
 14 15  1  0  0  0  0
 14 16  2  0  0  0  0
 11 12  1  0  0  0  0
 11 13  1  0  0  0  0
 11 14  1  0  0  0  0
  9 10  1  0  0  0  0
  9 11  1  0  0  0  0
  9 17  1  0  0  0  0
  7  8  1  0  0  0  0
  7  9  1  0  0  0  0
 21 22  1  0  0  0  0
 21 23  1  0  0  0  0
 21 24  1  0  0  0  0
 19 20  1  0  0  0  0
 19 21  1  0  0  0  0
M  CHG  1  15  -1
M  END
$$$$
default_name
  -OEChem-02102213163D

 24 23  0     1  0  0  0  0  0999 V2000
   -2.8347   -3.7166    0.8034 H   0  0  0  0  0  0  0  0  0  0  0  0
   -2.7728   -2.7096    0.3954 C   0  0  0  0  0  0  0  0  0  0  0  0
   -3.4267   -2.0426    0.9524 H   0  0  0  0  0  0  0  0  0  0  0  0
   -3.0538   -2.7186   -0.6556 H   0  0  0  0  0  0  0  0  0  0  0  0
   -1.3498   -2.2206    0.5184 C   0  0  0  0  0  0  0  0  0  0  0  0
   -0.4997   -2.9426    1.0194 O   0  0  0  0  0  0  0  0  0  0  0  0
   -1.1198   -0.9926    0.0674 N   0  0  0  0  0  0  0  0  0  0  0  0
   -1.8978   -0.4486   -0.2716 H   0  0  0  0  0  0  0  0  0  0  0  0
    0.1693   -0.2866    0.0854 C   0  0  1  0  0  0  0  0  0  0  0  0
    0.9043   -0.8713   -0.4705 H   0  0  0  0  0  0  0  0  0  0  0  0
    0.0106    1.0816   -0.6124 C   0  0  0  0  0  0  0  0  0  0  0  0
    0.8765    1.7005   -0.3710 H   0  0  0  0  0  0  0  0  0  0  0  0
    0.0031    0.9265   -1.6935 H   0  0  0  0  0  0  0  0  0  0  0  0
   -1.2477    1.8636   -0.2040 C   0  0  0  0  0  0  0  0  0  0  0  0
   -1.9337    2.4060   -1.1022 O   0  5  0  0  0  0  0  0  0  0  0  0
   -1.5038    1.9284    1.0176 O   0  0  0  0  0  0  0  0  0  0  0  0
    0.6664   -0.1450    1.5428 C   0  0  0  0  0  0  0  0  0  0  0  0
    1.8485   -0.3724    1.8265 O   0  0  0  0  0  0  0  0  0  0  0  0
   -0.2161    0.2434    2.4686 N   0  0  0  0  0  0  0  0  0  0  0  0
   -1.1850    0.3219    2.1537 H   0  0  0  0  0  0  0  0  0  0  0  0
    0.0735    0.4128    3.8885 C   0  0  0  0  0  0  0  0  0  0  0  0
    1.0159    0.9483    4.0105 H   0  0  0  0  0  0  0  0  0  0  0  0
   -0.7315    0.9748    4.3613 H   0  0  0  0  0  0  0  0  0  0  0  0
    0.1564   -0.5677    4.3577 H   0  0  0  0  0  0  0  0  0  0  0  0
  5  6  2  0  0  0  0
  5  7  1  0  0  0  0
  2  3  1  0  0  0  0
  2  4  1  0  0  0  0
  2  5  1  0  0  0  0
  1  2  1  0  0  0  0
 17 18  2  0  0  0  0
 17 19  1  0  0  0  0
 14 15  1  0  0  0  0
 14 16  2  0  0  0  0
 11 12  1  0  0  0  0
 11 13  1  0  0  0  0
 11 14  1  0  0  0  0
  9 10  1  0  0  0  0
  9 11  1  0  0  0  0
  9 17  1  0  0  0  0
  7  8  1  0  0  0  0
  7  9  1  0  0  0  0
 21 22  1  0  0  0  0
 21 23  1  0  0  0  0
 21 24  1  0  0  0  0
 19 20  1  0  0  0  0
 19 21  1  0  0  0  0
M  CHG  1  15  -1
M  END
$$$$
default_name
  -OEChem-02102213163D

 24 23  0     1  0  0  0  0  0999 V2000
   -2.8347   -3.7166    0.8034 H   0  0  0  0  0  0  0  0  0  0  0  0
   -2.7728   -2.7096    0.3954 C   0  0  0  0  0  0  0  0  0  0  0  0
   -3.4267   -2.0426    0.9524 H   0  0  0  0  0  0  0  0  0  0  0  0
   -3.0538   -2.7186   -0.6556 H   0  0  0  0  0  0  0  0  0  0  0  0
   -1.3498   -2.2206    0.5184 C   0  0  0  0  0  0  0  0  0  0  0  0
   -0.4997   -2.9426    1.0194 O   0  0  0  0  0  0  0  0  0  0  0  0
   -1.1198   -0.9926    0.0674 N   0  0  0  0  0  0  0  0  0  0  0  0
   -1.8978   -0.4486   -0.2716 H   0  0  0  0  0  0  0  0  0  0  0  0
    0.1693   -0.2866    0.0854 C   0  0  1  0  0  0  0  0  0  0  0  0
    0.9043   -0.8713   -0.4705 H   0  0  0  0  0  0  0  0  0  0  0  0
    0.0106    1.0816   -0.6124 C   0  0  0  0  0  0  0  0  0  0  0  0
    0.8765    1.7005   -0.3710 H   0  0  0  0  0  0  0  0  0  0  0  0
    0.0031    0.9265   -1.6935 H   0  0  0  0  0  0  0  0  0  0  0  0
   -1.2477    1.8636   -0.2040 C   0  0  0  0  0  0  0  0  0  0  0  0
   -2.0827    2.1604   -1.0908 O   0  5  0  0  0  0  0  0  0  0  0  0
   -1.3544    2.1773    1.0011 O   0  0  0  0  0  0  0  0  0  0  0  0
    0.6664   -0.1450    1.5428 C   0  0  0  0  0  0  0  0  0  0  0  0
    1.8485   -0.3724    1.8265 O   0  0  0  0  0  0  0  0  0  0  0  0
   -0.2161    0.2434    2.4686 N   0  0  0  0  0  0  0  0  0  0  0  0
   -1.1850    0.3219    2.1537 H   0  0  0  0  0  0  0  0  0  0  0  0
    0.0735    0.4128    3.8885 C   0  0  0  0  0  0  0  0  0  0  0  0
    1.0159    0.9483    4.0105 H   0  0  0  0  0  0  0  0  0  0  0  0
   -0.7315    0.9748    4.3613 H   0  0  0  0  0  0  0  0  0  0  0  0
    0.1564   -0.5677    4.3577 H   0  0  0  0  0  0  0  0  0  0  0  0
  5  6  2  0  0  0  0
  5  7  1  0  0  0  0
  2  3  1  0  0  0  0
  2  4  1  0  0  0  0
  2  5  1  0  0  0  0
  1  2  1  0  0  0  0
 17 18  2  0  0  0  0
 17 19  1  0  0  0  0
 14 15  1  0  0  0  0
 14 16  2  0  0  0  0
 11 12  1  0  0  0  0
 11 13  1  0  0  0  0
 11 14  1  0  0  0  0
  9 10  1  0  0  0  0
  9 11  1  0  0  0  0
  9 17  1  0  0  0  0
  7  8  1  0  0  0  0
  7  9  1  0  0  0  0
 21 22  1  0  0  0  0
 21 23  1  0  0  0  0
 21 24  1  0  0  0  0
 19 20  1  0  0  0  0
 19 21  1  0  0  0  0
M  CHG  1  15  -1
M  END
$$$$
default_name
  -OEChem-02102213163D

 24 23  0     1  0  0  0  0  0999 V2000
   -2.8347   -3.7166    0.8034 H   0  0  0  0  0  0  0  0  0  0  0  0
   -2.7728   -2.7096    0.3954 C   0  0  0  0  0  0  0  0  0  0  0  0
   -3.4267   -2.0426    0.9524 H   0  0  0  0  0  0  0  0  0  0  0  0
   -3.0538   -2.7186   -0.6556 H   0  0  0  0  0  0  0  0  0  0  0  0
   -1.3498   -2.2206    0.5184 C   0  0  0  0  0  0  0  0  0  0  0  0
   -0.4997   -2.9426    1.0194 O   0  0  0  0  0  0  0  0  0  0  0  0
   -1.1198   -0.9926    0.0674 N   0  0  0  0  0  0  0  0  0  0  0  0
   -1.8978   -0.4486   -0.2716 H   0  0  0  0  0  0  0  0  0  0  0  0
    0.1693   -0.2866    0.0854 C   0  0  1  0  0  0  0  0  0  0  0  0
    0.9043   -0.8713   -0.4705 H   0  0  0  0  0  0  0  0  0  0  0  0
    0.0106    1.0816   -0.6124 C   0  0  0  0  0  0  0  0  0  0  0  0
    0.8765    1.7005   -0.3710 H   0  0  0  0  0  0  0  0  0  0  0  0
    0.0031    0.9265   -1.6935 H   0  0  0  0  0  0  0  0  0  0  0  0
   -1.2477    1.8636   -0.2040 C   0  0  0  0  0  0  0  0  0  0  0  0
   -2.2082    1.9153   -1.0081 O   0  5  0  0  0  0  0  0  0  0  0  0
   -1.2295    2.4245    0.9128 O   0  0  0  0  0  0  0  0  0  0  0  0
    0.6664   -0.1450    1.5428 C   0  0  0  0  0  0  0  0  0  0  0  0
    1.8485   -0.3724    1.8265 O   0  0  0  0  0  0  0  0  0  0  0  0
   -0.2161    0.2434    2.4686 N   0  0  0  0  0  0  0  0  0  0  0  0
   -1.1850    0.3219    2.1537 H   0  0  0  0  0  0  0  0  0  0  0  0
    0.0735    0.4128    3.8885 C   0  0  0  0  0  0  0  0  0  0  0  0
    1.0159    0.9483    4.0105 H   0  0  0  0  0  0  0  0  0  0  0  0
   -0.7315    0.9748    4.3613 H   0  0  0  0  0  0  0  0  0  0  0  0
    0.1564   -0.5677    4.3577 H   0  0  0  0  0  0  0  0  0  0  0  0
  5  6  2  0  0  0  0
  5  7  1  0  0  0  0
  2  3  1  0  0  0  0
  2  4  1  0  0  0  0
  2  5  1  0  0  0  0
  1  2  1  0  0  0  0
 17 18  2  0  0  0  0
 17 19  1  0  0  0  0
 14 15  1  0  0  0  0
 14 16  2  0  0  0  0
 11 12  1  0  0  0  0
 11 13  1  0  0  0  0
 11 14  1  0  0  0  0
  9 10  1  0  0  0  0
  9 11  1  0  0  0  0
  9 17  1  0  0  0  0
  7  8  1  0  0  0  0
  7  9  1  0  0  0  0
 21 22  1  0  0  0  0
 21 23  1  0  0  0  0
 21 24  1  0  0  0  0
 19 20  1  0  0  0  0
 19 21  1  0  0  0  0
M  CHG  1  15  -1
M  END
$$$$
default_name
  -OEChem-02102213163D

 24 23  0     1  0  0  0  0  0999 V2000
   -2.8347   -3.7166    0.8034 H   0  0  0  0  0  0  0  0  0  0  0  0
   -2.7728   -2.7096    0.3954 C   0  0  0  0  0  0  0  0  0  0  0  0
   -3.4267   -2.0426    0.9524 H   0  0  0  0  0  0  0  0  0  0  0  0
   -3.0538   -2.7186   -0.6556 H   0  0  0  0  0  0  0  0  0  0  0  0
   -1.3498   -2.2206    0.5184 C   0  0  0  0  0  0  0  0  0  0  0  0
   -0.4997   -2.9426    1.0194 O   0  0  0  0  0  0  0  0  0  0  0  0
   -1.1198   -0.9926    0.0674 N   0  0  0  0  0  0  0  0  0  0  0  0
   -1.8978   -0.4486   -0.2716 H   0  0  0  0  0  0  0  0  0  0  0  0
    0.1693   -0.2866    0.0854 C   0  0  1  0  0  0  0  0  0  0  0  0
    0.9043   -0.8713   -0.4705 H   0  0  0  0  0  0  0  0  0  0  0  0
    0.0106    1.0816   -0.6124 C   0  0  0  0  0  0  0  0  0  0  0  0
    0.8765    1.7005   -0.3710 H   0  0  0  0  0  0  0  0  0  0  0  0
    0.0031    0.9265   -1.6935 H   0  0  0  0  0  0  0  0  0  0  0  0
   -1.2477    1.8636   -0.2040 C   0  0  0  0  0  0  0  0  0  0  0  0
   -2.3016    1.6875   -0.8597 O   0  5  0  0  0  0  0  0  0  0  0  0
   -1.1374    2.6531    0.7586 O   0  0  0  0  0  0  0  0  0  0  0  0
    0.6664   -0.1450    1.5428 C   0  0  0  0  0  0  0  0  0  0  0  0
    1.8485   -0.3724    1.8265 O   0  0  0  0  0  0  0  0  0  0  0  0
   -0.2161    0.2434    2.4686 N   0  0  0  0  0  0  0  0  0  0  0  0
   -1.1850    0.3219    2.1537 H   0  0  0  0  0  0  0  0  0  0  0  0
    0.0735    0.4128    3.8885 C   0  0  0  0  0  0  0  0  0  0  0  0
    1.0159    0.9483    4.0105 H   0  0  0  0  0  0  0  0  0  0  0  0
   -0.7315    0.9748    4.3613 H   0  0  0  0  0  0  0  0  0  0  0  0
    0.1564   -0.5677    4.3577 H   0  0  0  0  0  0  0  0  0  0  0  0
  5  6  2  0  0  0  0
  5  7  1  0  0  0  0
  2  3  1  0  0  0  0
  2  4  1  0  0  0  0
  2  5  1  0  0  0  0
  1  2  1  0  0  0  0
 17 18  2  0  0  0  0
 17 19  1  0  0  0  0
 14 15  1  0  0  0  0
 14 16  2  0  0  0  0
 11 12  1  0  0  0  0
 11 13  1  0  0  0  0
 11 14  1  0  0  0  0
  9 10  1  0  0  0  0
  9 11  1  0  0  0  0
  9 17  1  0  0  0  0
  7  8  1  0  0  0  0
  7  9  1  0  0  0  0
 21 22  1  0  0  0  0
 21 23  1  0  0  0  0
 21 24  1  0  0  0  0
 19 20  1  0  0  0  0
 19 21  1  0  0  0  0
M  CHG  1  15  -1
M  END
$$$$
default_name
  -OEChem-02102213163D

 24 23  0     1  0  0  0  0  0999 V2000
   -2.8347   -3.7166    0.8034 H   0  0  0  0  0  0  0  0  0  0  0  0
   -2.7728   -2.7096    0.3954 C   0  0  0  0  0  0  0  0  0  0  0  0
   -3.4267   -2.0426    0.9524 H   0  0  0  0  0  0  0  0  0  0  0  0
   -3.0538   -2.7186   -0.6556 H   0  0  0  0  0  0  0  0  0  0  0  0
   -1.3498   -2.2206    0.5184 C   0  0  0  0  0  0  0  0  0  0  0  0
   -0.4997   -2.9426    1.0194 O   0  0  0  0  0  0  0  0  0  0  0  0
   -1.1198   -0.9926    0.0674 N   0  0  0  0  0  0  0  0  0  0  0  0
   -1.8978   -0.4486   -0.2716 H   0  0  0  0  0  0  0  0  0  0  0  0
    0.1693   -0.2866    0.0854 C   0  0  1  0  0  0  0  0  0  0  0  0
    0.9043   -0.8713   -0.4705 H   0  0  0  0  0  0  0  0  0  0  0  0
    0.0106    1.0816   -0.6124 C   0  0  0  0  0  0  0  0  0  0  0  0
    0.8765    1.7005   -0.3710 H   0  0  0  0  0  0  0  0  0  0  0  0
    0.0031    0.9265   -1.6935 H   0  0  0  0  0  0  0  0  0  0  0  0
   -1.2477    1.8636   -0.2040 C   0  0  0  0  0  0  0  0  0  0  0  0
   -2.3566    1.4924   -0.6558 O   0  5  0  0  0  0  0  0  0  0  0  0
   -1.0845    2.8477    0.5491 O   0  0  0  0  0  0  0  0  0  0  0  0
    0.6664   -0.1450    1.5428 C   0  0  0  0  0  0  0  0  0  0  0  0
    1.8485   -0.3724    1.8265 O   0  0  0  0  0  0  0  0  0  0  0  0
   -0.2161    0.2434    2.4686 N   0  0  0  0  0  0  0  0  0  0  0  0
   -1.1850    0.3219    2.1537 H   0  0  0  0  0  0  0  0  0  0  0  0
    0.0735    0.4128    3.8885 C   0  0  0  0  0  0  0  0  0  0  0  0
    1.0159    0.9483    4.0105 H   0  0  0  0  0  0  0  0  0  0  0  0
   -0.7315    0.9748    4.3613 H   0  0  0  0  0  0  0  0  0  0  0  0
    0.1564   -0.5677    4.3577 H   0  0  0  0  0  0  0  0  0  0  0  0
  5  6  2  0  0  0  0
  5  7  1  0  0  0  0
  2  3  1  0  0  0  0
  2  4  1  0  0  0  0
  2  5  1  0  0  0  0
  1  2  1  0  0  0  0
 17 18  2  0  0  0  0
 17 19  1  0  0  0  0
 14 15  1  0  0  0  0
 14 16  2  0  0  0  0
 11 12  1  0  0  0  0
 11 13  1  0  0  0  0
 11 14  1  0  0  0  0
  9 10  1  0  0  0  0
  9 11  1  0  0  0  0
  9 17  1  0  0  0  0
  7  8  1  0  0  0  0
  7  9  1  0  0  0  0
 21 22  1  0  0  0  0
 21 23  1  0  0  0  0
 21 24  1  0  0  0  0
 19 20  1  0  0  0  0
 19 21  1  0  0  0  0
M  CHG  1  15  -1
M  END
$$$$
default_name
  -OEChem-02102213163D

 24 23  0     1  0  0  0  0  0999 V2000
   -2.8347   -3.7166    0.8034 H   0  0  0  0  0  0  0  0  0  0  0  0
   -2.7728   -2.7096    0.3954 C   0  0  0  0  0  0  0  0  0  0  0  0
   -3.4267   -2.0426    0.9524 H   0  0  0  0  0  0  0  0  0  0  0  0
   -3.0538   -2.7186   -0.6556 H   0  0  0  0  0  0  0  0  0  0  0  0
   -1.3498   -2.2206    0.5184 C   0  0  0  0  0  0  0  0  0  0  0  0
   -0.4997   -2.9426    1.0194 O   0  0  0  0  0  0  0  0  0  0  0  0
   -1.1198   -0.9926    0.0674 N   0  0  0  0  0  0  0  0  0  0  0  0
   -1.8978   -0.4486   -0.2716 H   0  0  0  0  0  0  0  0  0  0  0  0
    0.1693   -0.2866    0.0854 C   0  0  1  0  0  0  0  0  0  0  0  0
    0.9043   -0.8713   -0.4705 H   0  0  0  0  0  0  0  0  0  0  0  0
    0.0106    1.0816   -0.6124 C   0  0  0  0  0  0  0  0  0  0  0  0
    0.8765    1.7005   -0.3710 H   0  0  0  0  0  0  0  0  0  0  0  0
    0.0031    0.9265   -1.6935 H   0  0  0  0  0  0  0  0  0  0  0  0
   -1.2477    1.8636   -0.2040 C   0  0  0  0  0  0  0  0  0  0  0  0
   -2.3695    1.3434   -0.4103 O   0  5  0  0  0  0  0  0  0  0  0  0
   -1.0744    2.9948    0.2985 O   0  0  0  0  0  0  0  0  0  0  0  0
    0.6664   -0.1450    1.5428 C   0  0  0  0  0  0  0  0  0  0  0  0
    1.8485   -0.3724    1.8265 O   0  0  0  0  0  0  0  0  0  0  0  0
   -0.2161    0.2434    2.4686 N   0  0  0  0  0  0  0  0  0  0  0  0
   -1.1850    0.3219    2.1537 H   0  0  0  0  0  0  0  0  0  0  0  0
    0.0735    0.4128    3.8885 C   0  0  0  0  0  0  0  0  0  0  0  0
    1.0159    0.9483    4.0105 H   0  0  0  0  0  0  0  0  0  0  0  0
   -0.7315    0.9748    4.3613 H   0  0  0  0  0  0  0  0  0  0  0  0
    0.1564   -0.5677    4.3577 H   0  0  0  0  0  0  0  0  0  0  0  0
  5  6  2  0  0  0  0
  5  7  1  0  0  0  0
  2  3  1  0  0  0  0
  2  4  1  0  0  0  0
  2  5  1  0  0  0  0
  1  2  1  0  0  0  0
 17 18  2  0  0  0  0
 17 19  1  0  0  0  0
 14 15  1  0  0  0  0
 14 16  2  0  0  0  0
 11 12  1  0  0  0  0
 11 13  1  0  0  0  0
 11 14  1  0  0  0  0
  9 10  1  0  0  0  0
  9 11  1  0  0  0  0
  9 17  1  0  0  0  0
  7  8  1  0  0  0  0
  7  9  1  0  0  0  0
 21 22  1  0  0  0  0
 21 23  1  0  0  0  0
 21 24  1  0  0  0  0
 19 20  1  0  0  0  0
 19 21  1  0  0  0  0
M  CHG  1  15  -1
M  END
$$$$
default_name
  -OEChem-02102213163D

 24 23  0     1  0  0  0  0  0999 V2000
   -2.8347   -3.7166    0.8034 H   0  0  0  0  0  0  0  0  0  0  0  0
   -2.7728   -2.7096    0.3954 C   0  0  0  0  0  0  0  0  0  0  0  0
   -3.4267   -2.0426    0.9524 H   0  0  0  0  0  0  0  0  0  0  0  0
   -3.0538   -2.7186   -0.6556 H   0  0  0  0  0  0  0  0  0  0  0  0
   -1.3498   -2.2206    0.5184 C   0  0  0  0  0  0  0  0  0  0  0  0
   -0.4997   -2.9426    1.0194 O   0  0  0  0  0  0  0  0  0  0  0  0
   -1.1198   -0.9926    0.0674 N   0  0  0  0  0  0  0  0  0  0  0  0
   -1.8978   -0.4486   -0.2716 H   0  0  0  0  0  0  0  0  0  0  0  0
    0.1693   -0.2866    0.0854 C   0  0  1  0  0  0  0  0  0  0  0  0
    0.9043   -0.8713   -0.4705 H   0  0  0  0  0  0  0  0  0  0  0  0
    0.0106    1.0816   -0.6124 C   0  0  0  0  0  0  0  0  0  0  0  0
    0.8765    1.7005   -0.3710 H   0  0  0  0  0  0  0  0  0  0  0  0
    0.0031    0.9265   -1.6935 H   0  0  0  0  0  0  0  0  0  0  0  0
   -1.2477    1.8636   -0.2040 C   0  0  0  0  0  0  0  0  0  0  0  0
   -2.3394    1.2507   -0.1398 O   0  5  0  0  0  0  0  0  0  0  0  0
   -1.1078    3.0845    0.0240 O   0  0  0  0  0  0  0  0  0  0  0  0
    0.6664   -0.1450    1.5428 C   0  0  0  0  0  0  0  0  0  0  0  0
    1.8485   -0.3724    1.8265 O   0  0  0  0  0  0  0  0  0  0  0  0
   -0.2161    0.2434    2.4686 N   0  0  0  0  0  0  0  0  0  0  0  0
   -1.1850    0.3219    2.1537 H   0  0  0  0  0  0  0  0  0  0  0  0
    0.0735    0.4128    3.8885 C   0  0  0  0  0  0  0  0  0  0  0  0
    1.0159    0.9483    4.0105 H   0  0  0  0  0  0  0  0  0  0  0  0
   -0.7315    0.9748    4.3613 H   0  0  0  0  0  0  0  0  0  0  0  0
    0.1564   -0.5677    4.3577 H   0  0  0  0  0  0  0  0  0  0  0  0
  5  6  2  0  0  0  0
  5  7  1  0  0  0  0
  2  3  1  0  0  0  0
  2  4  1  0  0  0  0
  2  5  1  0  0  0  0
  1  2  1  0  0  0  0
 17 18  2  0  0  0  0
 17 19  1  0  0  0  0
 14 15  1  0  0  0  0
 14 16  2  0  0  0  0
 11 12  1  0  0  0  0
 11 13  1  0  0  0  0
 11 14  1  0  0  0  0
  9 10  1  0  0  0  0
  9 11  1  0  0  0  0
  9 17  1  0  0  0  0
  7  8  1  0  0  0  0
  7  9  1  0  0  0  0
 21 22  1  0  0  0  0
 21 23  1  0  0  0  0
 21 24  1  0  0  0  0
 19 20  1  0  0  0  0
 19 21  1  0  0  0  0
M  CHG  1  15  -1
M  END
$$$$
default_name
  -OEChem-02102213163D

 24 23  0     1  0  0  0  0  0999 V2000
   -2.8347   -3.7166    0.8034 H   0  0  0  0  0  0  0  0  0  0  0  0
   -2.7728   -2.7096    0.3954 C   0  0  0  0  0  0  0  0  0  0  0  0
   -3.4267   -2.0426    0.9524 H   0  0  0  0  0  0  0  0  0  0  0  0
   -3.0538   -2.7186   -0.6556 H   0  0  0  0  0  0  0  0  0  0  0  0
   -1.3498   -2.2206    0.5184 C   0  0  0  0  0  0  0  0  0  0  0  0
   -0.4997   -2.9426    1.0194 O   0  0  0  0  0  0  0  0  0  0  0  0
   -1.1198   -0.9926    0.0674 N   0  0  0  0  0  0  0  0  0  0  0  0
   -1.8978   -0.4486   -0.2716 H   0  0  0  0  0  0  0  0  0  0  0  0
    0.1693   -0.2866    0.0854 C   0  0  1  0  0  0  0  0  0  0  0  0
    0.9043   -0.8713   -0.4705 H   0  0  0  0  0  0  0  0  0  0  0  0
    0.0106    1.0816   -0.6124 C   0  0  0  0  0  0  0  0  0  0  0  0
    0.8765    1.7005   -0.3710 H   0  0  0  0  0  0  0  0  0  0  0  0
    0.0031    0.9265   -1.6935 H   0  0  0  0  0  0  0  0  0  0  0  0
   -1.2477    1.8636   -0.2040 C   0  0  0  0  0  0  0  0  0  0  0  0
   -2.2683    1.2205    0.1371 O   0  5  0  0  0  0  0  0  0  0  0  0
   -1.1823    3.1107   -0.2558 O   0  0  0  0  0  0  0  0  0  0  0  0
    0.6664   -0.1450    1.5428 C   0  0  0  0  0  0  0  0  0  0  0  0
    1.8485   -0.3724    1.8265 O   0  0  0  0  0  0  0  0  0  0  0  0
   -0.2161    0.2434    2.4686 N   0  0  0  0  0  0  0  0  0  0  0  0
   -1.1850    0.3219    2.1537 H   0  0  0  0  0  0  0  0  0  0  0  0
    0.0735    0.4128    3.8885 C   0  0  0  0  0  0  0  0  0  0  0  0
    1.0159    0.9483    4.0105 H   0  0  0  0  0  0  0  0  0  0  0  0
   -0.7315    0.9748    4.3613 H   0  0  0  0  0  0  0  0  0  0  0  0
    0.1564   -0.5677    4.3577 H   0  0  0  0  0  0  0  0  0  0  0  0
  5  6  2  0  0  0  0
  5  7  1  0  0  0  0
  2  3  1  0  0  0  0
  2  4  1  0  0  0  0
  2  5  1  0  0  0  0
  1  2  1  0  0  0  0
 17 18  2  0  0  0  0
 17 19  1  0  0  0  0
 14 15  1  0  0  0  0
 14 16  2  0  0  0  0
 11 12  1  0  0  0  0
 11 13  1  0  0  0  0
 11 14  1  0  0  0  0
  9 10  1  0  0  0  0
  9 11  1  0  0  0  0
  9 17  1  0  0  0  0
  7  8  1  0  0  0  0
  7  9  1  0  0  0  0
 21 22  1  0  0  0  0
 21 23  1  0  0  0  0
 21 24  1  0  0  0  0
 19 20  1  0  0  0  0
 19 21  1  0  0  0  0
M  CHG  1  15  -1
M  END
$$$$
default_name
  -OEChem-02102213163D

 24 23  0     1  0  0  0  0  0999 V2000
   -2.8347   -3.7166    0.8034 H   0  0  0  0  0  0  0  0  0  0  0  0
   -2.7728   -2.7096    0.3954 C   0  0  0  0  0  0  0  0  0  0  0  0
   -3.4267   -2.0426    0.9524 H   0  0  0  0  0  0  0  0  0  0  0  0
   -3.0538   -2.7186   -0.6556 H   0  0  0  0  0  0  0  0  0  0  0  0
   -1.3498   -2.2206    0.5184 C   0  0  0  0  0  0  0  0  0  0  0  0
   -0.4997   -2.9426    1.0194 O   0  0  0  0  0  0  0  0  0  0  0  0
   -1.1198   -0.9926    0.0674 N   0  0  0  0  0  0  0  0  0  0  0  0
   -1.8978   -0.4486   -0.2716 H   0  0  0  0  0  0  0  0  0  0  0  0
    0.1693   -0.2866    0.0854 C   0  0  1  0  0  0  0  0  0  0  0  0
    0.9043   -0.8713   -0.4705 H   0  0  0  0  0  0  0  0  0  0  0  0
    0.0106    1.0816   -0.6124 C   0  0  0  0  0  0  0  0  0  0  0  0
    0.8765    1.7005   -0.3710 H   0  0  0  0  0  0  0  0  0  0  0  0
    0.0031    0.9265   -1.6935 H   0  0  0  0  0  0  0  0  0  0  0  0
   -1.2477    1.8636   -0.2040 C   0  0  0  0  0  0  0  0  0  0  0  0
   -2.1611    1.2548    0.4016 O   0  5  0  0  0  0  0  0  0  0  0  0
   -1.2930    3.0716   -0.5218 O   0  0  0  0  0  0  0  0  0  0  0  0
    0.6664   -0.1450    1.5428 C   0  0  0  0  0  0  0  0  0  0  0  0
    1.8485   -0.3724    1.8265 O   0  0  0  0  0  0  0  0  0  0  0  0
   -0.2161    0.2434    2.4686 N   0  0  0  0  0  0  0  0  0  0  0  0
   -1.1850    0.3219    2.1537 H   0  0  0  0  0  0  0  0  0  0  0  0
    0.0735    0.4128    3.8885 C   0  0  0  0  0  0  0  0  0  0  0  0
    1.0159    0.9483    4.0105 H   0  0  0  0  0  0  0  0  0  0  0  0
   -0.7315    0.9748    4.3613 H   0  0  0  0  0  0  0  0  0  0  0  0
    0.1564   -0.5677    4.3577 H   0  0  0  0  0  0  0  0  0  0  0  0
  5  6  2  0  0  0  0
  5  7  1  0  0  0  0
  2  3  1  0  0  0  0
  2  4  1  0  0  0  0
  2  5  1  0  0  0  0
  1  2  1  0  0  0  0
 17 18  2  0  0  0  0
 17 19  1  0  0  0  0
 14 15  1  0  0  0  0
 14 16  2  0  0  0  0
 11 12  1  0  0  0  0
 11 13  1  0  0  0  0
 11 14  1  0  0  0  0
  9 10  1  0  0  0  0
  9 11  1  0  0  0  0
  9 17  1  0  0  0  0
  7  8  1  0  0  0  0
  7  9  1  0  0  0  0
 21 22  1  0  0  0  0
 21 23  1  0  0  0  0
 21 24  1  0  0  0  0
 19 20  1  0  0  0  0
 19 21  1  0  0  0  0
M  CHG  1  15  -1
M  END
$$$$
default_name
  -OEChem-02102213163D

 24 23  0     1  0  0  0  0  0999 V2000
   -2.8347   -3.7166    0.8034 H   0  0  0  0  0  0  0  0  0  0  0  0
   -2.7728   -2.7096    0.3954 C   0  0  0  0  0  0  0  0  0  0  0  0
   -3.4267   -2.0426    0.9524 H   0  0  0  0  0  0  0  0  0  0  0  0
   -3.0538   -2.7186   -0.6556 H   0  0  0  0  0  0  0  0  0  0  0  0
   -1.3498   -2.2206    0.5184 C   0  0  0  0  0  0  0  0  0  0  0  0
   -0.4997   -2.9426    1.0194 O   0  0  0  0  0  0  0  0  0  0  0  0
   -1.1198   -0.9926    0.0674 N   0  0  0  0  0  0  0  0  0  0  0  0
   -1.8978   -0.4486   -0.2716 H   0  0  0  0  0  0  0  0  0  0  0  0
    0.1693   -0.2866    0.0854 C   0  0  1  0  0  0  0  0  0  0  0  0
    0.9043   -0.8713   -0.4705 H   0  0  0  0  0  0  0  0  0  0  0  0
    0.0106    1.0816   -0.6124 C   0  0  0  0  0  0  0  0  0  0  0  0
    0.8765    1.7005   -0.3710 H   0  0  0  0  0  0  0  0  0  0  0  0
    0.0031    0.9265   -1.6935 H   0  0  0  0  0  0  0  0  0  0  0  0
   -1.2477    1.8636   -0.2040 C   0  0  0  0  0  0  0  0  0  0  0  0
   -2.0250    1.3515    0.6357 O   0  5  0  0  0  0  0  0  0  0  0  0
   -1.4322    2.9698   -0.7558 O   0  0  0  0  0  0  0  0  0  0  0  0
    0.6664   -0.1450    1.5428 C   0  0  0  0  0  0  0  0  0  0  0  0
    1.8485   -0.3724    1.8265 O   0  0  0  0  0  0  0  0  0  0  0  0
   -0.2161    0.2434    2.4686 N   0  0  0  0  0  0  0  0  0  0  0  0
   -1.1850    0.3219    2.1537 H   0  0  0  0  0  0  0  0  0  0  0  0
    0.0735    0.4128    3.8885 C   0  0  0  0  0  0  0  0  0  0  0  0
    1.0159    0.9483    4.0105 H   0  0  0  0  0  0  0  0  0  0  0  0
   -0.7315    0.9748    4.3613 H   0  0  0  0  0  0  0  0  0  0  0  0
    0.1564   -0.5677    4.3577 H   0  0  0  0  0  0  0  0  0  0  0  0
  5  6  2  0  0  0  0
  5  7  1  0  0  0  0
  2  3  1  0  0  0  0
  2  4  1  0  0  0  0
  2  5  1  0  0  0  0
  1  2  1  0  0  0  0
 17 18  2  0  0  0  0
 17 19  1  0  0  0  0
 14 15  1  0  0  0  0
 14 16  2  0  0  0  0
 11 12  1  0  0  0  0
 11 13  1  0  0  0  0
 11 14  1  0  0  0  0
  9 10  1  0  0  0  0
  9 11  1  0  0  0  0
  9 17  1  0  0  0  0
  7  8  1  0  0  0  0
  7  9  1  0  0  0  0
 21 22  1  0  0  0  0
 21 23  1  0  0  0  0
 21 24  1  0  0  0  0
 19 20  1  0  0  0  0
 19 21  1  0  0  0  0
M  CHG  1  15  -1
M  END
$$$$
default_name
  -OEChem-02102213163D

 24 23  0     1  0  0  0  0  0999 V2000
   -2.8347   -3.7166    0.8034 H   0  0  0  0  0  0  0  0  0  0  0  0
   -2.7728   -2.7096    0.3954 C   0  0  0  0  0  0  0  0  0  0  0  0
   -3.4267   -2.0426    0.9524 H   0  0  0  0  0  0  0  0  0  0  0  0
   -3.0538   -2.7186   -0.6556 H   0  0  0  0  0  0  0  0  0  0  0  0
   -1.3498   -2.2206    0.5184 C   0  0  0  0  0  0  0  0  0  0  0  0
   -0.4997   -2.9426    1.0194 O   0  0  0  0  0  0  0  0  0  0  0  0
   -1.1198   -0.9926    0.0674 N   0  0  0  0  0  0  0  0  0  0  0  0
   -1.8978   -0.4486   -0.2716 H   0  0  0  0  0  0  0  0  0  0  0  0
    0.1693   -0.2866    0.0854 C   0  0  1  0  0  0  0  0  0  0  0  0
    0.9043   -0.8713   -0.4705 H   0  0  0  0  0  0  0  0  0  0  0  0
    0.0106    1.0816   -0.6124 C   0  0  0  0  0  0  0  0  0  0  0  0
    0.8765    1.7005   -0.3710 H   0  0  0  0  0  0  0  0  0  0  0  0
    0.0031    0.9265   -1.6935 H   0  0  0  0  0  0  0  0  0  0  0  0
   -1.2477    1.8636   -0.2040 C   0  0  0  0  0  0  0  0  0  0  0  0
   -1.8695    1.5038    0.8234 O   0  5  0  0  0  0  0  0  0  0  0  0
   -1.5905    2.8123   -0.9420 O   0  0  0  0  0  0  0  0  0  0  0  0
    0.6664   -0.1450    1.5428 C   0  0  0  0  0  0  0  0  0  0  0  0
    1.8485   -0.3724    1.8265 O   0  0  0  0  0  0  0  0  0  0  0  0
   -0.2161    0.2434    2.4686 N   0  0  0  0  0  0  0  0  0  0  0  0
   -1.1850    0.3219    2.1537 H   0  0  0  0  0  0  0  0  0  0  0  0
    0.0735    0.4128    3.8885 C   0  0  0  0  0  0  0  0  0  0  0  0
    1.0159    0.9483    4.0105 H   0  0  0  0  0  0  0  0  0  0  0  0
   -0.7315    0.9748    4.3613 H   0  0  0  0  0  0  0  0  0  0  0  0
    0.1564   -0.5677    4.3577 H   0  0  0  0  0  0  0  0  0  0  0  0
  5  6  2  0  0  0  0
  5  7  1  0  0  0  0
  2  3  1  0  0  0  0
  2  4  1  0  0  0  0
  2  5  1  0  0  0  0
  1  2  1  0  0  0  0
 17 18  2  0  0  0  0
 17 19  1  0  0  0  0
 14 15  1  0  0  0  0
 14 16  2  0  0  0  0
 11 12  1  0  0  0  0
 11 13  1  0  0  0  0
 11 14  1  0  0  0  0
  9 10  1  0  0  0  0
  9 11  1  0  0  0  0
  9 17  1  0  0  0  0
  7  8  1  0  0  0  0
  7  9  1  0  0  0  0
 21 22  1  0  0  0  0
 21 23  1  0  0  0  0
 21 24  1  0  0  0  0
 19 20  1  0  0  0  0
 19 21  1  0  0  0  0
M  CHG  1  15  -1
M  END
$$$$
default_name
  -OEChem-02102213163D

 24 23  0     1  0  0  0  0  0999 V2000
   -2.8347   -3.7166    0.8034 H   0  0  0  0  0  0  0  0  0  0  0  0
   -2.7728   -2.7096    0.3954 C   0  0  0  0  0  0  0  0  0  0  0  0
   -3.4267   -2.0426    0.9524 H   0  0  0  0  0  0  0  0  0  0  0  0
   -3.0538   -2.7186   -0.6556 H   0  0  0  0  0  0  0  0  0  0  0  0
   -1.3498   -2.2206    0.5184 C   0  0  0  0  0  0  0  0  0  0  0  0
   -0.4997   -2.9426    1.0194 O   0  0  0  0  0  0  0  0  0  0  0  0
   -1.1198   -0.9926    0.0674 N   0  0  0  0  0  0  0  0  0  0  0  0
   -1.8978   -0.4486   -0.2716 H   0  0  0  0  0  0  0  0  0  0  0  0
    0.1693   -0.2866    0.0854 C   0  0  1  0  0  0  0  0  0  0  0  0
    0.9043   -0.8713   -0.4705 H   0  0  0  0  0  0  0  0  0  0  0  0
    0.0106    1.0816   -0.6124 C   0  0  0  0  0  0  0  0  0  0  0  0
    0.8765    1.7005   -0.3710 H   0  0  0  0  0  0  0  0  0  0  0  0
    0.0031    0.9265   -1.6935 H   0  0  0  0  0  0  0  0  0  0  0  0
   -1.2477    1.8636   -0.2040 C   0  0  0  0  0  0  0  0  0  0  0  0
   -1.7049    1.7014    0.9520 O   0  5  0  0  0  0  0  0  0  0  0  0
   -1.7571    2.6098   -1.0676 O   0  0  0  0  0  0  0  0  0  0  0  0
    0.6664   -0.1450    1.5428 C   0  0  0  0  0  0  0  0  0  0  0  0
    1.8485   -0.3724    1.8265 O   0  0  0  0  0  0  0  0  0  0  0  0
   -0.2161    0.2434    2.4686 N   0  0  0  0  0  0  0  0  0  0  0  0
   -1.1850    0.3219    2.1537 H   0  0  0  0  0  0  0  0  0  0  0  0
    0.0735    0.4128    3.8885 C   0  0  0  0  0  0  0  0  0  0  0  0
    1.0159    0.9483    4.0105 H   0  0  0  0  0  0  0  0  0  0  0  0
   -0.7315    0.9748    4.3613 H   0  0  0  0  0  0  0  0  0  0  0  0
    0.1564   -0.5677    4.3577 H   0  0  0  0  0  0  0  0  0  0  0  0
  5  6  2  0  0  0  0
  5  7  1  0  0  0  0
  2  3  1  0  0  0  0
  2  4  1  0  0  0  0
  2  5  1  0  0  0  0
  1  2  1  0  0  0  0
 17 18  2  0  0  0  0
 17 19  1  0  0  0  0
 14 15  1  0  0  0  0
 14 16  2  0  0  0  0
 11 12  1  0  0  0  0
 11 13  1  0  0  0  0
 11 14  1  0  0  0  0
  9 10  1  0  0  0  0
  9 11  1  0  0  0  0
  9 17  1  0  0  0  0
  7  8  1  0  0  0  0
  7  9  1  0  0  0  0
 21 22  1  0  0  0  0
 21 23  1  0  0  0  0
 21 24  1  0  0  0  0
 19 20  1  0  0  0  0
 19 21  1  0  0  0  0
M  CHG  1  15  -1
M  END
$$$$
default_name
  -OEChem-02102213163D

 24 23  0     1  0  0  0  0  0999 V2000
   -2.8347   -3.7166    0.8034 H   0  0  0  0  0  0  0  0  0  0  0  0
   -2.7728   -2.7096    0.3954 C   0  0  0  0  0  0  0  0  0  0  0  0
   -3.4267   -2.0426    0.9524 H   0  0  0  0  0  0  0  0  0  0  0  0
   -3.0538   -2.7186   -0.6556 H   0  0  0  0  0  0  0  0  0  0  0  0
   -1.3498   -2.2206    0.5184 C   0  0  0  0  0  0  0  0  0  0  0  0
   -0.4997   -2.9426    1.0194 O   0  0  0  0  0  0  0  0  0  0  0  0
   -1.1198   -0.9926    0.0674 N   0  0  0  0  0  0  0  0  0  0  0  0
   -1.8978   -0.4486   -0.2716 H   0  0  0  0  0  0  0  0  0  0  0  0
    0.1693   -0.2866    0.0854 C   0  0  1  0  0  0  0  0  0  0  0  0
    0.9043   -0.8713   -0.4705 H   0  0  0  0  0  0  0  0  0  0  0  0
    0.0106    1.0816   -0.6124 C   0  0  0  0  0  0  0  0  0  0  0  0
    0.8765    1.7005   -0.3710 H   0  0  0  0  0  0  0  0  0  0  0  0
    0.0031    0.9265   -1.6935 H   0  0  0  0  0  0  0  0  0  0  0  0
   -1.2477    1.8636   -0.2040 C   0  0  0  0  0  0  0  0  0  0  0  0
   -1.5427    1.9308    1.0126 O   0  5  0  0  0  0  0  0  0  0  0  0
   -1.9206    2.3762   -1.1241 O   0  0  0  0  0  0  0  0  0  0  0  0
    0.6664   -0.1450    1.5428 C   0  0  0  0  0  0  0  0  0  0  0  0
    1.8485   -0.3724    1.8265 O   0  0  0  0  0  0  0  0  0  0  0  0
   -0.2161    0.2434    2.4686 N   0  0  0  0  0  0  0  0  0  0  0  0
   -1.1850    0.3219    2.1537 H   0  0  0  0  0  0  0  0  0  0  0  0
    0.0735    0.4128    3.8885 C   0  0  0  0  0  0  0  0  0  0  0  0
    1.0159    0.9483    4.0105 H   0  0  0  0  0  0  0  0  0  0  0  0
   -0.7315    0.9748    4.3613 H   0  0  0  0  0  0  0  0  0  0  0  0
    0.1564   -0.5677    4.3577 H   0  0  0  0  0  0  0  0  0  0  0  0
  5  6  2  0  0  0  0
  5  7  1  0  0  0  0
  2  3  1  0  0  0  0
  2  4  1  0  0  0  0
  2  5  1  0  0  0  0
  1  2  1  0  0  0  0
 17 18  2  0  0  0  0
 17 19  1  0  0  0  0
 14 15  1  0  0  0  0
 14 16  2  0  0  0  0
 11 12  1  0  0  0  0
 11 13  1  0  0  0  0
 11 14  1  0  0  0  0
  9 10  1  0  0  0  0
  9 11  1  0  0  0  0
  9 17  1  0  0  0  0
  7  8  1  0  0  0  0
  7  9  1  0  0  0  0
 21 22  1  0  0  0  0
 21 23  1  0  0  0  0
 21 24  1  0  0  0  0
 19 20  1  0  0  0  0
 19 21  1  0  0  0  0
M  CHG  1  15  -1
M  END
$$$$
default_name
  -OEChem-02102213163D

 24 23  0     1  0  0  0  0  0999 V2000
   -2.8347   -3.7166    0.8034 H   0  0  0  0  0  0  0  0  0  0  0  0
   -2.7728   -2.7096    0.3954 C   0  0  0  0  0  0  0  0  0  0  0  0
   -3.4267   -2.0426    0.9524 H   0  0  0  0  0  0  0  0  0  0  0  0
   -3.0538   -2.7186   -0.6556 H   0  0  0  0  0  0  0  0  0  0  0  0
   -1.3498   -2.2206    0.5184 C   0  0  0  0  0  0  0  0  0  0  0  0
   -0.4997   -2.9426    1.0194 O   0  0  0  0  0  0  0  0  0  0  0  0
   -1.1198   -0.9926    0.0674 N   0  0  0  0  0  0  0  0  0  0  0  0
   -1.8978   -0.4486   -0.2716 H   0  0  0  0  0  0  0  0  0  0  0  0
    0.1693   -0.2866    0.0854 C   0  0  1  0  0  0  0  0  0  0  0  0
    0.9043   -0.8713   -0.4705 H   0  0  0  0  0  0  0  0  0  0  0  0
    0.0106    1.0816   -0.6124 C   0  0  0  0  0  0  0  0  0  0  0  0
    0.8765    1.7005   -0.3710 H   0  0  0  0  0  0  0  0  0  0  0  0
    0.0031    0.9265   -1.6935 H   0  0  0  0  0  0  0  0  0  0  0  0
   -1.2477    1.8636   -0.2040 C   0  0  0  0  0  0  0  0  0  0  0  0
   -1.3937    2.1765    1.0012 O   0  5  0  0  0  0  0  0  0  0  0  0
   -2.0700    2.1273   -1.1076 O   0  0  0  0  0  0  0  0  0  0  0  0
    0.6664   -0.1450    1.5428 C   0  0  0  0  0  0  0  0  0  0  0  0
    1.8485   -0.3724    1.8265 O   0  0  0  0  0  0  0  0  0  0  0  0
   -0.2161    0.2434    2.4686 N   0  0  0  0  0  0  0  0  0  0  0  0
   -1.1850    0.3219    2.1537 H   0  0  0  0  0  0  0  0  0  0  0  0
    0.0735    0.4128    3.8885 C   0  0  0  0  0  0  0  0  0  0  0  0
    1.0159    0.9483    4.0105 H   0  0  0  0  0  0  0  0  0  0  0  0
   -0.7315    0.9748    4.3613 H   0  0  0  0  0  0  0  0  0  0  0  0
    0.1564   -0.5677    4.3577 H   0  0  0  0  0  0  0  0  0  0  0  0
  5  6  2  0  0  0  0
  5  7  1  0  0  0  0
  2  3  1  0  0  0  0
  2  4  1  0  0  0  0
  2  5  1  0  0  0  0
  1  2  1  0  0  0  0
 17 18  2  0  0  0  0
 17 19  1  0  0  0  0
 14 15  1  0  0  0  0
 14 16  2  0  0  0  0
 11 12  1  0  0  0  0
 11 13  1  0  0  0  0
 11 14  1  0  0  0  0
  9 10  1  0  0  0  0
  9 11  1  0  0  0  0
  9 17  1  0  0  0  0
  7  8  1  0  0  0  0
  7  9  1  0  0  0  0
 21 22  1  0  0  0  0
 21 23  1  0  0  0  0
 21 24  1  0  0  0  0
 19 20  1  0  0  0  0
 19 21  1  0  0  0  0
M  CHG  1  15  -1
M  END
$$$$
default_name
  -OEChem-02102213163D

 24 23  0     1  0  0  0  0  0999 V2000
   -2.8347   -3.7166    0.8034 H   0  0  0  0  0  0  0  0  0  0  0  0
   -2.7728   -2.7096    0.3954 C   0  0  0  0  0  0  0  0  0  0  0  0
   -3.4267   -2.0426    0.9524 H   0  0  0  0  0  0  0  0  0  0  0  0
   -3.0538   -2.7186   -0.6556 H   0  0  0  0  0  0  0  0  0  0  0  0
   -1.3498   -2.2206    0.5184 C   0  0  0  0  0  0  0  0  0  0  0  0
   -0.4997   -2.9426    1.0194 O   0  0  0  0  0  0  0  0  0  0  0  0
   -1.1198   -0.9926    0.0674 N   0  0  0  0  0  0  0  0  0  0  0  0
   -1.8978   -0.4486   -0.2716 H   0  0  0  0  0  0  0  0  0  0  0  0
    0.1693   -0.2866    0.0854 C   0  0  1  0  0  0  0  0  0  0  0  0
    0.9043   -0.8713   -0.4705 H   0  0  0  0  0  0  0  0  0  0  0  0
    0.0106    1.0816   -0.6124 C   0  0  0  0  0  0  0  0  0  0  0  0
    0.8765    1.7005   -0.3710 H   0  0  0  0  0  0  0  0  0  0  0  0
    0.0031    0.9265   -1.6935 H   0  0  0  0  0  0  0  0  0  0  0  0
   -1.2477    1.8636   -0.2040 C   0  0  0  0  0  0  0  0  0  0  0  0
   -1.2682    2.4216    0.9184 O   0  5  0  0  0  0  0  0  0  0  0  0
   -2.1949    1.8801   -1.0193 O   0  0  0  0  0  0  0  0  0  0  0  0
    0.6664   -0.1450    1.5428 C   0  0  0  0  0  0  0  0  0  0  0  0
    1.8485   -0.3724    1.8265 O   0  0  0  0  0  0  0  0  0  0  0  0
   -0.2161    0.2434    2.4686 N   0  0  0  0  0  0  0  0  0  0  0  0
   -1.1850    0.3219    2.1537 H   0  0  0  0  0  0  0  0  0  0  0  0
    0.0735    0.4128    3.8885 C   0  0  0  0  0  0  0  0  0  0  0  0
    1.0159    0.9483    4.0105 H   0  0  0  0  0  0  0  0  0  0  0  0
   -0.7315    0.9748    4.3613 H   0  0  0  0  0  0  0  0  0  0  0  0
    0.1564   -0.5677    4.3577 H   0  0  0  0  0  0  0  0  0  0  0  0
  5  6  2  0  0  0  0
  5  7  1  0  0  0  0
  2  3  1  0  0  0  0
  2  4  1  0  0  0  0
  2  5  1  0  0  0  0
  1  2  1  0  0  0  0
 17 18  2  0  0  0  0
 17 19  1  0  0  0  0
 14 15  1  0  0  0  0
 14 16  2  0  0  0  0
 11 12  1  0  0  0  0
 11 13  1  0  0  0  0
 11 14  1  0  0  0  0
  9 10  1  0  0  0  0
  9 11  1  0  0  0  0
  9 17  1  0  0  0  0
  7  8  1  0  0  0  0
  7  9  1  0  0  0  0
 21 22  1  0  0  0  0
 21 23  1  0  0  0  0
 21 24  1  0  0  0  0
 19 20  1  0  0  0  0
 19 21  1  0  0  0  0
M  CHG  1  15  -1
M  END
$$$$
default_name
  -OEChem-02102213163D

 24 23  0     1  0  0  0  0  0999 V2000
   -2.8347   -3.7166    0.8034 H   0  0  0  0  0  0  0  0  0  0  0  0
   -2.7728   -2.7096    0.3954 C   0  0  0  0  0  0  0  0  0  0  0  0
   -3.4267   -2.0426    0.9524 H   0  0  0  0  0  0  0  0  0  0  0  0
   -3.0538   -2.7186   -0.6556 H   0  0  0  0  0  0  0  0  0  0  0  0
   -1.3498   -2.2206    0.5184 C   0  0  0  0  0  0  0  0  0  0  0  0
   -0.4997   -2.9426    1.0194 O   0  0  0  0  0  0  0  0  0  0  0  0
   -1.1198   -0.9926    0.0674 N   0  0  0  0  0  0  0  0  0  0  0  0
   -1.8978   -0.4486   -0.2716 H   0  0  0  0  0  0  0  0  0  0  0  0
    0.1693   -0.2866    0.0854 C   0  0  1  0  0  0  0  0  0  0  0  0
    0.9043   -0.8713   -0.4705 H   0  0  0  0  0  0  0  0  0  0  0  0
    0.0106    1.0816   -0.6124 C   0  0  0  0  0  0  0  0  0  0  0  0
    0.8765    1.7005   -0.3710 H   0  0  0  0  0  0  0  0  0  0  0  0
    0.0031    0.9265   -1.6935 H   0  0  0  0  0  0  0  0  0  0  0  0
   -1.2477    1.8636   -0.2040 C   0  0  0  0  0  0  0  0  0  0  0  0
   -1.1748    2.6494    0.7701 O   0  5  0  0  0  0  0  0  0  0  0  0
   -2.2870    1.6514   -0.8651 O   0  0  0  0  0  0  0  0  0  0  0  0
    0.6664   -0.1450    1.5428 C   0  0  0  0  0  0  0  0  0  0  0  0
    1.8485   -0.3724    1.8265 O   0  0  0  0  0  0  0  0  0  0  0  0
   -0.2161    0.2434    2.4686 N   0  0  0  0  0  0  0  0  0  0  0  0
   -1.1850    0.3219    2.1537 H   0  0  0  0  0  0  0  0  0  0  0  0
    0.0735    0.4128    3.8885 C   0  0  0  0  0  0  0  0  0  0  0  0
    1.0159    0.9483    4.0105 H   0  0  0  0  0  0  0  0  0  0  0  0
   -0.7315    0.9748    4.3613 H   0  0  0  0  0  0  0  0  0  0  0  0
    0.1564   -0.5677    4.3577 H   0  0  0  0  0  0  0  0  0  0  0  0
  5  6  2  0  0  0  0
  5  7  1  0  0  0  0
  2  3  1  0  0  0  0
  2  4  1  0  0  0  0
  2  5  1  0  0  0  0
  1  2  1  0  0  0  0
 17 18  2  0  0  0  0
 17 19  1  0  0  0  0
 14 15  1  0  0  0  0
 14 16  2  0  0  0  0
 11 12  1  0  0  0  0
 11 13  1  0  0  0  0
 11 14  1  0  0  0  0
  9 10  1  0  0  0  0
  9 11  1  0  0  0  0
  9 17  1  0  0  0  0
  7  8  1  0  0  0  0
  7  9  1  0  0  0  0
 21 22  1  0  0  0  0
 21 23  1  0  0  0  0
 21 24  1  0  0  0  0
 19 20  1  0  0  0  0
 19 21  1  0  0  0  0
M  CHG  1  15  -1
M  END
$$$$
default_name
  -OEChem-02102213163D

 24 23  0     1  0  0  0  0  0999 V2000
   -2.8347   -3.7166    0.8034 H   0  0  0  0  0  0  0  0  0  0  0  0
   -2.7728   -2.7096    0.3954 C   0  0  0  0  0  0  0  0  0  0  0  0
   -3.4267   -2.0426    0.9524 H   0  0  0  0  0  0  0  0  0  0  0  0
   -3.0538   -2.7186   -0.6556 H   0  0  0  0  0  0  0  0  0  0  0  0
   -1.3498   -2.2206    0.5184 C   0  0  0  0  0  0  0  0  0  0  0  0
   -0.4997   -2.9426    1.0194 O   0  0  0  0  0  0  0  0  0  0  0  0
   -1.1198   -0.9926    0.0674 N   0  0  0  0  0  0  0  0  0  0  0  0
   -1.8978   -0.4486   -0.2716 H   0  0  0  0  0  0  0  0  0  0  0  0
    0.1693   -0.2866    0.0854 C   0  0  1  0  0  0  0  0  0  0  0  0
    0.9043   -0.8713   -0.4705 H   0  0  0  0  0  0  0  0  0  0  0  0
    0.0106    1.0816   -0.6124 C   0  0  0  0  0  0  0  0  0  0  0  0
    0.8765    1.7005   -0.3710 H   0  0  0  0  0  0  0  0  0  0  0  0
    0.0031    0.9265   -1.6935 H   0  0  0  0  0  0  0  0  0  0  0  0
   -1.2477    1.8636   -0.2040 C   0  0  0  0  0  0  0  0  0  0  0  0
   -1.1198    2.8444    0.5662 O   0  5  0  0  0  0  0  0  0  0  0  0
   -2.3399    1.4569   -0.6556 O   0  0  0  0  0  0  0  0  0  0  0  0
    0.6664   -0.1450    1.5428 C   0  0  0  0  0  0  0  0  0  0  0  0
    1.8485   -0.3724    1.8265 O   0  0  0  0  0  0  0  0  0  0  0  0
   -0.2161    0.2434    2.4686 N   0  0  0  0  0  0  0  0  0  0  0  0
   -1.1850    0.3219    2.1537 H   0  0  0  0  0  0  0  0  0  0  0  0
    0.0735    0.4128    3.8885 C   0  0  0  0  0  0  0  0  0  0  0  0
    1.0159    0.9483    4.0105 H   0  0  0  0  0  0  0  0  0  0  0  0
   -0.7315    0.9748    4.3613 H   0  0  0  0  0  0  0  0  0  0  0  0
    0.1564   -0.5677    4.3577 H   0  0  0  0  0  0  0  0  0  0  0  0
  5  6  2  0  0  0  0
  5  7  1  0  0  0  0
  2  3  1  0  0  0  0
  2  4  1  0  0  0  0
  2  5  1  0  0  0  0
  1  2  1  0  0  0  0
 17 18  2  0  0  0  0
 17 19  1  0  0  0  0
 14 15  1  0  0  0  0
 14 16  2  0  0  0  0
 11 12  1  0  0  0  0
 11 13  1  0  0  0  0
 11 14  1  0  0  0  0
  9 10  1  0  0  0  0
  9 11  1  0  0  0  0
  9 17  1  0  0  0  0
  7  8  1  0  0  0  0
  7  9  1  0  0  0  0
 21 22  1  0  0  0  0
 21 23  1  0  0  0  0
 21 24  1  0  0  0  0
 19 20  1  0  0  0  0
 19 21  1  0  0  0  0
M  CHG  1  15  -1
M  END
$$$$
default_name
  -OEChem-02102213163D

 24 23  0     1  0  0  0  0  0999 V2000
   -2.8347   -3.7166    0.8034 H   0  0  0  0  0  0  0  0  0  0  0  0
   -2.7728   -2.7096    0.3954 C   0  0  0  0  0  0  0  0  0  0  0  0
   -3.4267   -2.0426    0.9524 H   0  0  0  0  0  0  0  0  0  0  0  0
   -3.0538   -2.7186   -0.6556 H   0  0  0  0  0  0  0  0  0  0  0  0
   -1.3498   -2.2206    0.5184 C   0  0  0  0  0  0  0  0  0  0  0  0
   -0.4997   -2.9426    1.0194 O   0  0  0  0  0  0  0  0  0  0  0  0
   -1.1198   -0.9926    0.0674 N   0  0  0  0  0  0  0  0  0  0  0  0
   -1.8978   -0.4486   -0.2716 H   0  0  0  0  0  0  0  0  0  0  0  0
    0.1693   -0.2866    0.0854 C   0  0  1  0  0  0  0  0  0  0  0  0
    0.9043   -0.8713   -0.4705 H   0  0  0  0  0  0  0  0  0  0  0  0
    0.0106    1.0816   -0.6124 C   0  0  0  0  0  0  0  0  0  0  0  0
    0.8765    1.7005   -0.3710 H   0  0  0  0  0  0  0  0  0  0  0  0
    0.0031    0.9265   -1.6935 H   0  0  0  0  0  0  0  0  0  0  0  0
   -1.2477    1.8636   -0.2040 C   0  0  0  0  0  0  0  0  0  0  0  0
   -1.1069    2.9934    0.3207 O   0  5  0  0  0  0  0  0  0  0  0  0
   -2.3500    1.3098   -0.4050 O   0  0  0  0  0  0  0  0  0  0  0  0
    0.6664   -0.1450    1.5428 C   0  0  0  0  0  0  0  0  0  0  0  0
    1.8485   -0.3724    1.8265 O   0  0  0  0  0  0  0  0  0  0  0  0
   -0.2161    0.2434    2.4686 N   0  0  0  0  0  0  0  0  0  0  0  0
   -1.1850    0.3219    2.1537 H   0  0  0  0  0  0  0  0  0  0  0  0
    0.0735    0.4128    3.8885 C   0  0  0  0  0  0  0  0  0  0  0  0
    1.0159    0.9483    4.0105 H   0  0  0  0  0  0  0  0  0  0  0  0
   -0.7315    0.9748    4.3613 H   0  0  0  0  0  0  0  0  0  0  0  0
    0.1564   -0.5677    4.3577 H   0  0  0  0  0  0  0  0  0  0  0  0
  5  6  2  0  0  0  0
  5  7  1  0  0  0  0
  2  3  1  0  0  0  0
  2  4  1  0  0  0  0
  2  5  1  0  0  0  0
  1  2  1  0  0  0  0
 17 18  2  0  0  0  0
 17 19  1  0  0  0  0
 14 15  1  0  0  0  0
 14 16  2  0  0  0  0
 11 12  1  0  0  0  0
 11 13  1  0  0  0  0
 11 14  1  0  0  0  0
  9 10  1  0  0  0  0
  9 11  1  0  0  0  0
  9 17  1  0  0  0  0
  7  8  1  0  0  0  0
  7  9  1  0  0  0  0
 21 22  1  0  0  0  0
 21 23  1  0  0  0  0
 21 24  1  0  0  0  0
 19 20  1  0  0  0  0
 19 21  1  0  0  0  0
M  CHG  1  15  -1
M  END
$$$$
default_name
  -OEChem-02102213163D

 24 23  0     1  0  0  0  0  0999 V2000
   -2.8347   -3.7166    0.8034 H   0  0  0  0  0  0  0  0  0  0  0  0
   -2.7728   -2.7096    0.3954 C   0  0  0  0  0  0  0  0  0  0  0  0
   -3.4267   -2.0426    0.9524 H   0  0  0  0  0  0  0  0  0  0  0  0
   -3.0538   -2.7186   -0.6556 H   0  0  0  0  0  0  0  0  0  0  0  0
   -1.3498   -2.2206    0.5184 C   0  0  0  0  0  0  0  0  0  0  0  0
   -0.4997   -2.9426    1.0194 O   0  0  0  0  0  0  0  0  0  0  0  0
   -1.1198   -0.9926    0.0674 N   0  0  0  0  0  0  0  0  0  0  0  0
   -1.8978   -0.4486   -0.2716 H   0  0  0  0  0  0  0  0  0  0  0  0
    0.1693   -0.2866    0.0854 C   0  0  1  0  0  0  0  0  0  0  0  0
    0.9043   -0.8713   -0.4705 H   0  0  0  0  0  0  0  0  0  0  0  0
    0.0106    1.0816   -0.6124 C   0  0  0  0  0  0  0  0  0  0  0  0
    0.8765    1.7005   -0.3710 H   0  0  0  0  0  0  0  0  0  0  0  0
    0.0031    0.9265   -1.6935 H   0  0  0  0  0  0  0  0  0  0  0  0
   -1.2477    1.8636   -0.2040 C   0  0  0  0  0  0  0  0  0  0  0  0
   -1.1370    3.0862    0.0502 O   0  5  0  0  0  0  0  0  0  0  0  0
   -2.3166    1.2201   -0.1305 O   0  0  0  0  0  0  0  0  0  0  0  0
    0.6664   -0.1450    1.5428 C   0  0  0  0  0  0  0  0  0  0  0  0
    1.8485   -0.3724    1.8265 O   0  0  0  0  0  0  0  0  0  0  0  0
   -0.2161    0.2434    2.4686 N   0  0  0  0  0  0  0  0  0  0  0  0
   -1.1850    0.3219    2.1537 H   0  0  0  0  0  0  0  0  0  0  0  0
    0.0735    0.4128    3.8885 C   0  0  0  0  0  0  0  0  0  0  0  0
    1.0159    0.9483    4.0105 H   0  0  0  0  0  0  0  0  0  0  0  0
   -0.7315    0.9748    4.3613 H   0  0  0  0  0  0  0  0  0  0  0  0
    0.1564   -0.5677    4.3577 H   0  0  0  0  0  0  0  0  0  0  0  0
  5  6  2  0  0  0  0
  5  7  1  0  0  0  0
  2  3  1  0  0  0  0
  2  4  1  0  0  0  0
  2  5  1  0  0  0  0
  1  2  1  0  0  0  0
 17 18  2  0  0  0  0
 17 19  1  0  0  0  0
 14 15  1  0  0  0  0
 14 16  2  0  0  0  0
 11 12  1  0  0  0  0
 11 13  1  0  0  0  0
 11 14  1  0  0  0  0
  9 10  1  0  0  0  0
  9 11  1  0  0  0  0
  9 17  1  0  0  0  0
  7  8  1  0  0  0  0
  7  9  1  0  0  0  0
 21 22  1  0  0  0  0
 21 23  1  0  0  0  0
 21 24  1  0  0  0  0
 19 20  1  0  0  0  0
 19 21  1  0  0  0  0
M  CHG  1  15  -1
M  END
$$$$
default_name
  -OEChem-02102213163D

 24 23  0     1  0  0  0  0  0999 V2000
   -2.8347   -3.7166    0.8034 H   0  0  0  0  0  0  0  0  0  0  0  0
   -2.7728   -2.7096    0.3954 C   0  0  0  0  0  0  0  0  0  0  0  0
   -3.4267   -2.0426    0.9524 H   0  0  0  0  0  0  0  0  0  0  0  0
   -3.0538   -2.7186   -0.6556 H   0  0  0  0  0  0  0  0  0  0  0  0
   -1.3498   -2.2206    0.5184 C   0  0  0  0  0  0  0  0  0  0  0  0
   -0.4997   -2.9426    1.0194 O   0  0  0  0  0  0  0  0  0  0  0  0
   -1.1198   -0.9926    0.0674 N   0  0  0  0  0  0  0  0  0  0  0  0
   -1.8978   -0.4486   -0.2716 H   0  0  0  0  0  0  0  0  0  0  0  0
    0.1693   -0.2866    0.0854 C   0  0  1  0  0  0  0  0  0  0  0  0
    0.9043   -0.8713   -0.4705 H   0  0  0  0  0  0  0  0  0  0  0  0
    0.0106    1.0816   -0.6124 C   0  0  0  0  0  0  0  0  0  0  0  0
    0.8765    1.7005   -0.3710 H   0  0  0  0  0  0  0  0  0  0  0  0
    0.0031    0.9265   -1.6935 H   0  0  0  0  0  0  0  0  0  0  0  0
   -1.2477    1.8636   -0.2040 C   0  0  0  0  0  0  0  0  0  0  0  0
   -1.2081    3.1164   -0.2267 O   0  5  0  0  0  0  0  0  0  0  0  0
   -2.2421    1.1939    0.1493 O   0  0  0  0  0  0  0  0  0  0  0  0
    0.6664   -0.1450    1.5428 C   0  0  0  0  0  0  0  0  0  0  0  0
    1.8485   -0.3724    1.8265 O   0  0  0  0  0  0  0  0  0  0  0  0
   -0.2161    0.2434    2.4686 N   0  0  0  0  0  0  0  0  0  0  0  0
   -1.1850    0.3219    2.1537 H   0  0  0  0  0  0  0  0  0  0  0  0
    0.0735    0.4128    3.8885 C   0  0  0  0  0  0  0  0  0  0  0  0
    1.0159    0.9483    4.0105 H   0  0  0  0  0  0  0  0  0  0  0  0
   -0.7315    0.9748    4.3613 H   0  0  0  0  0  0  0  0  0  0  0  0
    0.1564   -0.5677    4.3577 H   0  0  0  0  0  0  0  0  0  0  0  0
  5  6  2  0  0  0  0
  5  7  1  0  0  0  0
  2  3  1  0  0  0  0
  2  4  1  0  0  0  0
  2  5  1  0  0  0  0
  1  2  1  0  0  0  0
 17 18  2  0  0  0  0
 17 19  1  0  0  0  0
 14 15  1  0  0  0  0
 14 16  2  0  0  0  0
 11 12  1  0  0  0  0
 11 13  1  0  0  0  0
 11 14  1  0  0  0  0
  9 10  1  0  0  0  0
  9 11  1  0  0  0  0
  9 17  1  0  0  0  0
  7  8  1  0  0  0  0
  7  9  1  0  0  0  0
 21 22  1  0  0  0  0
 21 23  1  0  0  0  0
 21 24  1  0  0  0  0
 19 20  1  0  0  0  0
 19 21  1  0  0  0  0
M  CHG  1  15  -1
M  END
$$$$
default_name
  -OEChem-02102213163D

 24 23  0     1  0  0  0  0  0999 V2000
   -2.8347   -3.7166    0.8034 H   0  0  0  0  0  0  0  0  0  0  0  0
   -2.7728   -2.7096    0.3954 C   0  0  0  0  0  0  0  0  0  0  0  0
   -3.4267   -2.0426    0.9524 H   0  0  0  0  0  0  0  0  0  0  0  0
   -3.0538   -2.7186   -0.6556 H   0  0  0  0  0  0  0  0  0  0  0  0
   -1.3498   -2.2206    0.5184 C   0  0  0  0  0  0  0  0  0  0  0  0
   -0.4997   -2.9426    1.0194 O   0  0  0  0  0  0  0  0  0  0  0  0
   -1.1198   -0.9926    0.0674 N   0  0  0  0  0  0  0  0  0  0  0  0
   -1.8978   -0.4486   -0.2716 H   0  0  0  0  0  0  0  0  0  0  0  0
    0.1693   -0.2866    0.0854 C   0  0  1  0  0  0  0  0  0  0  0  0
    0.9043   -0.8713   -0.4705 H   0  0  0  0  0  0  0  0  0  0  0  0
    0.0106    1.0816   -0.6124 C   0  0  0  0  0  0  0  0  0  0  0  0
    0.8765    1.7005   -0.3710 H   0  0  0  0  0  0  0  0  0  0  0  0
    0.0031    0.9265   -1.6935 H   0  0  0  0  0  0  0  0  0  0  0  0
   -1.2477    1.8636   -0.2040 C   0  0  0  0  0  0  0  0  0  0  0  0
   -1.3153    3.0820   -0.4912 O   0  5  0  0  0  0  0  0  0  0  0  0
   -2.1314    1.2330    0.4153 O   0  0  0  0  0  0  0  0  0  0  0  0
    0.6664   -0.1450    1.5428 C   0  0  0  0  0  0  0  0  0  0  0  0
    1.8485   -0.3724    1.8265 O   0  0  0  0  0  0  0  0  0  0  0  0
   -0.2161    0.2434    2.4686 N   0  0  0  0  0  0  0  0  0  0  0  0
   -1.1850    0.3219    2.1537 H   0  0  0  0  0  0  0  0  0  0  0  0
    0.0735    0.4128    3.8885 C   0  0  0  0  0  0  0  0  0  0  0  0
    1.0159    0.9483    4.0105 H   0  0  0  0  0  0  0  0  0  0  0  0
   -0.7315    0.9748    4.3613 H   0  0  0  0  0  0  0  0  0  0  0  0
    0.1564   -0.5677    4.3577 H   0  0  0  0  0  0  0  0  0  0  0  0
  5  6  2  0  0  0  0
  5  7  1  0  0  0  0
  2  3  1  0  0  0  0
  2  4  1  0  0  0  0
  2  5  1  0  0  0  0
  1  2  1  0  0  0  0
 17 18  2  0  0  0  0
 17 19  1  0  0  0  0
 14 15  1  0  0  0  0
 14 16  2  0  0  0  0
 11 12  1  0  0  0  0
 11 13  1  0  0  0  0
 11 14  1  0  0  0  0
  9 10  1  0  0  0  0
  9 11  1  0  0  0  0
  9 17  1  0  0  0  0
  7  8  1  0  0  0  0
  7  9  1  0  0  0  0
 21 22  1  0  0  0  0
 21 23  1  0  0  0  0
 21 24  1  0  0  0  0
 19 20  1  0  0  0  0
 19 21  1  0  0  0  0
M  CHG  1  15  -1
M  END
$$$$
default_name
  -OEChem-02102213163D

 24 23  0     1  0  0  0  0  0999 V2000
   -2.8347   -3.7166    0.8034 H   0  0  0  0  0  0  0  0  0  0  0  0
   -2.7728   -2.7096    0.3954 C   0  0  0  0  0  0  0  0  0  0  0  0
   -3.4267   -2.0426    0.9524 H   0  0  0  0  0  0  0  0  0  0  0  0
   -3.0538   -2.7186   -0.6556 H   0  0  0  0  0  0  0  0  0  0  0  0
   -1.3498   -2.2206    0.5184 C   0  0  0  0  0  0  0  0  0  0  0  0
   -0.4997   -2.9426    1.0194 O   0  0  0  0  0  0  0  0  0  0  0  0
   -1.1198   -0.9926    0.0674 N   0  0  0  0  0  0  0  0  0  0  0  0
   -1.8978   -0.4486   -0.2716 H   0  0  0  0  0  0  0  0  0  0  0  0
    0.1693   -0.2866    0.0854 C   0  0  1  0  0  0  0  0  0  0  0  0
    0.9043   -0.8713   -0.4705 H   0  0  0  0  0  0  0  0  0  0  0  0
    0.0106    1.0816   -0.6124 C   0  0  0  0  0  0  0  0  0  0  0  0
    0.9736    1.5951   -0.5997 H   0  0  0  0  0  0  0  0  0  0  0  0
   -0.2640    0.9145   -1.6563 H   0  0  0  0  0  0  0  0  0  0  0  0
   -1.0219    2.0142    0.0400 C   0  0  0  0  0  0  0  0  0  0  0  0
   -1.2114    3.1455   -0.4659 O   0  5  0  0  0  0  0  0  0  0  0  0
   -1.6045    1.5898    1.0611 O   0  0  0  0  0  0  0  0  0  0  0  0
    0.6664   -0.1450    1.5428 C   0  0  0  0  0  0  0  0  0  0  0  0
    1.8485   -0.3724    1.8265 O   0  0  0  0  0  0  0  0  0  0  0  0
   -0.2161    0.2434    2.4686 N   0  0  0  0  0  0  0  0  0  0  0  0
   -1.1850    0.3219    2.1537 H   0  0  0  0  0  0  0  0  0  0  0  0
    0.0735    0.4128    3.8885 C   0  0  0  0  0  0  0  0  0  0  0  0
    1.0159    0.9483    4.0105 H   0  0  0  0  0  0  0  0  0  0  0  0
   -0.7315    0.9748    4.3613 H   0  0  0  0  0  0  0  0  0  0  0  0
    0.1564   -0.5677    4.3577 H   0  0  0  0  0  0  0  0  0  0  0  0
  5  6  2  0  0  0  0
  5  7  1  0  0  0  0
  2  3  1  0  0  0  0
  2  4  1  0  0  0  0
  2  5  1  0  0  0  0
  1  2  1  0  0  0  0
 17 18  2  0  0  0  0
 17 19  1  0  0  0  0
 14 15  1  0  0  0  0
 14 16  2  0  0  0  0
 11 12  1  0  0  0  0
 11 13  1  0  0  0  0
 11 14  1  0  0  0  0
  9 10  1  0  0  0  0
  9 11  1  0  0  0  0
  9 17  1  0  0  0  0
  7  8  1  0  0  0  0
  7  9  1  0  0  0  0
 21 22  1  0  0  0  0
 21 23  1  0  0  0  0
 21 24  1  0  0  0  0
 19 20  1  0  0  0  0
 19 21  1  0  0  0  0
M  CHG  1  15  -1
M  END
$$$$
default_name
  -OEChem-02102213163D

 24 23  0     1  0  0  0  0  0999 V2000
   -2.8347   -3.7166    0.8034 H   0  0  0  0  0  0  0  0  0  0  0  0
   -2.7728   -2.7096    0.3954 C   0  0  0  0  0  0  0  0  0  0  0  0
   -3.4267   -2.0426    0.9524 H   0  0  0  0  0  0  0  0  0  0  0  0
   -3.0538   -2.7186   -0.6556 H   0  0  0  0  0  0  0  0  0  0  0  0
   -1.3498   -2.2206    0.5184 C   0  0  0  0  0  0  0  0  0  0  0  0
   -0.4997   -2.9426    1.0194 O   0  0  0  0  0  0  0  0  0  0  0  0
   -1.1198   -0.9926    0.0674 N   0  0  0  0  0  0  0  0  0  0  0  0
   -1.8978   -0.4486   -0.2716 H   0  0  0  0  0  0  0  0  0  0  0  0
    0.1693   -0.2866    0.0854 C   0  0  1  0  0  0  0  0  0  0  0  0
    0.9043   -0.8713   -0.4705 H   0  0  0  0  0  0  0  0  0  0  0  0
    0.0106    1.0816   -0.6124 C   0  0  0  0  0  0  0  0  0  0  0  0
    0.9736    1.5951   -0.5997 H   0  0  0  0  0  0  0  0  0  0  0  0
   -0.2640    0.9145   -1.6563 H   0  0  0  0  0  0  0  0  0  0  0  0
   -1.0219    2.0142    0.0400 C   0  0  0  0  0  0  0  0  0  0  0  0
   -1.4224    3.0106   -0.6070 O   0  5  0  0  0  0  0  0  0  0  0  0
   -1.3906    1.7295    1.1998 O   0  0  0  0  0  0  0  0  0  0  0  0
    0.6664   -0.1450    1.5428 C   0  0  0  0  0  0  0  0  0  0  0  0
    1.8485   -0.3724    1.8265 O   0  0  0  0  0  0  0  0  0  0  0  0
   -0.2161    0.2434    2.4686 N   0  0  0  0  0  0  0  0  0  0  0  0
   -1.1850    0.3219    2.1537 H   0  0  0  0  0  0  0  0  0  0  0  0
    0.0735    0.4128    3.8885 C   0  0  0  0  0  0  0  0  0  0  0  0
    1.0159    0.9483    4.0105 H   0  0  0  0  0  0  0  0  0  0  0  0
   -0.7315    0.9748    4.3613 H   0  0  0  0  0  0  0  0  0  0  0  0
    0.1564   -0.5677    4.3577 H   0  0  0  0  0  0  0  0  0  0  0  0
  5  6  2  0  0  0  0
  5  7  1  0  0  0  0
  2  3  1  0  0  0  0
  2  4  1  0  0  0  0
  2  5  1  0  0  0  0
  1  2  1  0  0  0  0
 17 18  2  0  0  0  0
 17 19  1  0  0  0  0
 14 15  1  0  0  0  0
 14 16  2  0  0  0  0
 11 12  1  0  0  0  0
 11 13  1  0  0  0  0
 11 14  1  0  0  0  0
  9 10  1  0  0  0  0
  9 11  1  0  0  0  0
  9 17  1  0  0  0  0
  7  8  1  0  0  0  0
  7  9  1  0  0  0  0
 21 22  1  0  0  0  0
 21 23  1  0  0  0  0
 21 24  1  0  0  0  0
 19 20  1  0  0  0  0
 19 21  1  0  0  0  0
M  CHG  1  15  -1
M  END
$$$$
default_name
  -OEChem-02102213163D

 24 23  0     1  0  0  0  0  0999 V2000
   -2.8347   -3.7166    0.8034 H   0  0  0  0  0  0  0  0  0  0  0  0
   -2.7728   -2.7096    0.3954 C   0  0  0  0  0  0  0  0  0  0  0  0
   -3.4267   -2.0426    0.9524 H   0  0  0  0  0  0  0  0  0  0  0  0
   -3.0538   -2.7186   -0.6556 H   0  0  0  0  0  0  0  0  0  0  0  0
   -1.3498   -2.2206    0.5184 C   0  0  0  0  0  0  0  0  0  0  0  0
   -0.4997   -2.9426    1.0194 O   0  0  0  0  0  0  0  0  0  0  0  0
   -1.1198   -0.9926    0.0674 N   0  0  0  0  0  0  0  0  0  0  0  0
   -1.8978   -0.4486   -0.2716 H   0  0  0  0  0  0  0  0  0  0  0  0
    0.1693   -0.2866    0.0854 C   0  0  1  0  0  0  0  0  0  0  0  0
    0.9043   -0.8713   -0.4705 H   0  0  0  0  0  0  0  0  0  0  0  0
    0.0106    1.0816   -0.6124 C   0  0  0  0  0  0  0  0  0  0  0  0
    0.9736    1.5951   -0.5997 H   0  0  0  0  0  0  0  0  0  0  0  0
   -0.2640    0.9145   -1.6563 H   0  0  0  0  0  0  0  0  0  0  0  0
   -1.0219    2.0142    0.0400 C   0  0  0  0  0  0  0  0  0  0  0  0
   -1.6336    2.8325   -0.6866 O   0  5  0  0  0  0  0  0  0  0  0  0
   -1.1776    1.9121    1.2759 O   0  0  0  0  0  0  0  0  0  0  0  0
    0.6664   -0.1450    1.5428 C   0  0  0  0  0  0  0  0  0  0  0  0
    1.8485   -0.3724    1.8265 O   0  0  0  0  0  0  0  0  0  0  0  0
   -0.2161    0.2434    2.4686 N   0  0  0  0  0  0  0  0  0  0  0  0
   -1.1850    0.3219    2.1537 H   0  0  0  0  0  0  0  0  0  0  0  0
    0.0735    0.4128    3.8885 C   0  0  0  0  0  0  0  0  0  0  0  0
    1.0159    0.9483    4.0105 H   0  0  0  0  0  0  0  0  0  0  0  0
   -0.7315    0.9748    4.3613 H   0  0  0  0  0  0  0  0  0  0  0  0
    0.1564   -0.5677    4.3577 H   0  0  0  0  0  0  0  0  0  0  0  0
  5  6  2  0  0  0  0
  5  7  1  0  0  0  0
  2  3  1  0  0  0  0
  2  4  1  0  0  0  0
  2  5  1  0  0  0  0
  1  2  1  0  0  0  0
 17 18  2  0  0  0  0
 17 19  1  0  0  0  0
 14 15  1  0  0  0  0
 14 16  2  0  0  0  0
 11 12  1  0  0  0  0
 11 13  1  0  0  0  0
 11 14  1  0  0  0  0
  9 10  1  0  0  0  0
  9 11  1  0  0  0  0
  9 17  1  0  0  0  0
  7  8  1  0  0  0  0
  7  9  1  0  0  0  0
 21 22  1  0  0  0  0
 21 23  1  0  0  0  0
 21 24  1  0  0  0  0
 19 20  1  0  0  0  0
 19 21  1  0  0  0  0
M  CHG  1  15  -1
M  END
$$$$
default_name
  -OEChem-02102213163D

 24 23  0     1  0  0  0  0  0999 V2000
   -2.8347   -3.7166    0.8034 H   0  0  0  0  0  0  0  0  0  0  0  0
   -2.7728   -2.7096    0.3954 C   0  0  0  0  0  0  0  0  0  0  0  0
   -3.4267   -2.0426    0.9524 H   0  0  0  0  0  0  0  0  0  0  0  0
   -3.0538   -2.7186   -0.6556 H   0  0  0  0  0  0  0  0  0  0  0  0
   -1.3498   -2.2206    0.5184 C   0  0  0  0  0  0  0  0  0  0  0  0
   -0.4997   -2.9426    1.0194 O   0  0  0  0  0  0  0  0  0  0  0  0
   -1.1198   -0.9926    0.0674 N   0  0  0  0  0  0  0  0  0  0  0  0
   -1.8978   -0.4486   -0.2716 H   0  0  0  0  0  0  0  0  0  0  0  0
    0.1693   -0.2866    0.0854 C   0  0  1  0  0  0  0  0  0  0  0  0
    0.9043   -0.8713   -0.4705 H   0  0  0  0  0  0  0  0  0  0  0  0
    0.0106    1.0816   -0.6124 C   0  0  0  0  0  0  0  0  0  0  0  0
    0.9736    1.5951   -0.5997 H   0  0  0  0  0  0  0  0  0  0  0  0
   -0.2640    0.9145   -1.6563 H   0  0  0  0  0  0  0  0  0  0  0  0
   -1.0219    2.0142    0.0400 C   0  0  0  0  0  0  0  0  0  0  0  0
   -1.8305    2.6235   -0.6994 O   0  5  0  0  0  0  0  0  0  0  0  0
   -0.9799    2.1251    1.2842 O   0  0  0  0  0  0  0  0  0  0  0  0
    0.6664   -0.1450    1.5428 C   0  0  0  0  0  0  0  0  0  0  0  0
    1.8485   -0.3724    1.8265 O   0  0  0  0  0  0  0  0  0  0  0  0
   -0.2161    0.2434    2.4686 N   0  0  0  0  0  0  0  0  0  0  0  0
   -1.1850    0.3219    2.1537 H   0  0  0  0  0  0  0  0  0  0  0  0
    0.0735    0.4128    3.8885 C   0  0  0  0  0  0  0  0  0  0  0  0
    1.0159    0.9483    4.0105 H   0  0  0  0  0  0  0  0  0  0  0  0
   -0.7315    0.9748    4.3613 H   0  0  0  0  0  0  0  0  0  0  0  0
    0.1564   -0.5677    4.3577 H   0  0  0  0  0  0  0  0  0  0  0  0
  5  6  2  0  0  0  0
  5  7  1  0  0  0  0
  2  3  1  0  0  0  0
  2  4  1  0  0  0  0
  2  5  1  0  0  0  0
  1  2  1  0  0  0  0
 17 18  2  0  0  0  0
 17 19  1  0  0  0  0
 14 15  1  0  0  0  0
 14 16  2  0  0  0  0
 11 12  1  0  0  0  0
 11 13  1  0  0  0  0
 11 14  1  0  0  0  0
  9 10  1  0  0  0  0
  9 11  1  0  0  0  0
  9 17  1  0  0  0  0
  7  8  1  0  0  0  0
  7  9  1  0  0  0  0
 21 22  1  0  0  0  0
 21 23  1  0  0  0  0
 21 24  1  0  0  0  0
 19 20  1  0  0  0  0
 19 21  1  0  0  0  0
M  CHG  1  15  -1
M  END
$$$$
default_name
  -OEChem-02102213163D

 24 23  0     1  0  0  0  0  0999 V2000
   -2.8347   -3.7166    0.8034 H   0  0  0  0  0  0  0  0  0  0  0  0
   -2.7728   -2.7096    0.3954 C   0  0  0  0  0  0  0  0  0  0  0  0
   -3.4267   -2.0426    0.9524 H   0  0  0  0  0  0  0  0  0  0  0  0
   -3.0538   -2.7186   -0.6556 H   0  0  0  0  0  0  0  0  0  0  0  0
   -1.3498   -2.2206    0.5184 C   0  0  0  0  0  0  0  0  0  0  0  0
   -0.4997   -2.9426    1.0194 O   0  0  0  0  0  0  0  0  0  0  0  0
   -1.1198   -0.9926    0.0674 N   0  0  0  0  0  0  0  0  0  0  0  0
   -1.8978   -0.4486   -0.2716 H   0  0  0  0  0  0  0  0  0  0  0  0
    0.1693   -0.2866    0.0854 C   0  0  1  0  0  0  0  0  0  0  0  0
    0.9043   -0.8713   -0.4705 H   0  0  0  0  0  0  0  0  0  0  0  0
    0.0106    1.0816   -0.6124 C   0  0  0  0  0  0  0  0  0  0  0  0
    0.9736    1.5951   -0.5997 H   0  0  0  0  0  0  0  0  0  0  0  0
   -0.2640    0.9145   -1.6563 H   0  0  0  0  0  0  0  0  0  0  0  0
   -1.0219    2.0142    0.0400 C   0  0  0  0  0  0  0  0  0  0  0  0
   -1.9997    2.3977   -0.6445 O   0  5  0  0  0  0  0  0  0  0  0  0
   -0.8111    2.3541    1.2242 O   0  0  0  0  0  0  0  0  0  0  0  0
    0.6664   -0.1450    1.5428 C   0  0  0  0  0  0  0  0  0  0  0  0
    1.8485   -0.3724    1.8265 O   0  0  0  0  0  0  0  0  0  0  0  0
   -0.2161    0.2434    2.4686 N   0  0  0  0  0  0  0  0  0  0  0  0
   -1.1850    0.3219    2.1537 H   0  0  0  0  0  0  0  0  0  0  0  0
    0.0735    0.4128    3.8885 C   0  0  0  0  0  0  0  0  0  0  0  0
    1.0159    0.9483    4.0105 H   0  0  0  0  0  0  0  0  0  0  0  0
   -0.7315    0.9748    4.3613 H   0  0  0  0  0  0  0  0  0  0  0  0
    0.1564   -0.5677    4.3577 H   0  0  0  0  0  0  0  0  0  0  0  0
  5  6  2  0  0  0  0
  5  7  1  0  0  0  0
  2  3  1  0  0  0  0
  2  4  1  0  0  0  0
  2  5  1  0  0  0  0
  1  2  1  0  0  0  0
 17 18  2  0  0  0  0
 17 19  1  0  0  0  0
 14 15  1  0  0  0  0
 14 16  2  0  0  0  0
 11 12  1  0  0  0  0
 11 13  1  0  0  0  0
 11 14  1  0  0  0  0
  9 10  1  0  0  0  0
  9 11  1  0  0  0  0
  9 17  1  0  0  0  0
  7  8  1  0  0  0  0
  7  9  1  0  0  0  0
 21 22  1  0  0  0  0
 21 23  1  0  0  0  0
 21 24  1  0  0  0  0
 19 20  1  0  0  0  0
 19 21  1  0  0  0  0
M  CHG  1  15  -1
M  END
$$$$
default_name
  -OEChem-02102213163D

 24 23  0     1  0  0  0  0  0999 V2000
   -2.8347   -3.7166    0.8034 H   0  0  0  0  0  0  0  0  0  0  0  0
   -2.7728   -2.7096    0.3954 C   0  0  0  0  0  0  0  0  0  0  0  0
   -3.4267   -2.0426    0.9524 H   0  0  0  0  0  0  0  0  0  0  0  0
   -3.0538   -2.7186   -0.6556 H   0  0  0  0  0  0  0  0  0  0  0  0
   -1.3498   -2.2206    0.5184 C   0  0  0  0  0  0  0  0  0  0  0  0
   -0.4997   -2.9426    1.0194 O   0  0  0  0  0  0  0  0  0  0  0  0
   -1.1198   -0.9926    0.0674 N   0  0  0  0  0  0  0  0  0  0  0  0
   -1.8978   -0.4486   -0.2716 H   0  0  0  0  0  0  0  0  0  0  0  0
    0.1693   -0.2866    0.0854 C   0  0  1  0  0  0  0  0  0  0  0  0
    0.9043   -0.8713   -0.4705 H   0  0  0  0  0  0  0  0  0  0  0  0
    0.0106    1.0816   -0.6124 C   0  0  0  0  0  0  0  0  0  0  0  0
    0.9736    1.5951   -0.5997 H   0  0  0  0  0  0  0  0  0  0  0  0
   -0.2640    0.9145   -1.6563 H   0  0  0  0  0  0  0  0  0  0  0  0
   -1.0219    2.0142    0.0400 C   0  0  0  0  0  0  0  0  0  0  0  0
   -2.1298    2.1705   -0.5255 O   0  5  0  0  0  0  0  0  0  0  0  0
   -0.6826    2.5833    1.0998 O   0  0  0  0  0  0  0  0  0  0  0  0
    0.6664   -0.1450    1.5428 C   0  0  0  0  0  0  0  0  0  0  0  0
    1.8485   -0.3724    1.8265 O   0  0  0  0  0  0  0  0  0  0  0  0
   -0.2161    0.2434    2.4686 N   0  0  0  0  0  0  0  0  0  0  0  0
   -1.1850    0.3219    2.1537 H   0  0  0  0  0  0  0  0  0  0  0  0
    0.0735    0.4128    3.8885 C   0  0  0  0  0  0  0  0  0  0  0  0
    1.0159    0.9483    4.0105 H   0  0  0  0  0  0  0  0  0  0  0  0
   -0.7315    0.9748    4.3613 H   0  0  0  0  0  0  0  0  0  0  0  0
    0.1564   -0.5677    4.3577 H   0  0  0  0  0  0  0  0  0  0  0  0
  5  6  2  0  0  0  0
  5  7  1  0  0  0  0
  2  3  1  0  0  0  0
  2  4  1  0  0  0  0
  2  5  1  0  0  0  0
  1  2  1  0  0  0  0
 17 18  2  0  0  0  0
 17 19  1  0  0  0  0
 14 15  1  0  0  0  0
 14 16  2  0  0  0  0
 11 12  1  0  0  0  0
 11 13  1  0  0  0  0
 11 14  1  0  0  0  0
  9 10  1  0  0  0  0
  9 11  1  0  0  0  0
  9 17  1  0  0  0  0
  7  8  1  0  0  0  0
  7  9  1  0  0  0  0
 21 22  1  0  0  0  0
 21 23  1  0  0  0  0
 21 24  1  0  0  0  0
 19 20  1  0  0  0  0
 19 21  1  0  0  0  0
M  CHG  1  15  -1
M  END
$$$$
default_name
  -OEChem-02102213163D

 24 23  0     1  0  0  0  0  0999 V2000
   -2.8347   -3.7166    0.8034 H   0  0  0  0  0  0  0  0  0  0  0  0
   -2.7728   -2.7096    0.3954 C   0  0  0  0  0  0  0  0  0  0  0  0
   -3.4267   -2.0426    0.9524 H   0  0  0  0  0  0  0  0  0  0  0  0
   -3.0538   -2.7186   -0.6556 H   0  0  0  0  0  0  0  0  0  0  0  0
   -1.3498   -2.2206    0.5184 C   0  0  0  0  0  0  0  0  0  0  0  0
   -0.4997   -2.9426    1.0194 O   0  0  0  0  0  0  0  0  0  0  0  0
   -1.1198   -0.9926    0.0674 N   0  0  0  0  0  0  0  0  0  0  0  0
   -1.8978   -0.4486   -0.2716 H   0  0  0  0  0  0  0  0  0  0  0  0
    0.1693   -0.2866    0.0854 C   0  0  1  0  0  0  0  0  0  0  0  0
    0.9043   -0.8713   -0.4705 H   0  0  0  0  0  0  0  0  0  0  0  0
    0.0106    1.0816   -0.6124 C   0  0  0  0  0  0  0  0  0  0  0  0
    0.9736    1.5951   -0.5997 H   0  0  0  0  0  0  0  0  0  0  0  0
   -0.2640    0.9145   -1.6563 H   0  0  0  0  0  0  0  0  0  0  0  0
   -1.0219    2.0142    0.0400 C   0  0  0  0  0  0  0  0  0  0  0  0
   -2.2118    1.9575   -0.3508 O   0  5  0  0  0  0  0  0  0  0  0  0
   -0.6032    2.7972    0.9196 O   0  0  0  0  0  0  0  0  0  0  0  0
    0.6664   -0.1450    1.5428 C   0  0  0  0  0  0  0  0  0  0  0  0
    1.8485   -0.3724    1.8265 O   0  0  0  0  0  0  0  0  0  0  0  0
   -0.2161    0.2434    2.4686 N   0  0  0  0  0  0  0  0  0  0  0  0
   -1.1850    0.3219    2.1537 H   0  0  0  0  0  0  0  0  0  0  0  0
    0.0735    0.4128    3.8885 C   0  0  0  0  0  0  0  0  0  0  0  0
    1.0159    0.9483    4.0105 H   0  0  0  0  0  0  0  0  0  0  0  0
   -0.7315    0.9748    4.3613 H   0  0  0  0  0  0  0  0  0  0  0  0
    0.1564   -0.5677    4.3577 H   0  0  0  0  0  0  0  0  0  0  0  0
  5  6  2  0  0  0  0
  5  7  1  0  0  0  0
  2  3  1  0  0  0  0
  2  4  1  0  0  0  0
  2  5  1  0  0  0  0
  1  2  1  0  0  0  0
 17 18  2  0  0  0  0
 17 19  1  0  0  0  0
 14 15  1  0  0  0  0
 14 16  2  0  0  0  0
 11 12  1  0  0  0  0
 11 13  1  0  0  0  0
 11 14  1  0  0  0  0
  9 10  1  0  0  0  0
  9 11  1  0  0  0  0
  9 17  1  0  0  0  0
  7  8  1  0  0  0  0
  7  9  1  0  0  0  0
 21 22  1  0  0  0  0
 21 23  1  0  0  0  0
 21 24  1  0  0  0  0
 19 20  1  0  0  0  0
 19 21  1  0  0  0  0
M  CHG  1  15  -1
M  END
$$$$
default_name
  -OEChem-02102213163D

 24 23  0     1  0  0  0  0  0999 V2000
   -2.8347   -3.7166    0.8034 H   0  0  0  0  0  0  0  0  0  0  0  0
   -2.7728   -2.7096    0.3954 C   0  0  0  0  0  0  0  0  0  0  0  0
   -3.4267   -2.0426    0.9524 H   0  0  0  0  0  0  0  0  0  0  0  0
   -3.0538   -2.7186   -0.6556 H   0  0  0  0  0  0  0  0  0  0  0  0
   -1.3498   -2.2206    0.5184 C   0  0  0  0  0  0  0  0  0  0  0  0
   -0.4997   -2.9426    1.0194 O   0  0  0  0  0  0  0  0  0  0  0  0
   -1.1198   -0.9926    0.0674 N   0  0  0  0  0  0  0  0  0  0  0  0
   -1.8978   -0.4486   -0.2716 H   0  0  0  0  0  0  0  0  0  0  0  0
    0.1693   -0.2866    0.0854 C   0  0  1  0  0  0  0  0  0  0  0  0
    0.9043   -0.8713   -0.4705 H   0  0  0  0  0  0  0  0  0  0  0  0
    0.0106    1.0816   -0.6124 C   0  0  0  0  0  0  0  0  0  0  0  0
    0.9736    1.5951   -0.5997 H   0  0  0  0  0  0  0  0  0  0  0  0
   -0.2640    0.9145   -1.6563 H   0  0  0  0  0  0  0  0  0  0  0  0
   -1.0219    2.0142    0.0400 C   0  0  0  0  0  0  0  0  0  0  0  0
   -2.2401    1.7731   -0.1320 O   0  5  0  0  0  0  0  0  0  0  0  0
   -0.5783    2.9813    0.6959 O   0  0  0  0  0  0  0  0  0  0  0  0
    0.6664   -0.1450    1.5428 C   0  0  0  0  0  0  0  0  0  0  0  0
    1.8485   -0.3724    1.8265 O   0  0  0  0  0  0  0  0  0  0  0  0
   -0.2161    0.2434    2.4686 N   0  0  0  0  0  0  0  0  0  0  0  0
   -1.1850    0.3219    2.1537 H   0  0  0  0  0  0  0  0  0  0  0  0
    0.0735    0.4128    3.8885 C   0  0  0  0  0  0  0  0  0  0  0  0
    1.0159    0.9483    4.0105 H   0  0  0  0  0  0  0  0  0  0  0  0
   -0.7315    0.9748    4.3613 H   0  0  0  0  0  0  0  0  0  0  0  0
    0.1564   -0.5677    4.3577 H   0  0  0  0  0  0  0  0  0  0  0  0
  5  6  2  0  0  0  0
  5  7  1  0  0  0  0
  2  3  1  0  0  0  0
  2  4  1  0  0  0  0
  2  5  1  0  0  0  0
  1  2  1  0  0  0  0
 17 18  2  0  0  0  0
 17 19  1  0  0  0  0
 14 15  1  0  0  0  0
 14 16  2  0  0  0  0
 11 12  1  0  0  0  0
 11 13  1  0  0  0  0
 11 14  1  0  0  0  0
  9 10  1  0  0  0  0
  9 11  1  0  0  0  0
  9 17  1  0  0  0  0
  7  8  1  0  0  0  0
  7  9  1  0  0  0  0
 21 22  1  0  0  0  0
 21 23  1  0  0  0  0
 21 24  1  0  0  0  0
 19 20  1  0  0  0  0
 19 21  1  0  0  0  0
M  CHG  1  15  -1
M  END
$$$$
default_name
  -OEChem-02102213163D

 24 23  0     1  0  0  0  0  0999 V2000
   -2.8347   -3.7166    0.8034 H   0  0  0  0  0  0  0  0  0  0  0  0
   -2.7728   -2.7096    0.3954 C   0  0  0  0  0  0  0  0  0  0  0  0
   -3.4267   -2.0426    0.9524 H   0  0  0  0  0  0  0  0  0  0  0  0
   -3.0538   -2.7186   -0.6556 H   0  0  0  0  0  0  0  0  0  0  0  0
   -1.3498   -2.2206    0.5184 C   0  0  0  0  0  0  0  0  0  0  0  0
   -0.4997   -2.9426    1.0194 O   0  0  0  0  0  0  0  0  0  0  0  0
   -1.1198   -0.9926    0.0674 N   0  0  0  0  0  0  0  0  0  0  0  0
   -1.8978   -0.4486   -0.2716 H   0  0  0  0  0  0  0  0  0  0  0  0
    0.1693   -0.2866    0.0854 C   0  0  1  0  0  0  0  0  0  0  0  0
    0.9043   -0.8713   -0.4705 H   0  0  0  0  0  0  0  0  0  0  0  0
    0.0106    1.0816   -0.6124 C   0  0  0  0  0  0  0  0  0  0  0  0
    0.9736    1.5951   -0.5997 H   0  0  0  0  0  0  0  0  0  0  0  0
   -0.2640    0.9145   -1.6563 H   0  0  0  0  0  0  0  0  0  0  0  0
   -1.0219    2.0142    0.0400 C   0  0  0  0  0  0  0  0  0  0  0  0
   -2.2128    1.6299    0.1158 O   0  5  0  0  0  0  0  0  0  0  0  0
   -0.6097    3.1229    0.4440 O   0  0  0  0  0  0  0  0  0  0  0  0
    0.6664   -0.1450    1.5428 C   0  0  0  0  0  0  0  0  0  0  0  0
    1.8485   -0.3724    1.8265 O   0  0  0  0  0  0  0  0  0  0  0  0
   -0.2161    0.2434    2.4686 N   0  0  0  0  0  0  0  0  0  0  0  0
   -1.1850    0.3219    2.1537 H   0  0  0  0  0  0  0  0  0  0  0  0
    0.0735    0.4128    3.8885 C   0  0  0  0  0  0  0  0  0  0  0  0
    1.0159    0.9483    4.0105 H   0  0  0  0  0  0  0  0  0  0  0  0
   -0.7315    0.9748    4.3613 H   0  0  0  0  0  0  0  0  0  0  0  0
    0.1564   -0.5677    4.3577 H   0  0  0  0  0  0  0  0  0  0  0  0
  5  6  2  0  0  0  0
  5  7  1  0  0  0  0
  2  3  1  0  0  0  0
  2  4  1  0  0  0  0
  2  5  1  0  0  0  0
  1  2  1  0  0  0  0
 17 18  2  0  0  0  0
 17 19  1  0  0  0  0
 14 15  1  0  0  0  0
 14 16  2  0  0  0  0
 11 12  1  0  0  0  0
 11 13  1  0  0  0  0
 11 14  1  0  0  0  0
  9 10  1  0  0  0  0
  9 11  1  0  0  0  0
  9 17  1  0  0  0  0
  7  8  1  0  0  0  0
  7  9  1  0  0  0  0
 21 22  1  0  0  0  0
 21 23  1  0  0  0  0
 21 24  1  0  0  0  0
 19 20  1  0  0  0  0
 19 21  1  0  0  0  0
M  CHG  1  15  -1
M  END
$$$$
default_name
  -OEChem-02102213163D

 24 23  0     1  0  0  0  0  0999 V2000
   -2.8347   -3.7166    0.8034 H   0  0  0  0  0  0  0  0  0  0  0  0
   -2.7728   -2.7096    0.3954 C   0  0  0  0  0  0  0  0  0  0  0  0
   -3.4267   -2.0426    0.9524 H   0  0  0  0  0  0  0  0  0  0  0  0
   -3.0538   -2.7186   -0.6556 H   0  0  0  0  0  0  0  0  0  0  0  0
   -1.3498   -2.2206    0.5184 C   0  0  0  0  0  0  0  0  0  0  0  0
   -0.4997   -2.9426    1.0194 O   0  0  0  0  0  0  0  0  0  0  0  0
   -1.1198   -0.9926    0.0674 N   0  0  0  0  0  0  0  0  0  0  0  0
   -1.8978   -0.4486   -0.2716 H   0  0  0  0  0  0  0  0  0  0  0  0
    0.1693   -0.2866    0.0854 C   0  0  1  0  0  0  0  0  0  0  0  0
    0.9043   -0.8713   -0.4705 H   0  0  0  0  0  0  0  0  0  0  0  0
    0.0106    1.0816   -0.6124 C   0  0  0  0  0  0  0  0  0  0  0  0
    0.9736    1.5951   -0.5997 H   0  0  0  0  0  0  0  0  0  0  0  0
   -0.2640    0.9145   -1.6563 H   0  0  0  0  0  0  0  0  0  0  0  0
   -1.0219    2.0142    0.0400 C   0  0  0  0  0  0  0  0  0  0  0  0
   -2.1318    1.5377    0.3758 O   0  5  0  0  0  0  0  0  0  0  0  0
   -0.6951    3.2124    0.1809 O   0  0  0  0  0  0  0  0  0  0  0  0
    0.6664   -0.1450    1.5428 C   0  0  0  0  0  0  0  0  0  0  0  0
    1.8485   -0.3724    1.8265 O   0  0  0  0  0  0  0  0  0  0  0  0
   -0.2161    0.2434    2.4686 N   0  0  0  0  0  0  0  0  0  0  0  0
   -1.1850    0.3219    2.1537 H   0  0  0  0  0  0  0  0  0  0  0  0
    0.0735    0.4128    3.8885 C   0  0  0  0  0  0  0  0  0  0  0  0
    1.0159    0.9483    4.0105 H   0  0  0  0  0  0  0  0  0  0  0  0
   -0.7315    0.9748    4.3613 H   0  0  0  0  0  0  0  0  0  0  0  0
    0.1564   -0.5677    4.3577 H   0  0  0  0  0  0  0  0  0  0  0  0
  5  6  2  0  0  0  0
  5  7  1  0  0  0  0
  2  3  1  0  0  0  0
  2  4  1  0  0  0  0
  2  5  1  0  0  0  0
  1  2  1  0  0  0  0
 17 18  2  0  0  0  0
 17 19  1  0  0  0  0
 14 15  1  0  0  0  0
 14 16  2  0  0  0  0
 11 12  1  0  0  0  0
 11 13  1  0  0  0  0
 11 14  1  0  0  0  0
  9 10  1  0  0  0  0
  9 11  1  0  0  0  0
  9 17  1  0  0  0  0
  7  8  1  0  0  0  0
  7  9  1  0  0  0  0
 21 22  1  0  0  0  0
 21 23  1  0  0  0  0
 21 24  1  0  0  0  0
 19 20  1  0  0  0  0
 19 21  1  0  0  0  0
M  CHG  1  15  -1
M  END
$$$$
default_name
  -OEChem-02102213163D

 24 23  0     1  0  0  0  0  0999 V2000
   -2.8347   -3.7166    0.8034 H   0  0  0  0  0  0  0  0  0  0  0  0
   -2.7728   -2.7096    0.3954 C   0  0  0  0  0  0  0  0  0  0  0  0
   -3.4267   -2.0426    0.9524 H   0  0  0  0  0  0  0  0  0  0  0  0
   -3.0538   -2.7186   -0.6556 H   0  0  0  0  0  0  0  0  0  0  0  0
   -1.3498   -2.2206    0.5184 C   0  0  0  0  0  0  0  0  0  0  0  0
   -0.4997   -2.9426    1.0194 O   0  0  0  0  0  0  0  0  0  0  0  0
   -1.1198   -0.9926    0.0674 N   0  0  0  0  0  0  0  0  0  0  0  0
   -1.8978   -0.4486   -0.2716 H   0  0  0  0  0  0  0  0  0  0  0  0
    0.1693   -0.2866    0.0854 C   0  0  1  0  0  0  0  0  0  0  0  0
    0.9043   -0.8713   -0.4705 H   0  0  0  0  0  0  0  0  0  0  0  0
    0.0106    1.0816   -0.6124 C   0  0  0  0  0  0  0  0  0  0  0  0
    0.9736    1.5951   -0.5997 H   0  0  0  0  0  0  0  0  0  0  0  0
   -0.2640    0.9145   -1.6563 H   0  0  0  0  0  0  0  0  0  0  0  0
   -1.0219    2.0142    0.0400 C   0  0  0  0  0  0  0  0  0  0  0  0
   -2.0026    1.5028    0.6302 O   0  5  0  0  0  0  0  0  0  0  0  0
   -0.8287    3.2437   -0.0754 O   0  0  0  0  0  0  0  0  0  0  0  0
    0.6664   -0.1450    1.5428 C   0  0  0  0  0  0  0  0  0  0  0  0
    1.8485   -0.3724    1.8265 O   0  0  0  0  0  0  0  0  0  0  0  0
   -0.2161    0.2434    2.4686 N   0  0  0  0  0  0  0  0  0  0  0  0
   -1.1850    0.3219    2.1537 H   0  0  0  0  0  0  0  0  0  0  0  0
    0.0735    0.4128    3.8885 C   0  0  0  0  0  0  0  0  0  0  0  0
    1.0159    0.9483    4.0105 H   0  0  0  0  0  0  0  0  0  0  0  0
   -0.7315    0.9748    4.3613 H   0  0  0  0  0  0  0  0  0  0  0  0
    0.1564   -0.5677    4.3577 H   0  0  0  0  0  0  0  0  0  0  0  0
  5  6  2  0  0  0  0
  5  7  1  0  0  0  0
  2  3  1  0  0  0  0
  2  4  1  0  0  0  0
  2  5  1  0  0  0  0
  1  2  1  0  0  0  0
 17 18  2  0  0  0  0
 17 19  1  0  0  0  0
 14 15  1  0  0  0  0
 14 16  2  0  0  0  0
 11 12  1  0  0  0  0
 11 13  1  0  0  0  0
 11 14  1  0  0  0  0
  9 10  1  0  0  0  0
  9 11  1  0  0  0  0
  9 17  1  0  0  0  0
  7  8  1  0  0  0  0
  7  9  1  0  0  0  0
 21 22  1  0  0  0  0
 21 23  1  0  0  0  0
 21 24  1  0  0  0  0
 19 20  1  0  0  0  0
 19 21  1  0  0  0  0
M  CHG  1  15  -1
M  END
$$$$
default_name
  -OEChem-02102213163D

 24 23  0     1  0  0  0  0  0999 V2000
   -2.8347   -3.7166    0.8034 H   0  0  0  0  0  0  0  0  0  0  0  0
   -2.7728   -2.7096    0.3954 C   0  0  0  0  0  0  0  0  0  0  0  0
   -3.4267   -2.0426    0.9524 H   0  0  0  0  0  0  0  0  0  0  0  0
   -3.0538   -2.7186   -0.6556 H   0  0  0  0  0  0  0  0  0  0  0  0
   -1.3498   -2.2206    0.5184 C   0  0  0  0  0  0  0  0  0  0  0  0
   -0.4997   -2.9426    1.0194 O   0  0  0  0  0  0  0  0  0  0  0  0
   -1.1198   -0.9926    0.0674 N   0  0  0  0  0  0  0  0  0  0  0  0
   -1.8978   -0.4486   -0.2716 H   0  0  0  0  0  0  0  0  0  0  0  0
    0.1693   -0.2866    0.0854 C   0  0  1  0  0  0  0  0  0  0  0  0
    0.9043   -0.8713   -0.4705 H   0  0  0  0  0  0  0  0  0  0  0  0
    0.0106    1.0816   -0.6124 C   0  0  0  0  0  0  0  0  0  0  0  0
    0.9736    1.5951   -0.5997 H   0  0  0  0  0  0  0  0  0  0  0  0
   -0.2640    0.9145   -1.6563 H   0  0  0  0  0  0  0  0  0  0  0  0
   -1.0219    2.0142    0.0400 C   0  0  0  0  0  0  0  0  0  0  0  0
   -1.8340    1.5275    0.8617 O   0  5  0  0  0  0  0  0  0  0  0  0
   -1.0015    3.2147   -0.3074 O   0  0  0  0  0  0  0  0  0  0  0  0
    0.6664   -0.1450    1.5428 C   0  0  0  0  0  0  0  0  0  0  0  0
    1.8485   -0.3724    1.8265 O   0  0  0  0  0  0  0  0  0  0  0  0
   -0.2161    0.2434    2.4686 N   0  0  0  0  0  0  0  0  0  0  0  0
   -1.1850    0.3219    2.1537 H   0  0  0  0  0  0  0  0  0  0  0  0
    0.0735    0.4128    3.8885 C   0  0  0  0  0  0  0  0  0  0  0  0
    1.0159    0.9483    4.0105 H   0  0  0  0  0  0  0  0  0  0  0  0
   -0.7315    0.9748    4.3613 H   0  0  0  0  0  0  0  0  0  0  0  0
    0.1564   -0.5677    4.3577 H   0  0  0  0  0  0  0  0  0  0  0  0
  5  6  2  0  0  0  0
  5  7  1  0  0  0  0
  2  3  1  0  0  0  0
  2  4  1  0  0  0  0
  2  5  1  0  0  0  0
  1  2  1  0  0  0  0
 17 18  2  0  0  0  0
 17 19  1  0  0  0  0
 14 15  1  0  0  0  0
 14 16  2  0  0  0  0
 11 12  1  0  0  0  0
 11 13  1  0  0  0  0
 11 14  1  0  0  0  0
  9 10  1  0  0  0  0
  9 11  1  0  0  0  0
  9 17  1  0  0  0  0
  7  8  1  0  0  0  0
  7  9  1  0  0  0  0
 21 22  1  0  0  0  0
 21 23  1  0  0  0  0
 21 24  1  0  0  0  0
 19 20  1  0  0  0  0
 19 21  1  0  0  0  0
M  CHG  1  15  -1
M  END
$$$$
default_name
  -OEChem-02102213163D

 24 23  0     1  0  0  0  0  0999 V2000
   -2.8347   -3.7166    0.8034 H   0  0  0  0  0  0  0  0  0  0  0  0
   -2.7728   -2.7096    0.3954 C   0  0  0  0  0  0  0  0  0  0  0  0
   -3.4267   -2.0426    0.9524 H   0  0  0  0  0  0  0  0  0  0  0  0
   -3.0538   -2.7186   -0.6556 H   0  0  0  0  0  0  0  0  0  0  0  0
   -1.3498   -2.2206    0.5184 C   0  0  0  0  0  0  0  0  0  0  0  0
   -0.4997   -2.9426    1.0194 O   0  0  0  0  0  0  0  0  0  0  0  0
   -1.1198   -0.9926    0.0674 N   0  0  0  0  0  0  0  0  0  0  0  0
   -1.8978   -0.4486   -0.2716 H   0  0  0  0  0  0  0  0  0  0  0  0
    0.1693   -0.2866    0.0854 C   0  0  1  0  0  0  0  0  0  0  0  0
    0.9043   -0.8713   -0.4705 H   0  0  0  0  0  0  0  0  0  0  0  0
    0.0106    1.0816   -0.6124 C   0  0  0  0  0  0  0  0  0  0  0  0
    0.9736    1.5951   -0.5997 H   0  0  0  0  0  0  0  0  0  0  0  0
   -0.2640    0.9145   -1.6563 H   0  0  0  0  0  0  0  0  0  0  0  0
   -1.0219    2.0142    0.0400 C   0  0  0  0  0  0  0  0  0  0  0  0
   -1.6375    1.6101    1.0546 O   0  5  0  0  0  0  0  0  0  0  0  0
   -1.2017    3.1273   -0.4993 O   0  0  0  0  0  0  0  0  0  0  0  0
    0.6664   -0.1450    1.5428 C   0  0  0  0  0  0  0  0  0  0  0  0
    1.8485   -0.3724    1.8265 O   0  0  0  0  0  0  0  0  0  0  0  0
   -0.2161    0.2434    2.4686 N   0  0  0  0  0  0  0  0  0  0  0  0
   -1.1850    0.3219    2.1537 H   0  0  0  0  0  0  0  0  0  0  0  0
    0.0735    0.4128    3.8885 C   0  0  0  0  0  0  0  0  0  0  0  0
    1.0159    0.9483    4.0105 H   0  0  0  0  0  0  0  0  0  0  0  0
   -0.7315    0.9748    4.3613 H   0  0  0  0  0  0  0  0  0  0  0  0
    0.1564   -0.5677    4.3577 H   0  0  0  0  0  0  0  0  0  0  0  0
  5  6  2  0  0  0  0
  5  7  1  0  0  0  0
  2  3  1  0  0  0  0
  2  4  1  0  0  0  0
  2  5  1  0  0  0  0
  1  2  1  0  0  0  0
 17 18  2  0  0  0  0
 17 19  1  0  0  0  0
 14 15  1  0  0  0  0
 14 16  2  0  0  0  0
 11 12  1  0  0  0  0
 11 13  1  0  0  0  0
 11 14  1  0  0  0  0
  9 10  1  0  0  0  0
  9 11  1  0  0  0  0
  9 17  1  0  0  0  0
  7  8  1  0  0  0  0
  7  9  1  0  0  0  0
 21 22  1  0  0  0  0
 21 23  1  0  0  0  0
 21 24  1  0  0  0  0
 19 20  1  0  0  0  0
 19 21  1  0  0  0  0
M  CHG  1  15  -1
M  END
$$$$
default_name
  -OEChem-02102213163D

 24 23  0     1  0  0  0  0  0999 V2000
   -2.8347   -3.7166    0.8034 H   0  0  0  0  0  0  0  0  0  0  0  0
   -2.7728   -2.7096    0.3954 C   0  0  0  0  0  0  0  0  0  0  0  0
   -3.4267   -2.0426    0.9524 H   0  0  0  0  0  0  0  0  0  0  0  0
   -3.0538   -2.7186   -0.6556 H   0  0  0  0  0  0  0  0  0  0  0  0
   -1.3498   -2.2206    0.5184 C   0  0  0  0  0  0  0  0  0  0  0  0
   -0.4997   -2.9426    1.0194 O   0  0  0  0  0  0  0  0  0  0  0  0
   -1.1198   -0.9926    0.0674 N   0  0  0  0  0  0  0  0  0  0  0  0
   -1.8978   -0.4486   -0.2716 H   0  0  0  0  0  0  0  0  0  0  0  0
    0.1693   -0.2866    0.0854 C   0  0  1  0  0  0  0  0  0  0  0  0
    0.9043   -0.8713   -0.4705 H   0  0  0  0  0  0  0  0  0  0  0  0
    0.0106    1.0816   -0.6124 C   0  0  0  0  0  0  0  0  0  0  0  0
    0.9736    1.5951   -0.5997 H   0  0  0  0  0  0  0  0  0  0  0  0
   -0.2640    0.9145   -1.6563 H   0  0  0  0  0  0  0  0  0  0  0  0
   -1.0219    2.0142    0.0400 C   0  0  0  0  0  0  0  0  0  0  0  0
   -1.4264    1.7450    1.1957 O   0  5  0  0  0  0  0  0  0  0  0  0
   -1.4156    2.9876   -0.6381 O   0  0  0  0  0  0  0  0  0  0  0  0
    0.6664   -0.1450    1.5428 C   0  0  0  0  0  0  0  0  0  0  0  0
    1.8485   -0.3724    1.8265 O   0  0  0  0  0  0  0  0  0  0  0  0
   -0.2161    0.2434    2.4686 N   0  0  0  0  0  0  0  0  0  0  0  0
   -1.1850    0.3219    2.1537 H   0  0  0  0  0  0  0  0  0  0  0  0
    0.0735    0.4128    3.8885 C   0  0  0  0  0  0  0  0  0  0  0  0
    1.0159    0.9483    4.0105 H   0  0  0  0  0  0  0  0  0  0  0  0
   -0.7315    0.9748    4.3613 H   0  0  0  0  0  0  0  0  0  0  0  0
    0.1564   -0.5677    4.3577 H   0  0  0  0  0  0  0  0  0  0  0  0
  5  6  2  0  0  0  0
  5  7  1  0  0  0  0
  2  3  1  0  0  0  0
  2  4  1  0  0  0  0
  2  5  1  0  0  0  0
  1  2  1  0  0  0  0
 17 18  2  0  0  0  0
 17 19  1  0  0  0  0
 14 15  1  0  0  0  0
 14 16  2  0  0  0  0
 11 12  1  0  0  0  0
 11 13  1  0  0  0  0
 11 14  1  0  0  0  0
  9 10  1  0  0  0  0
  9 11  1  0  0  0  0
  9 17  1  0  0  0  0
  7  8  1  0  0  0  0
  7  9  1  0  0  0  0
 21 22  1  0  0  0  0
 21 23  1  0  0  0  0
 21 24  1  0  0  0  0
 19 20  1  0  0  0  0
 19 21  1  0  0  0  0
M  CHG  1  15  -1
M  END
$$$$
default_name
  -OEChem-02102213163D

 24 23  0     1  0  0  0  0  0999 V2000
   -2.8347   -3.7166    0.8034 H   0  0  0  0  0  0  0  0  0  0  0  0
   -2.7728   -2.7096    0.3954 C   0  0  0  0  0  0  0  0  0  0  0  0
   -3.4267   -2.0426    0.9524 H   0  0  0  0  0  0  0  0  0  0  0  0
   -3.0538   -2.7186   -0.6556 H   0  0  0  0  0  0  0  0  0  0  0  0
   -1.3498   -2.2206    0.5184 C   0  0  0  0  0  0  0  0  0  0  0  0
   -0.4997   -2.9426    1.0194 O   0  0  0  0  0  0  0  0  0  0  0  0
   -1.1198   -0.9926    0.0674 N   0  0  0  0  0  0  0  0  0  0  0  0
   -1.8978   -0.4486   -0.2716 H   0  0  0  0  0  0  0  0  0  0  0  0
    0.1693   -0.2866    0.0854 C   0  0  1  0  0  0  0  0  0  0  0  0
    0.9043   -0.8713   -0.4705 H   0  0  0  0  0  0  0  0  0  0  0  0
    0.0106    1.0816   -0.6124 C   0  0  0  0  0  0  0  0  0  0  0  0
    0.9736    1.5951   -0.5997 H   0  0  0  0  0  0  0  0  0  0  0  0
   -0.2640    0.9145   -1.6563 H   0  0  0  0  0  0  0  0  0  0  0  0
   -1.0219    2.0142    0.0400 C   0  0  0  0  0  0  0  0  0  0  0  0
   -1.2153    1.9231    1.2753 O   0  5  0  0  0  0  0  0  0  0  0  0
   -1.6286    2.8050   -0.7142 O   0  0  0  0  0  0  0  0  0  0  0  0
    0.6664   -0.1450    1.5428 C   0  0  0  0  0  0  0  0  0  0  0  0
    1.8485   -0.3724    1.8265 O   0  0  0  0  0  0  0  0  0  0  0  0
   -0.2161    0.2434    2.4686 N   0  0  0  0  0  0  0  0  0  0  0  0
   -1.1850    0.3219    2.1537 H   0  0  0  0  0  0  0  0  0  0  0  0
    0.0735    0.4128    3.8885 C   0  0  0  0  0  0  0  0  0  0  0  0
    1.0159    0.9483    4.0105 H   0  0  0  0  0  0  0  0  0  0  0  0
   -0.7315    0.9748    4.3613 H   0  0  0  0  0  0  0  0  0  0  0  0
    0.1564   -0.5677    4.3577 H   0  0  0  0  0  0  0  0  0  0  0  0
  5  6  2  0  0  0  0
  5  7  1  0  0  0  0
  2  3  1  0  0  0  0
  2  4  1  0  0  0  0
  2  5  1  0  0  0  0
  1  2  1  0  0  0  0
 17 18  2  0  0  0  0
 17 19  1  0  0  0  0
 14 15  1  0  0  0  0
 14 16  2  0  0  0  0
 11 12  1  0  0  0  0
 11 13  1  0  0  0  0
 11 14  1  0  0  0  0
  9 10  1  0  0  0  0
  9 11  1  0  0  0  0
  9 17  1  0  0  0  0
  7  8  1  0  0  0  0
  7  9  1  0  0  0  0
 21 22  1  0  0  0  0
 21 23  1  0  0  0  0
 21 24  1  0  0  0  0
 19 20  1  0  0  0  0
 19 21  1  0  0  0  0
M  CHG  1  15  -1
M  END
$$$$
default_name
  -OEChem-02102213163D

 24 23  0     1  0  0  0  0  0999 V2000
   -2.8347   -3.7166    0.8034 H   0  0  0  0  0  0  0  0  0  0  0  0
   -2.7728   -2.7096    0.3954 C   0  0  0  0  0  0  0  0  0  0  0  0
   -3.4267   -2.0426    0.9524 H   0  0  0  0  0  0  0  0  0  0  0  0
   -3.0538   -2.7186   -0.6556 H   0  0  0  0  0  0  0  0  0  0  0  0
   -1.3498   -2.2206    0.5184 C   0  0  0  0  0  0  0  0  0  0  0  0
   -0.4997   -2.9426    1.0194 O   0  0  0  0  0  0  0  0  0  0  0  0
   -1.1198   -0.9926    0.0674 N   0  0  0  0  0  0  0  0  0  0  0  0
   -1.8978   -0.4486   -0.2716 H   0  0  0  0  0  0  0  0  0  0  0  0
    0.1693   -0.2866    0.0854 C   0  0  1  0  0  0  0  0  0  0  0  0
    0.9043   -0.8713   -0.4705 H   0  0  0  0  0  0  0  0  0  0  0  0
    0.0106    1.0816   -0.6124 C   0  0  0  0  0  0  0  0  0  0  0  0
    0.9736    1.5951   -0.5997 H   0  0  0  0  0  0  0  0  0  0  0  0
   -0.2640    0.9145   -1.6563 H   0  0  0  0  0  0  0  0  0  0  0  0
   -1.0219    2.0142    0.0400 C   0  0  0  0  0  0  0  0  0  0  0  0
   -1.0183    2.1322    1.2881 O   0  5  0  0  0  0  0  0  0  0  0  0
   -1.8263    2.5920   -0.7225 O   0  0  0  0  0  0  0  0  0  0  0  0
    0.6664   -0.1450    1.5428 C   0  0  0  0  0  0  0  0  0  0  0  0
    1.8485   -0.3724    1.8265 O   0  0  0  0  0  0  0  0  0  0  0  0
   -0.2161    0.2434    2.4686 N   0  0  0  0  0  0  0  0  0  0  0  0
   -1.1850    0.3219    2.1537 H   0  0  0  0  0  0  0  0  0  0  0  0
    0.0735    0.4128    3.8885 C   0  0  0  0  0  0  0  0  0  0  0  0
    1.0159    0.9483    4.0105 H   0  0  0  0  0  0  0  0  0  0  0  0
   -0.7315    0.9748    4.3613 H   0  0  0  0  0  0  0  0  0  0  0  0
    0.1564   -0.5677    4.3577 H   0  0  0  0  0  0  0  0  0  0  0  0
  5  6  2  0  0  0  0
  5  7  1  0  0  0  0
  2  3  1  0  0  0  0
  2  4  1  0  0  0  0
  2  5  1  0  0  0  0
  1  2  1  0  0  0  0
 17 18  2  0  0  0  0
 17 19  1  0  0  0  0
 14 15  1  0  0  0  0
 14 16  2  0  0  0  0
 11 12  1  0  0  0  0
 11 13  1  0  0  0  0
 11 14  1  0  0  0  0
  9 10  1  0  0  0  0
  9 11  1  0  0  0  0
  9 17  1  0  0  0  0
  7  8  1  0  0  0  0
  7  9  1  0  0  0  0
 21 22  1  0  0  0  0
 21 23  1  0  0  0  0
 21 24  1  0  0  0  0
 19 20  1  0  0  0  0
 19 21  1  0  0  0  0
M  CHG  1  15  -1
M  END
$$$$
default_name
  -OEChem-02102213163D

 24 23  0     1  0  0  0  0  0999 V2000
   -2.8347   -3.7166    0.8034 H   0  0  0  0  0  0  0  0  0  0  0  0
   -2.7728   -2.7096    0.3954 C   0  0  0  0  0  0  0  0  0  0  0  0
   -3.4267   -2.0426    0.9524 H   0  0  0  0  0  0  0  0  0  0  0  0
   -3.0538   -2.7186   -0.6556 H   0  0  0  0  0  0  0  0  0  0  0  0
   -1.3498   -2.2206    0.5184 C   0  0  0  0  0  0  0  0  0  0  0  0
   -0.4997   -2.9426    1.0194 O   0  0  0  0  0  0  0  0  0  0  0  0
   -1.1198   -0.9926    0.0674 N   0  0  0  0  0  0  0  0  0  0  0  0
   -1.8978   -0.4486   -0.2716 H   0  0  0  0  0  0  0  0  0  0  0  0
    0.1693   -0.2866    0.0854 C   0  0  1  0  0  0  0  0  0  0  0  0
    0.9043   -0.8713   -0.4705 H   0  0  0  0  0  0  0  0  0  0  0  0
    0.0106    1.0816   -0.6124 C   0  0  0  0  0  0  0  0  0  0  0  0
    0.9736    1.5951   -0.5997 H   0  0  0  0  0  0  0  0  0  0  0  0
   -0.2640    0.9145   -1.6563 H   0  0  0  0  0  0  0  0  0  0  0  0
   -1.0219    2.0142    0.0400 C   0  0  0  0  0  0  0  0  0  0  0  0
   -0.8491    2.3580    1.2332 O   0  5  0  0  0  0  0  0  0  0  0  0
   -1.9951    2.3630   -0.6624 O   0  0  0  0  0  0  0  0  0  0  0  0
    0.6664   -0.1450    1.5428 C   0  0  0  0  0  0  0  0  0  0  0  0
    1.8485   -0.3724    1.8265 O   0  0  0  0  0  0  0  0  0  0  0  0
   -0.2161    0.2434    2.4686 N   0  0  0  0  0  0  0  0  0  0  0  0
   -1.1850    0.3219    2.1537 H   0  0  0  0  0  0  0  0  0  0  0  0
    0.0735    0.4128    3.8885 C   0  0  0  0  0  0  0  0  0  0  0  0
    1.0159    0.9483    4.0105 H   0  0  0  0  0  0  0  0  0  0  0  0
   -0.7315    0.9748    4.3613 H   0  0  0  0  0  0  0  0  0  0  0  0
    0.1564   -0.5677    4.3577 H   0  0  0  0  0  0  0  0  0  0  0  0
  5  6  2  0  0  0  0
  5  7  1  0  0  0  0
  2  3  1  0  0  0  0
  2  4  1  0  0  0  0
  2  5  1  0  0  0  0
  1  2  1  0  0  0  0
 17 18  2  0  0  0  0
 17 19  1  0  0  0  0
 14 15  1  0  0  0  0
 14 16  2  0  0  0  0
 11 12  1  0  0  0  0
 11 13  1  0  0  0  0
 11 14  1  0  0  0  0
  9 10  1  0  0  0  0
  9 11  1  0  0  0  0
  9 17  1  0  0  0  0
  7  8  1  0  0  0  0
  7  9  1  0  0  0  0
 21 22  1  0  0  0  0
 21 23  1  0  0  0  0
 21 24  1  0  0  0  0
 19 20  1  0  0  0  0
 19 21  1  0  0  0  0
M  CHG  1  15  -1
M  END
$$$$
default_name
  -OEChem-02102213163D

 24 23  0     1  0  0  0  0  0999 V2000
   -2.8347   -3.7166    0.8034 H   0  0  0  0  0  0  0  0  0  0  0  0
   -2.7728   -2.7096    0.3954 C   0  0  0  0  0  0  0  0  0  0  0  0
   -3.4267   -2.0426    0.9524 H   0  0  0  0  0  0  0  0  0  0  0  0
   -3.0538   -2.7186   -0.6556 H   0  0  0  0  0  0  0  0  0  0  0  0
   -1.3498   -2.2206    0.5184 C   0  0  0  0  0  0  0  0  0  0  0  0
   -0.4997   -2.9426    1.0194 O   0  0  0  0  0  0  0  0  0  0  0  0
   -1.1198   -0.9926    0.0674 N   0  0  0  0  0  0  0  0  0  0  0  0
   -1.8978   -0.4486   -0.2716 H   0  0  0  0  0  0  0  0  0  0  0  0
    0.1693   -0.2866    0.0854 C   0  0  1  0  0  0  0  0  0  0  0  0
    0.9043   -0.8713   -0.4705 H   0  0  0  0  0  0  0  0  0  0  0  0
    0.0106    1.0816   -0.6124 C   0  0  0  0  0  0  0  0  0  0  0  0
    0.9736    1.5951   -0.5997 H   0  0  0  0  0  0  0  0  0  0  0  0
   -0.2640    0.9145   -1.6563 H   0  0  0  0  0  0  0  0  0  0  0  0
   -1.0219    2.0142    0.0400 C   0  0  0  0  0  0  0  0  0  0  0  0
   -0.7190    2.5851    1.1143 O   0  5  0  0  0  0  0  0  0  0  0  0
   -2.1236    2.1338   -0.5380 O   0  0  0  0  0  0  0  0  0  0  0  0
    0.6664   -0.1450    1.5428 C   0  0  0  0  0  0  0  0  0  0  0  0
    1.8485   -0.3724    1.8265 O   0  0  0  0  0  0  0  0  0  0  0  0
   -0.2161    0.2434    2.4686 N   0  0  0  0  0  0  0  0  0  0  0  0
   -1.1850    0.3219    2.1537 H   0  0  0  0  0  0  0  0  0  0  0  0
    0.0735    0.4128    3.8885 C   0  0  0  0  0  0  0  0  0  0  0  0
    1.0159    0.9483    4.0105 H   0  0  0  0  0  0  0  0  0  0  0  0
   -0.7315    0.9748    4.3613 H   0  0  0  0  0  0  0  0  0  0  0  0
    0.1564   -0.5677    4.3577 H   0  0  0  0  0  0  0  0  0  0  0  0
  5  6  2  0  0  0  0
  5  7  1  0  0  0  0
  2  3  1  0  0  0  0
  2  4  1  0  0  0  0
  2  5  1  0  0  0  0
  1  2  1  0  0  0  0
 17 18  2  0  0  0  0
 17 19  1  0  0  0  0
 14 15  1  0  0  0  0
 14 16  2  0  0  0  0
 11 12  1  0  0  0  0
 11 13  1  0  0  0  0
 11 14  1  0  0  0  0
  9 10  1  0  0  0  0
  9 11  1  0  0  0  0
  9 17  1  0  0  0  0
  7  8  1  0  0  0  0
  7  9  1  0  0  0  0
 21 22  1  0  0  0  0
 21 23  1  0  0  0  0
 21 24  1  0  0  0  0
 19 20  1  0  0  0  0
 19 21  1  0  0  0  0
M  CHG  1  15  -1
M  END
$$$$
default_name
  -OEChem-02102213163D

 24 23  0     1  0  0  0  0  0999 V2000
   -2.8347   -3.7166    0.8034 H   0  0  0  0  0  0  0  0  0  0  0  0
   -2.7728   -2.7096    0.3954 C   0  0  0  0  0  0  0  0  0  0  0  0
   -3.4267   -2.0426    0.9524 H   0  0  0  0  0  0  0  0  0  0  0  0
   -3.0538   -2.7186   -0.6556 H   0  0  0  0  0  0  0  0  0  0  0  0
   -1.3498   -2.2206    0.5184 C   0  0  0  0  0  0  0  0  0  0  0  0
   -0.4997   -2.9426    1.0194 O   0  0  0  0  0  0  0  0  0  0  0  0
   -1.1198   -0.9926    0.0674 N   0  0  0  0  0  0  0  0  0  0  0  0
   -1.8978   -0.4486   -0.2716 H   0  0  0  0  0  0  0  0  0  0  0  0
    0.1693   -0.2866    0.0854 C   0  0  1  0  0  0  0  0  0  0  0  0
    0.9043   -0.8713   -0.4705 H   0  0  0  0  0  0  0  0  0  0  0  0
    0.0106    1.0816   -0.6124 C   0  0  0  0  0  0  0  0  0  0  0  0
    0.9736    1.5951   -0.5997 H   0  0  0  0  0  0  0  0  0  0  0  0
   -0.2640    0.9145   -1.6563 H   0  0  0  0  0  0  0  0  0  0  0  0
   -1.0219    2.0142    0.0400 C   0  0  0  0  0  0  0  0  0  0  0  0
   -0.6371    2.7982    0.9395 O   0  5  0  0  0  0  0  0  0  0  0  0
   -2.2030    1.9199   -0.3579 O   0  0  0  0  0  0  0  0  0  0  0  0
    0.6664   -0.1450    1.5428 C   0  0  0  0  0  0  0  0  0  0  0  0
    1.8485   -0.3724    1.8265 O   0  0  0  0  0  0  0  0  0  0  0  0
   -0.2161    0.2434    2.4686 N   0  0  0  0  0  0  0  0  0  0  0  0
   -1.1850    0.3219    2.1537 H   0  0  0  0  0  0  0  0  0  0  0  0
    0.0735    0.4128    3.8885 C   0  0  0  0  0  0  0  0  0  0  0  0
    1.0159    0.9483    4.0105 H   0  0  0  0  0  0  0  0  0  0  0  0
   -0.7315    0.9748    4.3613 H   0  0  0  0  0  0  0  0  0  0  0  0
    0.1564   -0.5677    4.3577 H   0  0  0  0  0  0  0  0  0  0  0  0
  5  6  2  0  0  0  0
  5  7  1  0  0  0  0
  2  3  1  0  0  0  0
  2  4  1  0  0  0  0
  2  5  1  0  0  0  0
  1  2  1  0  0  0  0
 17 18  2  0  0  0  0
 17 19  1  0  0  0  0
 14 15  1  0  0  0  0
 14 16  2  0  0  0  0
 11 12  1  0  0  0  0
 11 13  1  0  0  0  0
 11 14  1  0  0  0  0
  9 10  1  0  0  0  0
  9 11  1  0  0  0  0
  9 17  1  0  0  0  0
  7  8  1  0  0  0  0
  7  9  1  0  0  0  0
 21 22  1  0  0  0  0
 21 23  1  0  0  0  0
 21 24  1  0  0  0  0
 19 20  1  0  0  0  0
 19 21  1  0  0  0  0
M  CHG  1  15  -1
M  END
$$$$
default_name
  -OEChem-02102213163D

 24 23  0     1  0  0  0  0  0999 V2000
   -2.8347   -3.7166    0.8034 H   0  0  0  0  0  0  0  0  0  0  0  0
   -2.7728   -2.7096    0.3954 C   0  0  0  0  0  0  0  0  0  0  0  0
   -3.4267   -2.0426    0.9524 H   0  0  0  0  0  0  0  0  0  0  0  0
   -3.0538   -2.7186   -0.6556 H   0  0  0  0  0  0  0  0  0  0  0  0
   -1.3498   -2.2206    0.5184 C   0  0  0  0  0  0  0  0  0  0  0  0
   -0.4997   -2.9426    1.0194 O   0  0  0  0  0  0  0  0  0  0  0  0
   -1.1198   -0.9926    0.0674 N   0  0  0  0  0  0  0  0  0  0  0  0
   -1.8978   -0.4486   -0.2716 H   0  0  0  0  0  0  0  0  0  0  0  0
    0.1693   -0.2866    0.0854 C   0  0  1  0  0  0  0  0  0  0  0  0
    0.9043   -0.8713   -0.4705 H   0  0  0  0  0  0  0  0  0  0  0  0
    0.0106    1.0816   -0.6124 C   0  0  0  0  0  0  0  0  0  0  0  0
    0.9736    1.5951   -0.5997 H   0  0  0  0  0  0  0  0  0  0  0  0
   -0.2640    0.9145   -1.6563 H   0  0  0  0  0  0  0  0  0  0  0  0
   -1.0219    2.0142    0.0400 C   0  0  0  0  0  0  0  0  0  0  0  0
   -0.6088    2.9825    0.7207 O   0  5  0  0  0  0  0  0  0  0  0  0
   -2.2279    1.7358   -0.1342 O   0  0  0  0  0  0  0  0  0  0  0  0
    0.6664   -0.1450    1.5428 C   0  0  0  0  0  0  0  0  0  0  0  0
    1.8485   -0.3724    1.8265 O   0  0  0  0  0  0  0  0  0  0  0  0
   -0.2161    0.2434    2.4686 N   0  0  0  0  0  0  0  0  0  0  0  0
   -1.1850    0.3219    2.1537 H   0  0  0  0  0  0  0  0  0  0  0  0
    0.0735    0.4128    3.8885 C   0  0  0  0  0  0  0  0  0  0  0  0
    1.0159    0.9483    4.0105 H   0  0  0  0  0  0  0  0  0  0  0  0
   -0.7315    0.9748    4.3613 H   0  0  0  0  0  0  0  0  0  0  0  0
    0.1564   -0.5677    4.3577 H   0  0  0  0  0  0  0  0  0  0  0  0
  5  6  2  0  0  0  0
  5  7  1  0  0  0  0
  2  3  1  0  0  0  0
  2  4  1  0  0  0  0
  2  5  1  0  0  0  0
  1  2  1  0  0  0  0
 17 18  2  0  0  0  0
 17 19  1  0  0  0  0
 14 15  1  0  0  0  0
 14 16  2  0  0  0  0
 11 12  1  0  0  0  0
 11 13  1  0  0  0  0
 11 14  1  0  0  0  0
  9 10  1  0  0  0  0
  9 11  1  0  0  0  0
  9 17  1  0  0  0  0
  7  8  1  0  0  0  0
  7  9  1  0  0  0  0
 21 22  1  0  0  0  0
 21 23  1  0  0  0  0
 21 24  1  0  0  0  0
 19 20  1  0  0  0  0
 19 21  1  0  0  0  0
M  CHG  1  15  -1
M  END
$$$$
default_name
  -OEChem-02102213163D

 24 23  0     1  0  0  0  0  0999 V2000
   -2.8347   -3.7166    0.8034 H   0  0  0  0  0  0  0  0  0  0  0  0
   -2.7728   -2.7096    0.3954 C   0  0  0  0  0  0  0  0  0  0  0  0
   -3.4267   -2.0426    0.9524 H   0  0  0  0  0  0  0  0  0  0  0  0
   -3.0538   -2.7186   -0.6556 H   0  0  0  0  0  0  0  0  0  0  0  0
   -1.3498   -2.2206    0.5184 C   0  0  0  0  0  0  0  0  0  0  0  0
   -0.4997   -2.9426    1.0194 O   0  0  0  0  0  0  0  0  0  0  0  0
   -1.1198   -0.9926    0.0674 N   0  0  0  0  0  0  0  0  0  0  0  0
   -1.8978   -0.4486   -0.2716 H   0  0  0  0  0  0  0  0  0  0  0  0
    0.1693   -0.2866    0.0854 C   0  0  1  0  0  0  0  0  0  0  0  0
    0.9043   -0.8713   -0.4705 H   0  0  0  0  0  0  0  0  0  0  0  0
    0.0106    1.0816   -0.6124 C   0  0  0  0  0  0  0  0  0  0  0  0
    0.9736    1.5951   -0.5997 H   0  0  0  0  0  0  0  0  0  0  0  0
   -0.2640    0.9145   -1.6563 H   0  0  0  0  0  0  0  0  0  0  0  0
   -1.0219    2.0142    0.0400 C   0  0  0  0  0  0  0  0  0  0  0  0
   -0.6360    3.1257    0.4729 O   0  5  0  0  0  0  0  0  0  0  0  0
   -2.1965    1.5942    0.1178 O   0  0  0  0  0  0  0  0  0  0  0  0
    0.6664   -0.1450    1.5428 C   0  0  0  0  0  0  0  0  0  0  0  0
    1.8485   -0.3724    1.8265 O   0  0  0  0  0  0  0  0  0  0  0  0
   -0.2161    0.2434    2.4686 N   0  0  0  0  0  0  0  0  0  0  0  0
   -1.1850    0.3219    2.1537 H   0  0  0  0  0  0  0  0  0  0  0  0
    0.0735    0.4128    3.8885 C   0  0  0  0  0  0  0  0  0  0  0  0
    1.0159    0.9483    4.0105 H   0  0  0  0  0  0  0  0  0  0  0  0
   -0.7315    0.9748    4.3613 H   0  0  0  0  0  0  0  0  0  0  0  0
    0.1564   -0.5677    4.3577 H   0  0  0  0  0  0  0  0  0  0  0  0
  5  6  2  0  0  0  0
  5  7  1  0  0  0  0
  2  3  1  0  0  0  0
  2  4  1  0  0  0  0
  2  5  1  0  0  0  0
  1  2  1  0  0  0  0
 17 18  2  0  0  0  0
 17 19  1  0  0  0  0
 14 15  1  0  0  0  0
 14 16  2  0  0  0  0
 11 12  1  0  0  0  0
 11 13  1  0  0  0  0
 11 14  1  0  0  0  0
  9 10  1  0  0  0  0
  9 11  1  0  0  0  0
  9 17  1  0  0  0  0
  7  8  1  0  0  0  0
  7  9  1  0  0  0  0
 21 22  1  0  0  0  0
 21 23  1  0  0  0  0
 21 24  1  0  0  0  0
 19 20  1  0  0  0  0
 19 21  1  0  0  0  0
M  CHG  1  15  -1
M  END
$$$$
default_name
  -OEChem-02102213163D

 24 23  0     1  0  0  0  0  0999 V2000
   -2.8347   -3.7166    0.8034 H   0  0  0  0  0  0  0  0  0  0  0  0
   -2.7728   -2.7096    0.3954 C   0  0  0  0  0  0  0  0  0  0  0  0
   -3.4267   -2.0426    0.9524 H   0  0  0  0  0  0  0  0  0  0  0  0
   -3.0538   -2.7186   -0.6556 H   0  0  0  0  0  0  0  0  0  0  0  0
   -1.3498   -2.2206    0.5184 C   0  0  0  0  0  0  0  0  0  0  0  0
   -0.4997   -2.9426    1.0194 O   0  0  0  0  0  0  0  0  0  0  0  0
   -1.1198   -0.9926    0.0674 N   0  0  0  0  0  0  0  0  0  0  0  0
   -1.8978   -0.4486   -0.2716 H   0  0  0  0  0  0  0  0  0  0  0  0
    0.1693   -0.2866    0.0854 C   0  0  1  0  0  0  0  0  0  0  0  0
    0.9043   -0.8713   -0.4705 H   0  0  0  0  0  0  0  0  0  0  0  0
    0.0106    1.0816   -0.6124 C   0  0  0  0  0  0  0  0  0  0  0  0
    0.9736    1.5951   -0.5997 H   0  0  0  0  0  0  0  0  0  0  0  0
   -0.2640    0.9145   -1.6563 H   0  0  0  0  0  0  0  0  0  0  0  0
   -1.0219    2.0142    0.0400 C   0  0  0  0  0  0  0  0  0  0  0  0
   -0.7170    3.2179    0.2130 O   0  5  0  0  0  0  0  0  0  0  0  0
   -2.1111    1.5047    0.3809 O   0  0  0  0  0  0  0  0  0  0  0  0
    0.6664   -0.1450    1.5428 C   0  0  0  0  0  0  0  0  0  0  0  0
    1.8485   -0.3724    1.8265 O   0  0  0  0  0  0  0  0  0  0  0  0
   -0.2161    0.2434    2.4686 N   0  0  0  0  0  0  0  0  0  0  0  0
   -1.1850    0.3219    2.1537 H   0  0  0  0  0  0  0  0  0  0  0  0
    0.0735    0.4128    3.8885 C   0  0  0  0  0  0  0  0  0  0  0  0
    1.0159    0.9483    4.0105 H   0  0  0  0  0  0  0  0  0  0  0  0
   -0.7315    0.9748    4.3613 H   0  0  0  0  0  0  0  0  0  0  0  0
    0.1564   -0.5677    4.3577 H   0  0  0  0  0  0  0  0  0  0  0  0
  5  6  2  0  0  0  0
  5  7  1  0  0  0  0
  2  3  1  0  0  0  0
  2  4  1  0  0  0  0
  2  5  1  0  0  0  0
  1  2  1  0  0  0  0
 17 18  2  0  0  0  0
 17 19  1  0  0  0  0
 14 15  1  0  0  0  0
 14 16  2  0  0  0  0
 11 12  1  0  0  0  0
 11 13  1  0  0  0  0
 11 14  1  0  0  0  0
  9 10  1  0  0  0  0
  9 11  1  0  0  0  0
  9 17  1  0  0  0  0
  7  8  1  0  0  0  0
  7  9  1  0  0  0  0
 21 22  1  0  0  0  0
 21 23  1  0  0  0  0
 21 24  1  0  0  0  0
 19 20  1  0  0  0  0
 19 21  1  0  0  0  0
M  CHG  1  15  -1
M  END
$$$$
default_name
  -OEChem-02102213163D

 24 23  0     1  0  0  0  0  0999 V2000
   -2.8347   -3.7166    0.8034 H   0  0  0  0  0  0  0  0  0  0  0  0
   -2.7728   -2.7096    0.3954 C   0  0  0  0  0  0  0  0  0  0  0  0
   -3.4267   -2.0426    0.9524 H   0  0  0  0  0  0  0  0  0  0  0  0
   -3.0538   -2.7186   -0.6556 H   0  0  0  0  0  0  0  0  0  0  0  0
   -1.3498   -2.2206    0.5184 C   0  0  0  0  0  0  0  0  0  0  0  0
   -0.4997   -2.9426    1.0194 O   0  0  0  0  0  0  0  0  0  0  0  0
   -1.1198   -0.9926    0.0674 N   0  0  0  0  0  0  0  0  0  0  0  0
   -1.8978   -0.4486   -0.2716 H   0  0  0  0  0  0  0  0  0  0  0  0
    0.1693   -0.2866    0.0854 C   0  0  1  0  0  0  0  0  0  0  0  0
    0.9043   -0.8713   -0.4705 H   0  0  0  0  0  0  0  0  0  0  0  0
    0.0106    1.0816   -0.6124 C   0  0  0  0  0  0  0  0  0  0  0  0
    0.9736    1.5951   -0.5997 H   0  0  0  0  0  0  0  0  0  0  0  0
   -0.2640    0.9145   -1.6563 H   0  0  0  0  0  0  0  0  0  0  0  0
   -1.0219    2.0142    0.0400 C   0  0  0  0  0  0  0  0  0  0  0  0
   -0.8462    3.2529   -0.0415 O   0  5  0  0  0  0  0  0  0  0  0  0
   -1.9775    1.4734    0.6372 O   0  0  0  0  0  0  0  0  0  0  0  0
    0.6664   -0.1450    1.5428 C   0  0  0  0  0  0  0  0  0  0  0  0
    1.8485   -0.3724    1.8265 O   0  0  0  0  0  0  0  0  0  0  0  0
   -0.2161    0.2434    2.4686 N   0  0  0  0  0  0  0  0  0  0  0  0
   -1.1850    0.3219    2.1537 H   0  0  0  0  0  0  0  0  0  0  0  0
    0.0735    0.4128    3.8885 C   0  0  0  0  0  0  0  0  0  0  0  0
    1.0159    0.9483    4.0105 H   0  0  0  0  0  0  0  0  0  0  0  0
   -0.7315    0.9748    4.3613 H   0  0  0  0  0  0  0  0  0  0  0  0
    0.1564   -0.5677    4.3577 H   0  0  0  0  0  0  0  0  0  0  0  0
  5  6  2  0  0  0  0
  5  7  1  0  0  0  0
  2  3  1  0  0  0  0
  2  4  1  0  0  0  0
  2  5  1  0  0  0  0
  1  2  1  0  0  0  0
 17 18  2  0  0  0  0
 17 19  1  0  0  0  0
 14 15  1  0  0  0  0
 14 16  2  0  0  0  0
 11 12  1  0  0  0  0
 11 13  1  0  0  0  0
 11 14  1  0  0  0  0
  9 10  1  0  0  0  0
  9 11  1  0  0  0  0
  9 17  1  0  0  0  0
  7  8  1  0  0  0  0
  7  9  1  0  0  0  0
 21 22  1  0  0  0  0
 21 23  1  0  0  0  0
 21 24  1  0  0  0  0
 19 20  1  0  0  0  0
 19 21  1  0  0  0  0
M  CHG  1  15  -1
M  END
$$$$
default_name
  -OEChem-02102213163D

 24 23  0     1  0  0  0  0  0999 V2000
   -2.8347   -3.7166    0.8034 H   0  0  0  0  0  0  0  0  0  0  0  0
   -2.7728   -2.7096    0.3954 C   0  0  0  0  0  0  0  0  0  0  0  0
   -3.4267   -2.0426    0.9524 H   0  0  0  0  0  0  0  0  0  0  0  0
   -3.0538   -2.7186   -0.6556 H   0  0  0  0  0  0  0  0  0  0  0  0
   -1.3498   -2.2206    0.5184 C   0  0  0  0  0  0  0  0  0  0  0  0
   -0.4997   -2.9426    1.0194 O   0  0  0  0  0  0  0  0  0  0  0  0
   -1.1198   -0.9926    0.0674 N   0  0  0  0  0  0  0  0  0  0  0  0
   -1.8978   -0.4486   -0.2716 H   0  0  0  0  0  0  0  0  0  0  0  0
    0.1693   -0.2866    0.0854 C   0  0  1  0  0  0  0  0  0  0  0  0
    0.9043   -0.8713   -0.4705 H   0  0  0  0  0  0  0  0  0  0  0  0
    0.0106    1.0816   -0.6124 C   0  0  0  0  0  0  0  0  0  0  0  0
    0.9736    1.5951   -0.5997 H   0  0  0  0  0  0  0  0  0  0  0  0
   -0.2640    0.9145   -1.6563 H   0  0  0  0  0  0  0  0  0  0  0  0
   -1.0219    2.0142    0.0400 C   0  0  0  0  0  0  0  0  0  0  0  0
   -1.0148    3.2282   -0.2730 O   0  5  0  0  0  0  0  0  0  0  0  0
   -1.8047    1.5024    0.8692 O   0  0  0  0  0  0  0  0  0  0  0  0
    0.6664   -0.1450    1.5428 C   0  0  0  0  0  0  0  0  0  0  0  0
    1.8485   -0.3724    1.8265 O   0  0  0  0  0  0  0  0  0  0  0  0
   -0.2161    0.2434    2.4686 N   0  0  0  0  0  0  0  0  0  0  0  0
   -1.1850    0.3219    2.1537 H   0  0  0  0  0  0  0  0  0  0  0  0
    0.0735    0.4128    3.8885 C   0  0  0  0  0  0  0  0  0  0  0  0
    1.0159    0.9483    4.0105 H   0  0  0  0  0  0  0  0  0  0  0  0
   -0.7315    0.9748    4.3613 H   0  0  0  0  0  0  0  0  0  0  0  0
    0.1564   -0.5677    4.3577 H   0  0  0  0  0  0  0  0  0  0  0  0
  5  6  2  0  0  0  0
  5  7  1  0  0  0  0
  2  3  1  0  0  0  0
  2  4  1  0  0  0  0
  2  5  1  0  0  0  0
  1  2  1  0  0  0  0
 17 18  2  0  0  0  0
 17 19  1  0  0  0  0
 14 15  1  0  0  0  0
 14 16  2  0  0  0  0
 11 12  1  0  0  0  0
 11 13  1  0  0  0  0
 11 14  1  0  0  0  0
  9 10  1  0  0  0  0
  9 11  1  0  0  0  0
  9 17  1  0  0  0  0
  7  8  1  0  0  0  0
  7  9  1  0  0  0  0
 21 22  1  0  0  0  0
 21 23  1  0  0  0  0
 21 24  1  0  0  0  0
 19 20  1  0  0  0  0
 19 21  1  0  0  0  0
M  CHG  1  15  -1
M  END
$$$$
default_name
  -OEChem-02102213163D

 24 23  0     1  0  0  0  0  0999 V2000
   -2.8347   -3.7166    0.8034 H   0  0  0  0  0  0  0  0  0  0  0  0
   -2.7728   -2.7096    0.3954 C   0  0  0  0  0  0  0  0  0  0  0  0
   -3.4267   -2.0426    0.9524 H   0  0  0  0  0  0  0  0  0  0  0  0
   -3.0538   -2.7186   -0.6556 H   0  0  0  0  0  0  0  0  0  0  0  0
   -1.3498   -2.2206    0.5184 C   0  0  0  0  0  0  0  0  0  0  0  0
   -0.4997   -2.9426    1.0194 O   0  0  0  0  0  0  0  0  0  0  0  0
   -1.1198   -0.9926    0.0674 N   0  0  0  0  0  0  0  0  0  0  0  0
   -1.8978   -0.4486   -0.2716 H   0  0  0  0  0  0  0  0  0  0  0  0
    0.1693   -0.2866    0.0854 C   0  0  1  0  0  0  0  0  0  0  0  0
    0.9043   -0.8713   -0.4705 H   0  0  0  0  0  0  0  0  0  0  0  0
    0.0106    1.0816   -0.6124 C   0  0  0  0  0  0  0  0  0  0  0  0
    1.0025    1.4759   -0.8401 H   0  0  0  0  0  0  0  0  0  0  0  0
   -0.5148    0.9352   -1.5587 H   0  0  0  0  0  0  0  0  0  0  0  0
   -0.7303    2.1398    0.2200 C   0  0  0  0  0  0  0  0  0  0  0  0
   -0.9013    3.2790   -0.2746 O   0  5  0  0  0  0  0  0  0  0  0  0
   -1.1057    1.8016    1.3631 O   0  0  0  0  0  0  0  0  0  0  0  0
    0.6664   -0.1450    1.5428 C   0  0  0  0  0  0  0  0  0  0  0  0
    1.8485   -0.3724    1.8265 O   0  0  0  0  0  0  0  0  0  0  0  0
   -0.2161    0.2434    2.4686 N   0  0  0  0  0  0  0  0  0  0  0  0
   -1.1850    0.3219    2.1537 H   0  0  0  0  0  0  0  0  0  0  0  0
    0.0735    0.4128    3.8885 C   0  0  0  0  0  0  0  0  0  0  0  0
    1.0159    0.9483    4.0105 H   0  0  0  0  0  0  0  0  0  0  0  0
   -0.7315    0.9748    4.3613 H   0  0  0  0  0  0  0  0  0  0  0  0
    0.1564   -0.5677    4.3577 H   0  0  0  0  0  0  0  0  0  0  0  0
  5  6  2  0  0  0  0
  5  7  1  0  0  0  0
  2  3  1  0  0  0  0
  2  4  1  0  0  0  0
  2  5  1  0  0  0  0
  1  2  1  0  0  0  0
 17 18  2  0  0  0  0
 17 19  1  0  0  0  0
 14 15  1  0  0  0  0
 14 16  2  0  0  0  0
 11 12  1  0  0  0  0
 11 13  1  0  0  0  0
 11 14  1  0  0  0  0
  9 10  1  0  0  0  0
  9 11  1  0  0  0  0
  9 17  1  0  0  0  0
  7  8  1  0  0  0  0
  7  9  1  0  0  0  0
 21 22  1  0  0  0  0
 21 23  1  0  0  0  0
 21 24  1  0  0  0  0
 19 20  1  0  0  0  0
 19 21  1  0  0  0  0
M  CHG  1  15  -1
M  END
$$$$
default_name
  -OEChem-02102213163D

 24 23  0     1  0  0  0  0  0999 V2000
   -2.8347   -3.7166    0.8034 H   0  0  0  0  0  0  0  0  0  0  0  0
   -2.7728   -2.7096    0.3954 C   0  0  0  0  0  0  0  0  0  0  0  0
   -3.4267   -2.0426    0.9524 H   0  0  0  0  0  0  0  0  0  0  0  0
   -3.0538   -2.7186   -0.6556 H   0  0  0  0  0  0  0  0  0  0  0  0
   -1.3498   -2.2206    0.5184 C   0  0  0  0  0  0  0  0  0  0  0  0
   -0.4997   -2.9426    1.0194 O   0  0  0  0  0  0  0  0  0  0  0  0
   -1.1198   -0.9926    0.0674 N   0  0  0  0  0  0  0  0  0  0  0  0
   -1.8978   -0.4486   -0.2716 H   0  0  0  0  0  0  0  0  0  0  0  0
    0.1693   -0.2866    0.0854 C   0  0  1  0  0  0  0  0  0  0  0  0
    0.9043   -0.8713   -0.4705 H   0  0  0  0  0  0  0  0  0  0  0  0
    0.0106    1.0816   -0.6124 C   0  0  0  0  0  0  0  0  0  0  0  0
    1.0025    1.4759   -0.8401 H   0  0  0  0  0  0  0  0  0  0  0  0
   -0.5148    0.9352   -1.5587 H   0  0  0  0  0  0  0  0  0  0  0  0
   -0.7303    2.1398    0.2200 C   0  0  0  0  0  0  0  0  0  0  0  0
   -1.1532    3.1686   -0.3584 O   0  5  0  0  0  0  0  0  0  0  0  0
   -0.8511    1.9165    1.4437 O   0  0  0  0  0  0  0  0  0  0  0  0
    0.6664   -0.1450    1.5428 C   0  0  0  0  0  0  0  0  0  0  0  0
    1.8485   -0.3724    1.8265 O   0  0  0  0  0  0  0  0  0  0  0  0
   -0.2161    0.2434    2.4686 N   0  0  0  0  0  0  0  0  0  0  0  0
   -1.1850    0.3219    2.1537 H   0  0  0  0  0  0  0  0  0  0  0  0
    0.0735    0.4128    3.8885 C   0  0  0  0  0  0  0  0  0  0  0  0
    1.0159    0.9483    4.0105 H   0  0  0  0  0  0  0  0  0  0  0  0
   -0.7315    0.9748    4.3613 H   0  0  0  0  0  0  0  0  0  0  0  0
    0.1564   -0.5677    4.3577 H   0  0  0  0  0  0  0  0  0  0  0  0
  5  6  2  0  0  0  0
  5  7  1  0  0  0  0
  2  3  1  0  0  0  0
  2  4  1  0  0  0  0
  2  5  1  0  0  0  0
  1  2  1  0  0  0  0
 17 18  2  0  0  0  0
 17 19  1  0  0  0  0
 14 15  1  0  0  0  0
 14 16  2  0  0  0  0
 11 12  1  0  0  0  0
 11 13  1  0  0  0  0
 11 14  1  0  0  0  0
  9 10  1  0  0  0  0
  9 11  1  0  0  0  0
  9 17  1  0  0  0  0
  7  8  1  0  0  0  0
  7  9  1  0  0  0  0
 21 22  1  0  0  0  0
 21 23  1  0  0  0  0
 21 24  1  0  0  0  0
 19 20  1  0  0  0  0
 19 21  1  0  0  0  0
M  CHG  1  15  -1
M  END
$$$$
default_name
  -OEChem-02102213163D

 24 23  0     1  0  0  0  0  0999 V2000
   -2.8347   -3.7166    0.8034 H   0  0  0  0  0  0  0  0  0  0  0  0
   -2.7728   -2.7096    0.3954 C   0  0  0  0  0  0  0  0  0  0  0  0
   -3.4267   -2.0426    0.9524 H   0  0  0  0  0  0  0  0  0  0  0  0
   -3.0538   -2.7186   -0.6556 H   0  0  0  0  0  0  0  0  0  0  0  0
   -1.3498   -2.2206    0.5184 C   0  0  0  0  0  0  0  0  0  0  0  0
   -0.4997   -2.9426    1.0194 O   0  0  0  0  0  0  0  0  0  0  0  0
   -1.1198   -0.9926    0.0674 N   0  0  0  0  0  0  0  0  0  0  0  0
   -1.8978   -0.4486   -0.2716 H   0  0  0  0  0  0  0  0  0  0  0  0
    0.1693   -0.2866    0.0854 C   0  0  1  0  0  0  0  0  0  0  0  0
    0.9043   -0.8713   -0.4705 H   0  0  0  0  0  0  0  0  0  0  0  0
    0.0106    1.0816   -0.6124 C   0  0  0  0  0  0  0  0  0  0  0  0
    1.0025    1.4759   -0.8401 H   0  0  0  0  0  0  0  0  0  0  0  0
   -0.5148    0.9352   -1.5587 H   0  0  0  0  0  0  0  0  0  0  0  0
   -0.7303    2.1398    0.2200 C   0  0  0  0  0  0  0  0  0  0  0  0
   -1.3959    3.0162   -0.3806 O   0  5  0  0  0  0  0  0  0  0  0  0
   -0.6069    2.0732    1.4619 O   0  0  0  0  0  0  0  0  0  0  0  0
    0.6664   -0.1450    1.5428 C   0  0  0  0  0  0  0  0  0  0  0  0
    1.8485   -0.3724    1.8265 O   0  0  0  0  0  0  0  0  0  0  0  0
   -0.2161    0.2434    2.4686 N   0  0  0  0  0  0  0  0  0  0  0  0
   -1.1850    0.3219    2.1537 H   0  0  0  0  0  0  0  0  0  0  0  0
    0.0735    0.4128    3.8885 C   0  0  0  0  0  0  0  0  0  0  0  0
    1.0159    0.9483    4.0105 H   0  0  0  0  0  0  0  0  0  0  0  0
   -0.7315    0.9748    4.3613 H   0  0  0  0  0  0  0  0  0  0  0  0
    0.1564   -0.5677    4.3577 H   0  0  0  0  0  0  0  0  0  0  0  0
  5  6  2  0  0  0  0
  5  7  1  0  0  0  0
  2  3  1  0  0  0  0
  2  4  1  0  0  0  0
  2  5  1  0  0  0  0
  1  2  1  0  0  0  0
 17 18  2  0  0  0  0
 17 19  1  0  0  0  0
 14 15  1  0  0  0  0
 14 16  2  0  0  0  0
 11 12  1  0  0  0  0
 11 13  1  0  0  0  0
 11 14  1  0  0  0  0
  9 10  1  0  0  0  0
  9 11  1  0  0  0  0
  9 17  1  0  0  0  0
  7  8  1  0  0  0  0
  7  9  1  0  0  0  0
 21 22  1  0  0  0  0
 21 23  1  0  0  0  0
 21 24  1  0  0  0  0
 19 20  1  0  0  0  0
 19 21  1  0  0  0  0
M  CHG  1  15  -1
M  END
$$$$
default_name
  -OEChem-02102213163D

 24 23  0     1  0  0  0  0  0999 V2000
   -2.8347   -3.7166    0.8034 H   0  0  0  0  0  0  0  0  0  0  0  0
   -2.7728   -2.7096    0.3954 C   0  0  0  0  0  0  0  0  0  0  0  0
   -3.4267   -2.0426    0.9524 H   0  0  0  0  0  0  0  0  0  0  0  0
   -3.0538   -2.7186   -0.6556 H   0  0  0  0  0  0  0  0  0  0  0  0
   -1.3498   -2.2206    0.5184 C   0  0  0  0  0  0  0  0  0  0  0  0
   -0.4997   -2.9426    1.0194 O   0  0  0  0  0  0  0  0  0  0  0  0
   -1.1198   -0.9926    0.0674 N   0  0  0  0  0  0  0  0  0  0  0  0
   -1.8978   -0.4486   -0.2716 H   0  0  0  0  0  0  0  0  0  0  0  0
    0.1693   -0.2866    0.0854 C   0  0  1  0  0  0  0  0  0  0  0  0
    0.9043   -0.8713   -0.4705 H   0  0  0  0  0  0  0  0  0  0  0  0
    0.0106    1.0816   -0.6124 C   0  0  0  0  0  0  0  0  0  0  0  0
    1.0025    1.4759   -0.8401 H   0  0  0  0  0  0  0  0  0  0  0  0
   -0.5148    0.9352   -1.5587 H   0  0  0  0  0  0  0  0  0  0  0  0
   -0.7303    2.1398    0.2200 C   0  0  0  0  0  0  0  0  0  0  0  0
   -1.6130    2.8321   -0.3398 O   0  5  0  0  0  0  0  0  0  0  0  0
   -0.3897    2.2610    1.4164 O   0  0  0  0  0  0  0  0  0  0  0  0
    0.6664   -0.1450    1.5428 C   0  0  0  0  0  0  0  0  0  0  0  0
    1.8485   -0.3724    1.8265 O   0  0  0  0  0  0  0  0  0  0  0  0
   -0.2161    0.2434    2.4686 N   0  0  0  0  0  0  0  0  0  0  0  0
   -1.1850    0.3219    2.1537 H   0  0  0  0  0  0  0  0  0  0  0  0
    0.0735    0.4128    3.8885 C   0  0  0  0  0  0  0  0  0  0  0  0
    1.0159    0.9483    4.0105 H   0  0  0  0  0  0  0  0  0  0  0  0
   -0.7315    0.9748    4.3613 H   0  0  0  0  0  0  0  0  0  0  0  0
    0.1564   -0.5677    4.3577 H   0  0  0  0  0  0  0  0  0  0  0  0
  5  6  2  0  0  0  0
  5  7  1  0  0  0  0
  2  3  1  0  0  0  0
  2  4  1  0  0  0  0
  2  5  1  0  0  0  0
  1  2  1  0  0  0  0
 17 18  2  0  0  0  0
 17 19  1  0  0  0  0
 14 15  1  0  0  0  0
 14 16  2  0  0  0  0
 11 12  1  0  0  0  0
 11 13  1  0  0  0  0
 11 14  1  0  0  0  0
  9 10  1  0  0  0  0
  9 11  1  0  0  0  0
  9 17  1  0  0  0  0
  7  8  1  0  0  0  0
  7  9  1  0  0  0  0
 21 22  1  0  0  0  0
 21 23  1  0  0  0  0
 21 24  1  0  0  0  0
 19 20  1  0  0  0  0
 19 21  1  0  0  0  0
M  CHG  1  15  -1
M  END
$$$$
default_name
  -OEChem-02102213163D

 24 23  0     1  0  0  0  0  0999 V2000
   -2.8347   -3.7166    0.8034 H   0  0  0  0  0  0  0  0  0  0  0  0
   -2.7728   -2.7096    0.3954 C   0  0  0  0  0  0  0  0  0  0  0  0
   -3.4267   -2.0426    0.9524 H   0  0  0  0  0  0  0  0  0  0  0  0
   -3.0538   -2.7186   -0.6556 H   0  0  0  0  0  0  0  0  0  0  0  0
   -1.3498   -2.2206    0.5184 C   0  0  0  0  0  0  0  0  0  0  0  0
   -0.4997   -2.9426    1.0194 O   0  0  0  0  0  0  0  0  0  0  0  0
   -1.1198   -0.9926    0.0674 N   0  0  0  0  0  0  0  0  0  0  0  0
   -1.8978   -0.4486   -0.2716 H   0  0  0  0  0  0  0  0  0  0  0  0
    0.1693   -0.2866    0.0854 C   0  0  1  0  0  0  0  0  0  0  0  0
    0.9043   -0.8713   -0.4705 H   0  0  0  0  0  0  0  0  0  0  0  0
    0.0106    1.0816   -0.6124 C   0  0  0  0  0  0  0  0  0  0  0  0
    1.0025    1.4759   -0.8401 H   0  0  0  0  0  0  0  0  0  0  0  0
   -0.5148    0.9352   -1.5587 H   0  0  0  0  0  0  0  0  0  0  0  0
   -0.7303    2.1398    0.2200 C   0  0  0  0  0  0  0  0  0  0  0  0
   -1.7895    2.6290   -0.2387 O   0  5  0  0  0  0  0  0  0  0  0  0
   -0.2144    2.4672    1.3103 O   0  0  0  0  0  0  0  0  0  0  0  0
    0.6664   -0.1450    1.5428 C   0  0  0  0  0  0  0  0  0  0  0  0
    1.8485   -0.3724    1.8265 O   0  0  0  0  0  0  0  0  0  0  0  0
   -0.2161    0.2434    2.4686 N   0  0  0  0  0  0  0  0  0  0  0  0
   -1.1850    0.3219    2.1537 H   0  0  0  0  0  0  0  0  0  0  0  0
    0.0735    0.4128    3.8885 C   0  0  0  0  0  0  0  0  0  0  0  0
    1.0159    0.9483    4.0105 H   0  0  0  0  0  0  0  0  0  0  0  0
   -0.7315    0.9748    4.3613 H   0  0  0  0  0  0  0  0  0  0  0  0
    0.1564   -0.5677    4.3577 H   0  0  0  0  0  0  0  0  0  0  0  0
  5  6  2  0  0  0  0
  5  7  1  0  0  0  0
  2  3  1  0  0  0  0
  2  4  1  0  0  0  0
  2  5  1  0  0  0  0
  1  2  1  0  0  0  0
 17 18  2  0  0  0  0
 17 19  1  0  0  0  0
 14 15  1  0  0  0  0
 14 16  2  0  0  0  0
 11 12  1  0  0  0  0
 11 13  1  0  0  0  0
 11 14  1  0  0  0  0
  9 10  1  0  0  0  0
  9 11  1  0  0  0  0
  9 17  1  0  0  0  0
  7  8  1  0  0  0  0
  7  9  1  0  0  0  0
 21 22  1  0  0  0  0
 21 23  1  0  0  0  0
 21 24  1  0  0  0  0
 19 20  1  0  0  0  0
 19 21  1  0  0  0  0
M  CHG  1  15  -1
M  END
$$$$
default_name
  -OEChem-02102213163D

 24 23  0     1  0  0  0  0  0999 V2000
   -2.8347   -3.7166    0.8034 H   0  0  0  0  0  0  0  0  0  0  0  0
   -2.7728   -2.7096    0.3954 C   0  0  0  0  0  0  0  0  0  0  0  0
   -3.4267   -2.0426    0.9524 H   0  0  0  0  0  0  0  0  0  0  0  0
   -3.0538   -2.7186   -0.6556 H   0  0  0  0  0  0  0  0  0  0  0  0
   -1.3498   -2.2206    0.5184 C   0  0  0  0  0  0  0  0  0  0  0  0
   -0.4997   -2.9426    1.0194 O   0  0  0  0  0  0  0  0  0  0  0  0
   -1.1198   -0.9926    0.0674 N   0  0  0  0  0  0  0  0  0  0  0  0
   -1.8978   -0.4486   -0.2716 H   0  0  0  0  0  0  0  0  0  0  0  0
    0.1693   -0.2866    0.0854 C   0  0  1  0  0  0  0  0  0  0  0  0
    0.9043   -0.8713   -0.4705 H   0  0  0  0  0  0  0  0  0  0  0  0
    0.0106    1.0816   -0.6124 C   0  0  0  0  0  0  0  0  0  0  0  0
    1.0025    1.4759   -0.8401 H   0  0  0  0  0  0  0  0  0  0  0  0
   -0.5148    0.9352   -1.5587 H   0  0  0  0  0  0  0  0  0  0  0  0
   -0.7303    2.1398    0.2200 C   0  0  0  0  0  0  0  0  0  0  0  0
   -1.9136    2.4206   -0.0842 O   0  5  0  0  0  0  0  0  0  0  0  0
   -0.0928    2.6777    1.1508 O   0  0  0  0  0  0  0  0  0  0  0  0
    0.6664   -0.1450    1.5428 C   0  0  0  0  0  0  0  0  0  0  0  0
    1.8485   -0.3724    1.8265 O   0  0  0  0  0  0  0  0  0  0  0  0
   -0.2161    0.2434    2.4686 N   0  0  0  0  0  0  0  0  0  0  0  0
   -1.1850    0.3219    2.1537 H   0  0  0  0  0  0  0  0  0  0  0  0
    0.0735    0.4128    3.8885 C   0  0  0  0  0  0  0  0  0  0  0  0
    1.0159    0.9483    4.0105 H   0  0  0  0  0  0  0  0  0  0  0  0
   -0.7315    0.9748    4.3613 H   0  0  0  0  0  0  0  0  0  0  0  0
    0.1564   -0.5677    4.3577 H   0  0  0  0  0  0  0  0  0  0  0  0
  5  6  2  0  0  0  0
  5  7  1  0  0  0  0
  2  3  1  0  0  0  0
  2  4  1  0  0  0  0
  2  5  1  0  0  0  0
  1  2  1  0  0  0  0
 17 18  2  0  0  0  0
 17 19  1  0  0  0  0
 14 15  1  0  0  0  0
 14 16  2  0  0  0  0
 11 12  1  0  0  0  0
 11 13  1  0  0  0  0
 11 14  1  0  0  0  0
  9 10  1  0  0  0  0
  9 11  1  0  0  0  0
  9 17  1  0  0  0  0
  7  8  1  0  0  0  0
  7  9  1  0  0  0  0
 21 22  1  0  0  0  0
 21 23  1  0  0  0  0
 21 24  1  0  0  0  0
 19 20  1  0  0  0  0
 19 21  1  0  0  0  0
M  CHG  1  15  -1
M  END
$$$$
default_name
  -OEChem-02102213163D

 24 23  0     1  0  0  0  0  0999 V2000
   -2.8347   -3.7166    0.8034 H   0  0  0  0  0  0  0  0  0  0  0  0
   -2.7728   -2.7096    0.3954 C   0  0  0  0  0  0  0  0  0  0  0  0
   -3.4267   -2.0426    0.9524 H   0  0  0  0  0  0  0  0  0  0  0  0
   -3.0538   -2.7186   -0.6556 H   0  0  0  0  0  0  0  0  0  0  0  0
   -1.3498   -2.2206    0.5184 C   0  0  0  0  0  0  0  0  0  0  0  0
   -0.4997   -2.9426    1.0194 O   0  0  0  0  0  0  0  0  0  0  0  0
   -1.1198   -0.9926    0.0674 N   0  0  0  0  0  0  0  0  0  0  0  0
   -1.8978   -0.4486   -0.2716 H   0  0  0  0  0  0  0  0  0  0  0  0
    0.1693   -0.2866    0.0854 C   0  0  1  0  0  0  0  0  0  0  0  0
    0.9043   -0.8713   -0.4705 H   0  0  0  0  0  0  0  0  0  0  0  0
    0.0106    1.0816   -0.6124 C   0  0  0  0  0  0  0  0  0  0  0  0
    1.0025    1.4759   -0.8401 H   0  0  0  0  0  0  0  0  0  0  0  0
   -0.5148    0.9352   -1.5587 H   0  0  0  0  0  0  0  0  0  0  0  0
   -0.7303    2.1398    0.2200 C   0  0  0  0  0  0  0  0  0  0  0  0
   -1.9767    2.2213    0.1131 O   0  5  0  0  0  0  0  0  0  0  0  0
   -0.0334    2.8782    0.9488 O   0  0  0  0  0  0  0  0  0  0  0  0
    0.6664   -0.1450    1.5428 C   0  0  0  0  0  0  0  0  0  0  0  0
    1.8485   -0.3724    1.8265 O   0  0  0  0  0  0  0  0  0  0  0  0
   -0.2161    0.2434    2.4686 N   0  0  0  0  0  0  0  0  0  0  0  0
   -1.1850    0.3219    2.1537 H   0  0  0  0  0  0  0  0  0  0  0  0
    0.0735    0.4128    3.8885 C   0  0  0  0  0  0  0  0  0  0  0  0
    1.0159    0.9483    4.0105 H   0  0  0  0  0  0  0  0  0  0  0  0
   -0.7315    0.9748    4.3613 H   0  0  0  0  0  0  0  0  0  0  0  0
    0.1564   -0.5677    4.3577 H   0  0  0  0  0  0  0  0  0  0  0  0
  5  6  2  0  0  0  0
  5  7  1  0  0  0  0
  2  3  1  0  0  0  0
  2  4  1  0  0  0  0
  2  5  1  0  0  0  0
  1  2  1  0  0  0  0
 17 18  2  0  0  0  0
 17 19  1  0  0  0  0
 14 15  1  0  0  0  0
 14 16  2  0  0  0  0
 11 12  1  0  0  0  0
 11 13  1  0  0  0  0
 11 14  1  0  0  0  0
  9 10  1  0  0  0  0
  9 11  1  0  0  0  0
  9 17  1  0  0  0  0
  7  8  1  0  0  0  0
  7  9  1  0  0  0  0
 21 22  1  0  0  0  0
 21 23  1  0  0  0  0
 21 24  1  0  0  0  0
 19 20  1  0  0  0  0
 19 21  1  0  0  0  0
M  CHG  1  15  -1
M  END
$$$$
default_name
  -OEChem-02102213163D

 24 23  0     1  0  0  0  0  0999 V2000
   -2.8347   -3.7166    0.8034 H   0  0  0  0  0  0  0  0  0  0  0  0
   -2.7728   -2.7096    0.3954 C   0  0  0  0  0  0  0  0  0  0  0  0
   -3.4267   -2.0426    0.9524 H   0  0  0  0  0  0  0  0  0  0  0  0
   -3.0538   -2.7186   -0.6556 H   0  0  0  0  0  0  0  0  0  0  0  0
   -1.3498   -2.2206    0.5184 C   0  0  0  0  0  0  0  0  0  0  0  0
   -0.4997   -2.9426    1.0194 O   0  0  0  0  0  0  0  0  0  0  0  0
   -1.1198   -0.9926    0.0674 N   0  0  0  0  0  0  0  0  0  0  0  0
   -1.8978   -0.4486   -0.2716 H   0  0  0  0  0  0  0  0  0  0  0  0
    0.1693   -0.2866    0.0854 C   0  0  1  0  0  0  0  0  0  0  0  0
    0.9043   -0.8713   -0.4705 H   0  0  0  0  0  0  0  0  0  0  0  0
    0.0106    1.0816   -0.6124 C   0  0  0  0  0  0  0  0  0  0  0  0
    1.0025    1.4759   -0.8401 H   0  0  0  0  0  0  0  0  0  0  0  0
   -0.5148    0.9352   -1.5587 H   0  0  0  0  0  0  0  0  0  0  0  0
   -0.7303    2.1398    0.2200 C   0  0  0  0  0  0  0  0  0  0  0  0
   -1.9745    2.0445    0.3397 O   0  5  0  0  0  0  0  0  0  0  0  0
   -0.0400    3.0550    0.7181 O   0  0  0  0  0  0  0  0  0  0  0  0
    0.6664   -0.1450    1.5428 C   0  0  0  0  0  0  0  0  0  0  0  0
    1.8485   -0.3724    1.8265 O   0  0  0  0  0  0  0  0  0  0  0  0
   -0.2161    0.2434    2.4686 N   0  0  0  0  0  0  0  0  0  0  0  0
   -1.1850    0.3219    2.1537 H   0  0  0  0  0  0  0  0  0  0  0  0
    0.0735    0.4128    3.8885 C   0  0  0  0  0  0  0  0  0  0  0  0
    1.0159    0.9483    4.0105 H   0  0  0  0  0  0  0  0  0  0  0  0
   -0.7315    0.9748    4.3613 H   0  0  0  0  0  0  0  0  0  0  0  0
    0.1564   -0.5677    4.3577 H   0  0  0  0  0  0  0  0  0  0  0  0
  5  6  2  0  0  0  0
  5  7  1  0  0  0  0
  2  3  1  0  0  0  0
  2  4  1  0  0  0  0
  2  5  1  0  0  0  0
  1  2  1  0  0  0  0
 17 18  2  0  0  0  0
 17 19  1  0  0  0  0
 14 15  1  0  0  0  0
 14 16  2  0  0  0  0
 11 12  1  0  0  0  0
 11 13  1  0  0  0  0
 11 14  1  0  0  0  0
  9 10  1  0  0  0  0
  9 11  1  0  0  0  0
  9 17  1  0  0  0  0
  7  8  1  0  0  0  0
  7  9  1  0  0  0  0
 21 22  1  0  0  0  0
 21 23  1  0  0  0  0
 21 24  1  0  0  0  0
 19 20  1  0  0  0  0
 19 21  1  0  0  0  0
M  CHG  1  15  -1
M  END
$$$$
default_name
  -OEChem-02102213163D

 24 23  0     1  0  0  0  0  0999 V2000
   -2.8347   -3.7166    0.8034 H   0  0  0  0  0  0  0  0  0  0  0  0
   -2.7728   -2.7096    0.3954 C   0  0  0  0  0  0  0  0  0  0  0  0
   -3.4267   -2.0426    0.9524 H   0  0  0  0  0  0  0  0  0  0  0  0
   -3.0538   -2.7186   -0.6556 H   0  0  0  0  0  0  0  0  0  0  0  0
   -1.3498   -2.2206    0.5184 C   0  0  0  0  0  0  0  0  0  0  0  0
   -0.4997   -2.9426    1.0194 O   0  0  0  0  0  0  0  0  0  0  0  0
   -1.1198   -0.9926    0.0674 N   0  0  0  0  0  0  0  0  0  0  0  0
   -1.8978   -0.4486   -0.2716 H   0  0  0  0  0  0  0  0  0  0  0  0
    0.1693   -0.2866    0.0854 C   0  0  1  0  0  0  0  0  0  0  0  0
    0.9043   -0.8713   -0.4705 H   0  0  0  0  0  0  0  0  0  0  0  0
    0.0106    1.0816   -0.6124 C   0  0  0  0  0  0  0  0  0  0  0  0
    1.0025    1.4759   -0.8401 H   0  0  0  0  0  0  0  0  0  0  0  0
   -0.5148    0.9352   -1.5587 H   0  0  0  0  0  0  0  0  0  0  0  0
   -0.7303    2.1398    0.2200 C   0  0  0  0  0  0  0  0  0  0  0  0
   -1.9072    1.9023    0.5804 O   0  5  0  0  0  0  0  0  0  0  0  0
   -0.1124    3.1961    0.4744 O   0  0  0  0  0  0  0  0  0  0  0  0
    0.6664   -0.1450    1.5428 C   0  0  0  0  0  0  0  0  0  0  0  0
    1.8485   -0.3724    1.8265 O   0  0  0  0  0  0  0  0  0  0  0  0
   -0.2161    0.2434    2.4686 N   0  0  0  0  0  0  0  0  0  0  0  0
   -1.1850    0.3219    2.1537 H   0  0  0  0  0  0  0  0  0  0  0  0
    0.0735    0.4128    3.8885 C   0  0  0  0  0  0  0  0  0  0  0  0
    1.0159    0.9483    4.0105 H   0  0  0  0  0  0  0  0  0  0  0  0
   -0.7315    0.9748    4.3613 H   0  0  0  0  0  0  0  0  0  0  0  0
    0.1564   -0.5677    4.3577 H   0  0  0  0  0  0  0  0  0  0  0  0
  5  6  2  0  0  0  0
  5  7  1  0  0  0  0
  2  3  1  0  0  0  0
  2  4  1  0  0  0  0
  2  5  1  0  0  0  0
  1  2  1  0  0  0  0
 17 18  2  0  0  0  0
 17 19  1  0  0  0  0
 14 15  1  0  0  0  0
 14 16  2  0  0  0  0
 11 12  1  0  0  0  0
 11 13  1  0  0  0  0
 11 14  1  0  0  0  0
  9 10  1  0  0  0  0
  9 11  1  0  0  0  0
  9 17  1  0  0  0  0
  7  8  1  0  0  0  0
  7  9  1  0  0  0  0
 21 22  1  0  0  0  0
 21 23  1  0  0  0  0
 21 24  1  0  0  0  0
 19 20  1  0  0  0  0
 19 21  1  0  0  0  0
M  CHG  1  15  -1
M  END
$$$$
default_name
  -OEChem-02102213163D

 24 23  0     1  0  0  0  0  0999 V2000
   -2.8347   -3.7166    0.8034 H   0  0  0  0  0  0  0  0  0  0  0  0
   -2.7728   -2.7096    0.3954 C   0  0  0  0  0  0  0  0  0  0  0  0
   -3.4267   -2.0426    0.9524 H   0  0  0  0  0  0  0  0  0  0  0  0
   -3.0538   -2.7186   -0.6556 H   0  0  0  0  0  0  0  0  0  0  0  0
   -1.3498   -2.2206    0.5184 C   0  0  0  0  0  0  0  0  0  0  0  0
   -0.4997   -2.9426    1.0194 O   0  0  0  0  0  0  0  0  0  0  0  0
   -1.1198   -0.9926    0.0674 N   0  0  0  0  0  0  0  0  0  0  0  0
   -1.8978   -0.4486   -0.2716 H   0  0  0  0  0  0  0  0  0  0  0  0
    0.1693   -0.2866    0.0854 C   0  0  1  0  0  0  0  0  0  0  0  0
    0.9043   -0.8713   -0.4705 H   0  0  0  0  0  0  0  0  0  0  0  0
    0.0106    1.0816   -0.6124 C   0  0  0  0  0  0  0  0  0  0  0  0
    1.0025    1.4759   -0.8401 H   0  0  0  0  0  0  0  0  0  0  0  0
   -0.5148    0.9352   -1.5587 H   0  0  0  0  0  0  0  0  0  0  0  0
   -0.7303    2.1398    0.2200 C   0  0  0  0  0  0  0  0  0  0  0  0
   -1.7794    1.8044    0.8186 O   0  5  0  0  0  0  0  0  0  0  0  0
   -0.2455    3.2918    0.2343 O   0  0  0  0  0  0  0  0  0  0  0  0
    0.6664   -0.1450    1.5428 C   0  0  0  0  0  0  0  0  0  0  0  0
    1.8485   -0.3724    1.8265 O   0  0  0  0  0  0  0  0  0  0  0  0
   -0.2161    0.2434    2.4686 N   0  0  0  0  0  0  0  0  0  0  0  0
   -1.1850    0.3219    2.1537 H   0  0  0  0  0  0  0  0  0  0  0  0
    0.0735    0.4128    3.8885 C   0  0  0  0  0  0  0  0  0  0  0  0
    1.0159    0.9483    4.0105 H   0  0  0  0  0  0  0  0  0  0  0  0
   -0.7315    0.9748    4.3613 H   0  0  0  0  0  0  0  0  0  0  0  0
    0.1564   -0.5677    4.3577 H   0  0  0  0  0  0  0  0  0  0  0  0
  5  6  2  0  0  0  0
  5  7  1  0  0  0  0
  2  3  1  0  0  0  0
  2  4  1  0  0  0  0
  2  5  1  0  0  0  0
  1  2  1  0  0  0  0
 17 18  2  0  0  0  0
 17 19  1  0  0  0  0
 14 15  1  0  0  0  0
 14 16  2  0  0  0  0
 11 12  1  0  0  0  0
 11 13  1  0  0  0  0
 11 14  1  0  0  0  0
  9 10  1  0  0  0  0
  9 11  1  0  0  0  0
  9 17  1  0  0  0  0
  7  8  1  0  0  0  0
  7  9  1  0  0  0  0
 21 22  1  0  0  0  0
 21 23  1  0  0  0  0
 21 24  1  0  0  0  0
 19 20  1  0  0  0  0
 19 21  1  0  0  0  0
M  CHG  1  15  -1
M  END
$$$$
default_name
  -OEChem-02102213163D

 24 23  0     1  0  0  0  0  0999 V2000
   -2.8347   -3.7166    0.8034 H   0  0  0  0  0  0  0  0  0  0  0  0
   -2.7728   -2.7096    0.3954 C   0  0  0  0  0  0  0  0  0  0  0  0
   -3.4267   -2.0426    0.9524 H   0  0  0  0  0  0  0  0  0  0  0  0
   -3.0538   -2.7186   -0.6556 H   0  0  0  0  0  0  0  0  0  0  0  0
   -1.3498   -2.2206    0.5184 C   0  0  0  0  0  0  0  0  0  0  0  0
   -0.4997   -2.9426    1.0194 O   0  0  0  0  0  0  0  0  0  0  0  0
   -1.1198   -0.9926    0.0674 N   0  0  0  0  0  0  0  0  0  0  0  0
   -1.8978   -0.4486   -0.2716 H   0  0  0  0  0  0  0  0  0  0  0  0
    0.1693   -0.2866    0.0854 C   0  0  1  0  0  0  0  0  0  0  0  0
    0.9043   -0.8713   -0.4705 H   0  0  0  0  0  0  0  0  0  0  0  0
    0.0106    1.0816   -0.6124 C   0  0  0  0  0  0  0  0  0  0  0  0
    1.0025    1.4759   -0.8401 H   0  0  0  0  0  0  0  0  0  0  0  0
   -0.5148    0.9352   -1.5587 H   0  0  0  0  0  0  0  0  0  0  0  0
   -0.7303    2.1398    0.2200 C   0  0  0  0  0  0  0  0  0  0  0  0
   -1.5998    1.7575    1.0381 O   0  5  0  0  0  0  0  0  0  0  0  0
   -0.4302    3.3356    0.0142 O   0  0  0  0  0  0  0  0  0  0  0  0
    0.6664   -0.1450    1.5428 C   0  0  0  0  0  0  0  0  0  0  0  0
    1.8485   -0.3724    1.8265 O   0  0  0  0  0  0  0  0  0  0  0  0
   -0.2161    0.2434    2.4686 N   0  0  0  0  0  0  0  0  0  0  0  0
   -1.1850    0.3219    2.1537 H   0  0  0  0  0  0  0  0  0  0  0  0
    0.0735    0.4128    3.8885 C   0  0  0  0  0  0  0  0  0  0  0  0
    1.0159    0.9483    4.0105 H   0  0  0  0  0  0  0  0  0  0  0  0
   -0.7315    0.9748    4.3613 H   0  0  0  0  0  0  0  0  0  0  0  0
    0.1564   -0.5677    4.3577 H   0  0  0  0  0  0  0  0  0  0  0  0
  5  6  2  0  0  0  0
  5  7  1  0  0  0  0
  2  3  1  0  0  0  0
  2  4  1  0  0  0  0
  2  5  1  0  0  0  0
  1  2  1  0  0  0  0
 17 18  2  0  0  0  0
 17 19  1  0  0  0  0
 14 15  1  0  0  0  0
 14 16  2  0  0  0  0
 11 12  1  0  0  0  0
 11 13  1  0  0  0  0
 11 14  1  0  0  0  0
  9 10  1  0  0  0  0
  9 11  1  0  0  0  0
  9 17  1  0  0  0  0
  7  8  1  0  0  0  0
  7  9  1  0  0  0  0
 21 22  1  0  0  0  0
 21 23  1  0  0  0  0
 21 24  1  0  0  0  0
 19 20  1  0  0  0  0
 19 21  1  0  0  0  0
M  CHG  1  15  -1
M  END
$$$$
default_name
  -OEChem-02102213163D

 24 23  0     1  0  0  0  0  0999 V2000
   -2.8347   -3.7166    0.8034 H   0  0  0  0  0  0  0  0  0  0  0  0
   -2.7728   -2.7096    0.3954 C   0  0  0  0  0  0  0  0  0  0  0  0
   -3.4267   -2.0426    0.9524 H   0  0  0  0  0  0  0  0  0  0  0  0
   -3.0538   -2.7186   -0.6556 H   0  0  0  0  0  0  0  0  0  0  0  0
   -1.3498   -2.2206    0.5184 C   0  0  0  0  0  0  0  0  0  0  0  0
   -0.4997   -2.9426    1.0194 O   0  0  0  0  0  0  0  0  0  0  0  0
   -1.1198   -0.9926    0.0674 N   0  0  0  0  0  0  0  0  0  0  0  0
   -1.8978   -0.4486   -0.2716 H   0  0  0  0  0  0  0  0  0  0  0  0
    0.1693   -0.2866    0.0854 C   0  0  1  0  0  0  0  0  0  0  0  0
    0.9043   -0.8713   -0.4705 H   0  0  0  0  0  0  0  0  0  0  0  0
    0.0106    1.0816   -0.6124 C   0  0  0  0  0  0  0  0  0  0  0  0
    1.0025    1.4759   -0.8401 H   0  0  0  0  0  0  0  0  0  0  0  0
   -0.5148    0.9352   -1.5587 H   0  0  0  0  0  0  0  0  0  0  0  0
   -0.7303    2.1398    0.2200 C   0  0  0  0  0  0  0  0  0  0  0  0
   -1.3806    1.7648    1.2239 O   0  5  0  0  0  0  0  0  0  0  0  0
   -0.6541    3.3245   -0.1710 O   0  0  0  0  0  0  0  0  0  0  0  0
    0.6664   -0.1450    1.5428 C   0  0  0  0  0  0  0  0  0  0  0  0
    1.8485   -0.3724    1.8265 O   0  0  0  0  0  0  0  0  0  0  0  0
   -0.2161    0.2434    2.4686 N   0  0  0  0  0  0  0  0  0  0  0  0
   -1.1850    0.3219    2.1537 H   0  0  0  0  0  0  0  0  0  0  0  0
    0.0735    0.4128    3.8885 C   0  0  0  0  0  0  0  0  0  0  0  0
    1.0159    0.9483    4.0105 H   0  0  0  0  0  0  0  0  0  0  0  0
   -0.7315    0.9748    4.3613 H   0  0  0  0  0  0  0  0  0  0  0  0
    0.1564   -0.5677    4.3577 H   0  0  0  0  0  0  0  0  0  0  0  0
  5  6  2  0  0  0  0
  5  7  1  0  0  0  0
  2  3  1  0  0  0  0
  2  4  1  0  0  0  0
  2  5  1  0  0  0  0
  1  2  1  0  0  0  0
 17 18  2  0  0  0  0
 17 19  1  0  0  0  0
 14 15  1  0  0  0  0
 14 16  2  0  0  0  0
 11 12  1  0  0  0  0
 11 13  1  0  0  0  0
 11 14  1  0  0  0  0
  9 10  1  0  0  0  0
  9 11  1  0  0  0  0
  9 17  1  0  0  0  0
  7  8  1  0  0  0  0
  7  9  1  0  0  0  0
 21 22  1  0  0  0  0
 21 23  1  0  0  0  0
 21 24  1  0  0  0  0
 19 20  1  0  0  0  0
 19 21  1  0  0  0  0
M  CHG  1  15  -1
M  END
$$$$
default_name
  -OEChem-02102213163D

 24 23  0     1  0  0  0  0  0999 V2000
   -2.8347   -3.7166    0.8034 H   0  0  0  0  0  0  0  0  0  0  0  0
   -2.7728   -2.7096    0.3954 C   0  0  0  0  0  0  0  0  0  0  0  0
   -3.4267   -2.0426    0.9524 H   0  0  0  0  0  0  0  0  0  0  0  0
   -3.0538   -2.7186   -0.6556 H   0  0  0  0  0  0  0  0  0  0  0  0
   -1.3498   -2.2206    0.5184 C   0  0  0  0  0  0  0  0  0  0  0  0
   -0.4997   -2.9426    1.0194 O   0  0  0  0  0  0  0  0  0  0  0  0
   -1.1198   -0.9926    0.0674 N   0  0  0  0  0  0  0  0  0  0  0  0
   -1.8978   -0.4486   -0.2716 H   0  0  0  0  0  0  0  0  0  0  0  0
    0.1693   -0.2866    0.0854 C   0  0  1  0  0  0  0  0  0  0  0  0
    0.9043   -0.8713   -0.4705 H   0  0  0  0  0  0  0  0  0  0  0  0
    0.0106    1.0816   -0.6124 C   0  0  0  0  0  0  0  0  0  0  0  0
    1.0025    1.4759   -0.8401 H   0  0  0  0  0  0  0  0  0  0  0  0
   -0.5148    0.9352   -1.5587 H   0  0  0  0  0  0  0  0  0  0  0  0
   -0.7303    2.1398    0.2200 C   0  0  0  0  0  0  0  0  0  0  0  0
   -1.1368    1.8257    1.3635 O   0  5  0  0  0  0  0  0  0  0  0  0
   -0.9018    3.2594   -0.3086 O   0  0  0  0  0  0  0  0  0  0  0  0
    0.6664   -0.1450    1.5428 C   0  0  0  0  0  0  0  0  0  0  0  0
    1.8485   -0.3724    1.8265 O   0  0  0  0  0  0  0  0  0  0  0  0
   -0.2161    0.2434    2.4686 N   0  0  0  0  0  0  0  0  0  0  0  0
   -1.1850    0.3219    2.1537 H   0  0  0  0  0  0  0  0  0  0  0  0
    0.0735    0.4128    3.8885 C   0  0  0  0  0  0  0  0  0  0  0  0
    1.0159    0.9483    4.0105 H   0  0  0  0  0  0  0  0  0  0  0  0
   -0.7315    0.9748    4.3613 H   0  0  0  0  0  0  0  0  0  0  0  0
    0.1564   -0.5677    4.3577 H   0  0  0  0  0  0  0  0  0  0  0  0
  5  6  2  0  0  0  0
  5  7  1  0  0  0  0
  2  3  1  0  0  0  0
  2  4  1  0  0  0  0
  2  5  1  0  0  0  0
  1  2  1  0  0  0  0
 17 18  2  0  0  0  0
 17 19  1  0  0  0  0
 14 15  1  0  0  0  0
 14 16  2  0  0  0  0
 11 12  1  0  0  0  0
 11 13  1  0  0  0  0
 11 14  1  0  0  0  0
  9 10  1  0  0  0  0
  9 11  1  0  0  0  0
  9 17  1  0  0  0  0
  7  8  1  0  0  0  0
  7  9  1  0  0  0  0
 21 22  1  0  0  0  0
 21 23  1  0  0  0  0
 21 24  1  0  0  0  0
 19 20  1  0  0  0  0
 19 21  1  0  0  0  0
M  CHG  1  15  -1
M  END
$$$$
default_name
  -OEChem-02102213163D

 24 23  0     1  0  0  0  0  0999 V2000
   -2.8347   -3.7166    0.8034 H   0  0  0  0  0  0  0  0  0  0  0  0
   -2.7728   -2.7096    0.3954 C   0  0  0  0  0  0  0  0  0  0  0  0
   -3.4267   -2.0426    0.9524 H   0  0  0  0  0  0  0  0  0  0  0  0
   -3.0538   -2.7186   -0.6556 H   0  0  0  0  0  0  0  0  0  0  0  0
   -1.3498   -2.2206    0.5184 C   0  0  0  0  0  0  0  0  0  0  0  0
   -0.4997   -2.9426    1.0194 O   0  0  0  0  0  0  0  0  0  0  0  0
   -1.1198   -0.9926    0.0674 N   0  0  0  0  0  0  0  0  0  0  0  0
   -1.8978   -0.4486   -0.2716 H   0  0  0  0  0  0  0  0  0  0  0  0
    0.1693   -0.2866    0.0854 C   0  0  1  0  0  0  0  0  0  0  0  0
    0.9043   -0.8713   -0.4705 H   0  0  0  0  0  0  0  0  0  0  0  0
    0.0106    1.0816   -0.6124 C   0  0  0  0  0  0  0  0  0  0  0  0
    1.0025    1.4759   -0.8401 H   0  0  0  0  0  0  0  0  0  0  0  0
   -0.5148    0.9352   -1.5587 H   0  0  0  0  0  0  0  0  0  0  0  0
   -0.7303    2.1398    0.2200 C   0  0  0  0  0  0  0  0  0  0  0  0
   -0.8849    1.9362    1.4472 O   0  5  0  0  0  0  0  0  0  0  0  0
   -1.1564    3.1445   -0.3893 O   0  0  0  0  0  0  0  0  0  0  0  0
    0.6664   -0.1450    1.5428 C   0  0  0  0  0  0  0  0  0  0  0  0
    1.8485   -0.3724    1.8265 O   0  0  0  0  0  0  0  0  0  0  0  0
   -0.2161    0.2434    2.4686 N   0  0  0  0  0  0  0  0  0  0  0  0
   -1.1850    0.3219    2.1537 H   0  0  0  0  0  0  0  0  0  0  0  0
    0.0735    0.4128    3.8885 C   0  0  0  0  0  0  0  0  0  0  0  0
    1.0159    0.9483    4.0105 H   0  0  0  0  0  0  0  0  0  0  0  0
   -0.7315    0.9748    4.3613 H   0  0  0  0  0  0  0  0  0  0  0  0
    0.1564   -0.5677    4.3577 H   0  0  0  0  0  0  0  0  0  0  0  0
  5  6  2  0  0  0  0
  5  7  1  0  0  0  0
  2  3  1  0  0  0  0
  2  4  1  0  0  0  0
  2  5  1  0  0  0  0
  1  2  1  0  0  0  0
 17 18  2  0  0  0  0
 17 19  1  0  0  0  0
 14 15  1  0  0  0  0
 14 16  2  0  0  0  0
 11 12  1  0  0  0  0
 11 13  1  0  0  0  0
 11 14  1  0  0  0  0
  9 10  1  0  0  0  0
  9 11  1  0  0  0  0
  9 17  1  0  0  0  0
  7  8  1  0  0  0  0
  7  9  1  0  0  0  0
 21 22  1  0  0  0  0
 21 23  1  0  0  0  0
 21 24  1  0  0  0  0
 19 20  1  0  0  0  0
 19 21  1  0  0  0  0
M  CHG  1  15  -1
M  END
$$$$
default_name
  -OEChem-02102213163D

 24 23  0     1  0  0  0  0  0999 V2000
   -2.8347   -3.7166    0.8034 H   0  0  0  0  0  0  0  0  0  0  0  0
   -2.7728   -2.7096    0.3954 C   0  0  0  0  0  0  0  0  0  0  0  0
   -3.4267   -2.0426    0.9524 H   0  0  0  0  0  0  0  0  0  0  0  0
   -3.0538   -2.7186   -0.6556 H   0  0  0  0  0  0  0  0  0  0  0  0
   -1.3498   -2.2206    0.5184 C   0  0  0  0  0  0  0  0  0  0  0  0
   -0.4997   -2.9426    1.0194 O   0  0  0  0  0  0  0  0  0  0  0  0
   -1.1198   -0.9926    0.0674 N   0  0  0  0  0  0  0  0  0  0  0  0
   -1.8978   -0.4486   -0.2716 H   0  0  0  0  0  0  0  0  0  0  0  0
    0.1693   -0.2866    0.0854 C   0  0  1  0  0  0  0  0  0  0  0  0
    0.9043   -0.8713   -0.4705 H   0  0  0  0  0  0  0  0  0  0  0  0
    0.0106    1.0816   -0.6124 C   0  0  0  0  0  0  0  0  0  0  0  0
    1.0025    1.4759   -0.8401 H   0  0  0  0  0  0  0  0  0  0  0  0
   -0.5148    0.9352   -1.5587 H   0  0  0  0  0  0  0  0  0  0  0  0
   -0.7303    2.1398    0.2200 C   0  0  0  0  0  0  0  0  0  0  0  0
   -0.6422    2.0886    1.4695 O   0  5  0  0  0  0  0  0  0  0  0  0
   -1.4006    2.9879   -0.4074 O   0  0  0  0  0  0  0  0  0  0  0  0
    0.6664   -0.1450    1.5428 C   0  0  0  0  0  0  0  0  0  0  0  0
    1.8485   -0.3724    1.8265 O   0  0  0  0  0  0  0  0  0  0  0  0
   -0.2161    0.2434    2.4686 N   0  0  0  0  0  0  0  0  0  0  0  0
   -1.1850    0.3219    2.1537 H   0  0  0  0  0  0  0  0  0  0  0  0
    0.0735    0.4128    3.8885 C   0  0  0  0  0  0  0  0  0  0  0  0
    1.0159    0.9483    4.0105 H   0  0  0  0  0  0  0  0  0  0  0  0
   -0.7315    0.9748    4.3613 H   0  0  0  0  0  0  0  0  0  0  0  0
    0.1564   -0.5677    4.3577 H   0  0  0  0  0  0  0  0  0  0  0  0
  5  6  2  0  0  0  0
  5  7  1  0  0  0  0
  2  3  1  0  0  0  0
  2  4  1  0  0  0  0
  2  5  1  0  0  0  0
  1  2  1  0  0  0  0
 17 18  2  0  0  0  0
 17 19  1  0  0  0  0
 14 15  1  0  0  0  0
 14 16  2  0  0  0  0
 11 12  1  0  0  0  0
 11 13  1  0  0  0  0
 11 14  1  0  0  0  0
  9 10  1  0  0  0  0
  9 11  1  0  0  0  0
  9 17  1  0  0  0  0
  7  8  1  0  0  0  0
  7  9  1  0  0  0  0
 21 22  1  0  0  0  0
 21 23  1  0  0  0  0
 21 24  1  0  0  0  0
 19 20  1  0  0  0  0
 19 21  1  0  0  0  0
M  CHG  1  15  -1
M  END
$$$$
default_name
  -OEChem-02102213163D

 24 23  0     1  0  0  0  0  0999 V2000
   -2.8347   -3.7166    0.8034 H   0  0  0  0  0  0  0  0  0  0  0  0
   -2.7728   -2.7096    0.3954 C   0  0  0  0  0  0  0  0  0  0  0  0
   -3.4267   -2.0426    0.9524 H   0  0  0  0  0  0  0  0  0  0  0  0
   -3.0538   -2.7186   -0.6556 H   0  0  0  0  0  0  0  0  0  0  0  0
   -1.3498   -2.2206    0.5184 C   0  0  0  0  0  0  0  0  0  0  0  0
   -0.4997   -2.9426    1.0194 O   0  0  0  0  0  0  0  0  0  0  0  0
   -1.1198   -0.9926    0.0674 N   0  0  0  0  0  0  0  0  0  0  0  0
   -1.8978   -0.4486   -0.2716 H   0  0  0  0  0  0  0  0  0  0  0  0
    0.1693   -0.2866    0.0854 C   0  0  1  0  0  0  0  0  0  0  0  0
    0.9043   -0.8713   -0.4705 H   0  0  0  0  0  0  0  0  0  0  0  0
    0.0106    1.0816   -0.6124 C   0  0  0  0  0  0  0  0  0  0  0  0
    1.0025    1.4759   -0.8401 H   0  0  0  0  0  0  0  0  0  0  0  0
   -0.5148    0.9352   -1.5587 H   0  0  0  0  0  0  0  0  0  0  0  0
   -0.7303    2.1398    0.2200 C   0  0  0  0  0  0  0  0  0  0  0  0
   -0.4251    2.2726    1.4286 O   0  5  0  0  0  0  0  0  0  0  0  0
   -1.6178    2.8000   -0.3619 O   0  0  0  0  0  0  0  0  0  0  0  0
    0.6664   -0.1450    1.5428 C   0  0  0  0  0  0  0  0  0  0  0  0
    1.8485   -0.3724    1.8265 O   0  0  0  0  0  0  0  0  0  0  0  0
   -0.2161    0.2434    2.4686 N   0  0  0  0  0  0  0  0  0  0  0  0
   -1.1850    0.3219    2.1537 H   0  0  0  0  0  0  0  0  0  0  0  0
    0.0735    0.4128    3.8885 C   0  0  0  0  0  0  0  0  0  0  0  0
    1.0159    0.9483    4.0105 H   0  0  0  0  0  0  0  0  0  0  0  0
   -0.7315    0.9748    4.3613 H   0  0  0  0  0  0  0  0  0  0  0  0
    0.1564   -0.5677    4.3577 H   0  0  0  0  0  0  0  0  0  0  0  0
  5  6  2  0  0  0  0
  5  7  1  0  0  0  0
  2  3  1  0  0  0  0
  2  4  1  0  0  0  0
  2  5  1  0  0  0  0
  1  2  1  0  0  0  0
 17 18  2  0  0  0  0
 17 19  1  0  0  0  0
 14 15  1  0  0  0  0
 14 16  2  0  0  0  0
 11 12  1  0  0  0  0
 11 13  1  0  0  0  0
 11 14  1  0  0  0  0
  9 10  1  0  0  0  0
  9 11  1  0  0  0  0
  9 17  1  0  0  0  0
  7  8  1  0  0  0  0
  7  9  1  0  0  0  0
 21 22  1  0  0  0  0
 21 23  1  0  0  0  0
 21 24  1  0  0  0  0
 19 20  1  0  0  0  0
 19 21  1  0  0  0  0
M  CHG  1  15  -1
M  END
$$$$
default_name
  -OEChem-02102213163D

 24 23  0     1  0  0  0  0  0999 V2000
   -2.8347   -3.7166    0.8034 H   0  0  0  0  0  0  0  0  0  0  0  0
   -2.7728   -2.7096    0.3954 C   0  0  0  0  0  0  0  0  0  0  0  0
   -3.4267   -2.0426    0.9524 H   0  0  0  0  0  0  0  0  0  0  0  0
   -3.0538   -2.7186   -0.6556 H   0  0  0  0  0  0  0  0  0  0  0  0
   -1.3498   -2.2206    0.5184 C   0  0  0  0  0  0  0  0  0  0  0  0
   -0.4997   -2.9426    1.0194 O   0  0  0  0  0  0  0  0  0  0  0  0
   -1.1198   -0.9926    0.0674 N   0  0  0  0  0  0  0  0  0  0  0  0
   -1.8978   -0.4486   -0.2716 H   0  0  0  0  0  0  0  0  0  0  0  0
    0.1693   -0.2866    0.0854 C   0  0  1  0  0  0  0  0  0  0  0  0
    0.9043   -0.8713   -0.4705 H   0  0  0  0  0  0  0  0  0  0  0  0
    0.0106    1.0816   -0.6124 C   0  0  0  0  0  0  0  0  0  0  0  0
    1.0025    1.4759   -0.8401 H   0  0  0  0  0  0  0  0  0  0  0  0
   -0.5148    0.9352   -1.5587 H   0  0  0  0  0  0  0  0  0  0  0  0
   -0.7303    2.1398    0.2200 C   0  0  0  0  0  0  0  0  0  0  0  0
   -0.2486    2.4758    1.3276 O   0  5  0  0  0  0  0  0  0  0  0  0
   -1.7931    2.5938   -0.2558 O   0  0  0  0  0  0  0  0  0  0  0  0
    0.6664   -0.1450    1.5428 C   0  0  0  0  0  0  0  0  0  0  0  0
    1.8485   -0.3724    1.8265 O   0  0  0  0  0  0  0  0  0  0  0  0
   -0.2161    0.2434    2.4686 N   0  0  0  0  0  0  0  0  0  0  0  0
   -1.1850    0.3219    2.1537 H   0  0  0  0  0  0  0  0  0  0  0  0
    0.0735    0.4128    3.8885 C   0  0  0  0  0  0  0  0  0  0  0  0
    1.0159    0.9483    4.0105 H   0  0  0  0  0  0  0  0  0  0  0  0
   -0.7315    0.9748    4.3613 H   0  0  0  0  0  0  0  0  0  0  0  0
    0.1564   -0.5677    4.3577 H   0  0  0  0  0  0  0  0  0  0  0  0
  5  6  2  0  0  0  0
  5  7  1  0  0  0  0
  2  3  1  0  0  0  0
  2  4  1  0  0  0  0
  2  5  1  0  0  0  0
  1  2  1  0  0  0  0
 17 18  2  0  0  0  0
 17 19  1  0  0  0  0
 14 15  1  0  0  0  0
 14 16  2  0  0  0  0
 11 12  1  0  0  0  0
 11 13  1  0  0  0  0
 11 14  1  0  0  0  0
  9 10  1  0  0  0  0
  9 11  1  0  0  0  0
  9 17  1  0  0  0  0
  7  8  1  0  0  0  0
  7  9  1  0  0  0  0
 21 22  1  0  0  0  0
 21 23  1  0  0  0  0
 21 24  1  0  0  0  0
 19 20  1  0  0  0  0
 19 21  1  0  0  0  0
M  CHG  1  15  -1
M  END
$$$$
default_name
  -OEChem-02102213163D

 24 23  0     1  0  0  0  0  0999 V2000
   -2.8347   -3.7166    0.8034 H   0  0  0  0  0  0  0  0  0  0  0  0
   -2.7728   -2.7096    0.3954 C   0  0  0  0  0  0  0  0  0  0  0  0
   -3.4267   -2.0426    0.9524 H   0  0  0  0  0  0  0  0  0  0  0  0
   -3.0538   -2.7186   -0.6556 H   0  0  0  0  0  0  0  0  0  0  0  0
   -1.3498   -2.2206    0.5184 C   0  0  0  0  0  0  0  0  0  0  0  0
   -0.4997   -2.9426    1.0194 O   0  0  0  0  0  0  0  0  0  0  0  0
   -1.1198   -0.9926    0.0674 N   0  0  0  0  0  0  0  0  0  0  0  0
   -1.8978   -0.4486   -0.2716 H   0  0  0  0  0  0  0  0  0  0  0  0
    0.1693   -0.2866    0.0854 C   0  0  1  0  0  0  0  0  0  0  0  0
    0.9043   -0.8713   -0.4705 H   0  0  0  0  0  0  0  0  0  0  0  0
    0.0106    1.0816   -0.6124 C   0  0  0  0  0  0  0  0  0  0  0  0
    1.0025    1.4759   -0.8401 H   0  0  0  0  0  0  0  0  0  0  0  0
   -0.5148    0.9352   -1.5587 H   0  0  0  0  0  0  0  0  0  0  0  0
   -0.7303    2.1398    0.2200 C   0  0  0  0  0  0  0  0  0  0  0  0
   -0.1245    2.6841    1.1731 O   0  5  0  0  0  0  0  0  0  0  0  0
   -1.9147    2.3833   -0.0963 O   0  0  0  0  0  0  0  0  0  0  0  0
    0.6664   -0.1450    1.5428 C   0  0  0  0  0  0  0  0  0  0  0  0
    1.8485   -0.3724    1.8265 O   0  0  0  0  0  0  0  0  0  0  0  0
   -0.2161    0.2434    2.4686 N   0  0  0  0  0  0  0  0  0  0  0  0
   -1.1850    0.3219    2.1537 H   0  0  0  0  0  0  0  0  0  0  0  0
    0.0735    0.4128    3.8885 C   0  0  0  0  0  0  0  0  0  0  0  0
    1.0159    0.9483    4.0105 H   0  0  0  0  0  0  0  0  0  0  0  0
   -0.7315    0.9748    4.3613 H   0  0  0  0  0  0  0  0  0  0  0  0
    0.1564   -0.5677    4.3577 H   0  0  0  0  0  0  0  0  0  0  0  0
  5  6  2  0  0  0  0
  5  7  1  0  0  0  0
  2  3  1  0  0  0  0
  2  4  1  0  0  0  0
  2  5  1  0  0  0  0
  1  2  1  0  0  0  0
 17 18  2  0  0  0  0
 17 19  1  0  0  0  0
 14 15  1  0  0  0  0
 14 16  2  0  0  0  0
 11 12  1  0  0  0  0
 11 13  1  0  0  0  0
 11 14  1  0  0  0  0
  9 10  1  0  0  0  0
  9 11  1  0  0  0  0
  9 17  1  0  0  0  0
  7  8  1  0  0  0  0
  7  9  1  0  0  0  0
 21 22  1  0  0  0  0
 21 23  1  0  0  0  0
 21 24  1  0  0  0  0
 19 20  1  0  0  0  0
 19 21  1  0  0  0  0
M  CHG  1  15  -1
M  END
$$$$
default_name
  -OEChem-02102213163D

 24 23  0     1  0  0  0  0  0999 V2000
   -2.8347   -3.7166    0.8034 H   0  0  0  0  0  0  0  0  0  0  0  0
   -2.7728   -2.7096    0.3954 C   0  0  0  0  0  0  0  0  0  0  0  0
   -3.4267   -2.0426    0.9524 H   0  0  0  0  0  0  0  0  0  0  0  0
   -3.0538   -2.7186   -0.6556 H   0  0  0  0  0  0  0  0  0  0  0  0
   -1.3498   -2.2206    0.5184 C   0  0  0  0  0  0  0  0  0  0  0  0
   -0.4997   -2.9426    1.0194 O   0  0  0  0  0  0  0  0  0  0  0  0
   -1.1198   -0.9926    0.0674 N   0  0  0  0  0  0  0  0  0  0  0  0
   -1.8978   -0.4486   -0.2716 H   0  0  0  0  0  0  0  0  0  0  0  0
    0.1693   -0.2866    0.0854 C   0  0  1  0  0  0  0  0  0  0  0  0
    0.9043   -0.8713   -0.4705 H   0  0  0  0  0  0  0  0  0  0  0  0
    0.0106    1.0816   -0.6124 C   0  0  0  0  0  0  0  0  0  0  0  0
    1.0025    1.4759   -0.8401 H   0  0  0  0  0  0  0  0  0  0  0  0
   -0.5148    0.9352   -1.5587 H   0  0  0  0  0  0  0  0  0  0  0  0
   -0.7303    2.1398    0.2200 C   0  0  0  0  0  0  0  0  0  0  0  0
   -0.0614    2.8835    0.9758 O   0  5  0  0  0  0  0  0  0  0  0  0
   -1.9741    2.1828    0.1056 O   0  0  0  0  0  0  0  0  0  0  0  0
    0.6664   -0.1450    1.5428 C   0  0  0  0  0  0  0  0  0  0  0  0
    1.8485   -0.3724    1.8265 O   0  0  0  0  0  0  0  0  0  0  0  0
   -0.2161    0.2434    2.4686 N   0  0  0  0  0  0  0  0  0  0  0  0
   -1.1850    0.3219    2.1537 H   0  0  0  0  0  0  0  0  0  0  0  0
    0.0735    0.4128    3.8885 C   0  0  0  0  0  0  0  0  0  0  0  0
    1.0159    0.9483    4.0105 H   0  0  0  0  0  0  0  0  0  0  0  0
   -0.7315    0.9748    4.3613 H   0  0  0  0  0  0  0  0  0  0  0  0
    0.1564   -0.5677    4.3577 H   0  0  0  0  0  0  0  0  0  0  0  0
  5  6  2  0  0  0  0
  5  7  1  0  0  0  0
  2  3  1  0  0  0  0
  2  4  1  0  0  0  0
  2  5  1  0  0  0  0
  1  2  1  0  0  0  0
 17 18  2  0  0  0  0
 17 19  1  0  0  0  0
 14 15  1  0  0  0  0
 14 16  2  0  0  0  0
 11 12  1  0  0  0  0
 11 13  1  0  0  0  0
 11 14  1  0  0  0  0
  9 10  1  0  0  0  0
  9 11  1  0  0  0  0
  9 17  1  0  0  0  0
  7  8  1  0  0  0  0
  7  9  1  0  0  0  0
 21 22  1  0  0  0  0
 21 23  1  0  0  0  0
 21 24  1  0  0  0  0
 19 20  1  0  0  0  0
 19 21  1  0  0  0  0
M  CHG  1  15  -1
M  END
$$$$
default_name
  -OEChem-02102213163D

 24 23  0     1  0  0  0  0  0999 V2000
   -2.8347   -3.7166    0.8034 H   0  0  0  0  0  0  0  0  0  0  0  0
   -2.7728   -2.7096    0.3954 C   0  0  0  0  0  0  0  0  0  0  0  0
   -3.4267   -2.0426    0.9524 H   0  0  0  0  0  0  0  0  0  0  0  0
   -3.0538   -2.7186   -0.6556 H   0  0  0  0  0  0  0  0  0  0  0  0
   -1.3498   -2.2206    0.5184 C   0  0  0  0  0  0  0  0  0  0  0  0
   -0.4997   -2.9426    1.0194 O   0  0  0  0  0  0  0  0  0  0  0  0
   -1.1198   -0.9926    0.0674 N   0  0  0  0  0  0  0  0  0  0  0  0
   -1.8978   -0.4486   -0.2716 H   0  0  0  0  0  0  0  0  0  0  0  0
    0.1693   -0.2866    0.0854 C   0  0  1  0  0  0  0  0  0  0  0  0
    0.9043   -0.8713   -0.4705 H   0  0  0  0  0  0  0  0  0  0  0  0
    0.0106    1.0816   -0.6124 C   0  0  0  0  0  0  0  0  0  0  0  0
    1.0025    1.4759   -0.8401 H   0  0  0  0  0  0  0  0  0  0  0  0
   -0.5148    0.9352   -1.5587 H   0  0  0  0  0  0  0  0  0  0  0  0
   -0.7303    2.1398    0.2200 C   0  0  0  0  0  0  0  0  0  0  0  0
   -0.0636    3.0603    0.7491 O   0  5  0  0  0  0  0  0  0  0  0  0
   -1.9675    2.0060    0.3363 O   0  0  0  0  0  0  0  0  0  0  0  0
    0.6664   -0.1450    1.5428 C   0  0  0  0  0  0  0  0  0  0  0  0
    1.8485   -0.3724    1.8265 O   0  0  0  0  0  0  0  0  0  0  0  0
   -0.2161    0.2434    2.4686 N   0  0  0  0  0  0  0  0  0  0  0  0
   -1.1850    0.3219    2.1537 H   0  0  0  0  0  0  0  0  0  0  0  0
    0.0735    0.4128    3.8885 C   0  0  0  0  0  0  0  0  0  0  0  0
    1.0159    0.9483    4.0105 H   0  0  0  0  0  0  0  0  0  0  0  0
   -0.7315    0.9748    4.3613 H   0  0  0  0  0  0  0  0  0  0  0  0
    0.1564   -0.5677    4.3577 H   0  0  0  0  0  0  0  0  0  0  0  0
  5  6  2  0  0  0  0
  5  7  1  0  0  0  0
  2  3  1  0  0  0  0
  2  4  1  0  0  0  0
  2  5  1  0  0  0  0
  1  2  1  0  0  0  0
 17 18  2  0  0  0  0
 17 19  1  0  0  0  0
 14 15  1  0  0  0  0
 14 16  2  0  0  0  0
 11 12  1  0  0  0  0
 11 13  1  0  0  0  0
 11 14  1  0  0  0  0
  9 10  1  0  0  0  0
  9 11  1  0  0  0  0
  9 17  1  0  0  0  0
  7  8  1  0  0  0  0
  7  9  1  0  0  0  0
 21 22  1  0  0  0  0
 21 23  1  0  0  0  0
 21 24  1  0  0  0  0
 19 20  1  0  0  0  0
 19 21  1  0  0  0  0
M  CHG  1  15  -1
M  END
$$$$
default_name
  -OEChem-02102213163D

 24 23  0     1  0  0  0  0  0999 V2000
   -2.8347   -3.7166    0.8034 H   0  0  0  0  0  0  0  0  0  0  0  0
   -2.7728   -2.7096    0.3954 C   0  0  0  0  0  0  0  0  0  0  0  0
   -3.4267   -2.0426    0.9524 H   0  0  0  0  0  0  0  0  0  0  0  0
   -3.0538   -2.7186   -0.6556 H   0  0  0  0  0  0  0  0  0  0  0  0
   -1.3498   -2.2206    0.5184 C   0  0  0  0  0  0  0  0  0  0  0  0
   -0.4997   -2.9426    1.0194 O   0  0  0  0  0  0  0  0  0  0  0  0
   -1.1198   -0.9926    0.0674 N   0  0  0  0  0  0  0  0  0  0  0  0
   -1.8978   -0.4486   -0.2716 H   0  0  0  0  0  0  0  0  0  0  0  0
    0.1693   -0.2866    0.0854 C   0  0  1  0  0  0  0  0  0  0  0  0
    0.9043   -0.8713   -0.4705 H   0  0  0  0  0  0  0  0  0  0  0  0
    0.0106    1.0816   -0.6124 C   0  0  0  0  0  0  0  0  0  0  0  0
    1.0025    1.4759   -0.8401 H   0  0  0  0  0  0  0  0  0  0  0  0
   -0.5148    0.9352   -1.5587 H   0  0  0  0  0  0  0  0  0  0  0  0
   -0.7303    2.1398    0.2200 C   0  0  0  0  0  0  0  0  0  0  0  0
   -0.1309    3.2024    0.5085 O   0  5  0  0  0  0  0  0  0  0  0  0
   -1.8951    1.8650    0.5801 O   0  0  0  0  0  0  0  0  0  0  0  0
    0.6664   -0.1450    1.5428 C   0  0  0  0  0  0  0  0  0  0  0  0
    1.8485   -0.3724    1.8265 O   0  0  0  0  0  0  0  0  0  0  0  0
   -0.2161    0.2434    2.4686 N   0  0  0  0  0  0  0  0  0  0  0  0
   -1.1850    0.3219    2.1537 H   0  0  0  0  0  0  0  0  0  0  0  0
    0.0735    0.4128    3.8885 C   0  0  0  0  0  0  0  0  0  0  0  0
    1.0159    0.9483    4.0105 H   0  0  0  0  0  0  0  0  0  0  0  0
   -0.7315    0.9748    4.3613 H   0  0  0  0  0  0  0  0  0  0  0  0
    0.1564   -0.5677    4.3577 H   0  0  0  0  0  0  0  0  0  0  0  0
  5  6  2  0  0  0  0
  5  7  1  0  0  0  0
  2  3  1  0  0  0  0
  2  4  1  0  0  0  0
  2  5  1  0  0  0  0
  1  2  1  0  0  0  0
 17 18  2  0  0  0  0
 17 19  1  0  0  0  0
 14 15  1  0  0  0  0
 14 16  2  0  0  0  0
 11 12  1  0  0  0  0
 11 13  1  0  0  0  0
 11 14  1  0  0  0  0
  9 10  1  0  0  0  0
  9 11  1  0  0  0  0
  9 17  1  0  0  0  0
  7  8  1  0  0  0  0
  7  9  1  0  0  0  0
 21 22  1  0  0  0  0
 21 23  1  0  0  0  0
 21 24  1  0  0  0  0
 19 20  1  0  0  0  0
 19 21  1  0  0  0  0
M  CHG  1  15  -1
M  END
$$$$
default_name
  -OEChem-02102213163D

 24 23  0     1  0  0  0  0  0999 V2000
   -2.8347   -3.7166    0.8034 H   0  0  0  0  0  0  0  0  0  0  0  0
   -2.7728   -2.7096    0.3954 C   0  0  0  0  0  0  0  0  0  0  0  0
   -3.4267   -2.0426    0.9524 H   0  0  0  0  0  0  0  0  0  0  0  0
   -3.0538   -2.7186   -0.6556 H   0  0  0  0  0  0  0  0  0  0  0  0
   -1.3498   -2.2206    0.5184 C   0  0  0  0  0  0  0  0  0  0  0  0
   -0.4997   -2.9426    1.0194 O   0  0  0  0  0  0  0  0  0  0  0  0
   -1.1198   -0.9926    0.0674 N   0  0  0  0  0  0  0  0  0  0  0  0
   -1.8978   -0.4486   -0.2716 H   0  0  0  0  0  0  0  0  0  0  0  0
    0.1693   -0.2866    0.0854 C   0  0  1  0  0  0  0  0  0  0  0  0
    0.9043   -0.8713   -0.4705 H   0  0  0  0  0  0  0  0  0  0  0  0
    0.0106    1.0816   -0.6124 C   0  0  0  0  0  0  0  0  0  0  0  0
    1.0025    1.4759   -0.8401 H   0  0  0  0  0  0  0  0  0  0  0  0
   -0.5148    0.9352   -1.5587 H   0  0  0  0  0  0  0  0  0  0  0  0
   -0.7303    2.1398    0.2200 C   0  0  0  0  0  0  0  0  0  0  0  0
   -0.2587    3.3003    0.2703 O   0  5  0  0  0  0  0  0  0  0  0  0
   -1.7620    1.7693    0.8202 O   0  0  0  0  0  0  0  0  0  0  0  0
    0.6664   -0.1450    1.5428 C   0  0  0  0  0  0  0  0  0  0  0  0
    1.8485   -0.3724    1.8265 O   0  0  0  0  0  0  0  0  0  0  0  0
   -0.2161    0.2434    2.4686 N   0  0  0  0  0  0  0  0  0  0  0  0
   -1.1850    0.3219    2.1537 H   0  0  0  0  0  0  0  0  0  0  0  0
    0.0735    0.4128    3.8885 C   0  0  0  0  0  0  0  0  0  0  0  0
    1.0159    0.9483    4.0105 H   0  0  0  0  0  0  0  0  0  0  0  0
   -0.7315    0.9748    4.3613 H   0  0  0  0  0  0  0  0  0  0  0  0
    0.1564   -0.5677    4.3577 H   0  0  0  0  0  0  0  0  0  0  0  0
  5  6  2  0  0  0  0
  5  7  1  0  0  0  0
  2  3  1  0  0  0  0
  2  4  1  0  0  0  0
  2  5  1  0  0  0  0
  1  2  1  0  0  0  0
 17 18  2  0  0  0  0
 17 19  1  0  0  0  0
 14 15  1  0  0  0  0
 14 16  2  0  0  0  0
 11 12  1  0  0  0  0
 11 13  1  0  0  0  0
 11 14  1  0  0  0  0
  9 10  1  0  0  0  0
  9 11  1  0  0  0  0
  9 17  1  0  0  0  0
  7  8  1  0  0  0  0
  7  9  1  0  0  0  0
 21 22  1  0  0  0  0
 21 23  1  0  0  0  0
 21 24  1  0  0  0  0
 19 20  1  0  0  0  0
 19 21  1  0  0  0  0
M  CHG  1  15  -1
M  END
$$$$
default_name
  -OEChem-02102213163D

 24 23  0     1  0  0  0  0  0999 V2000
   -2.8347   -3.7166    0.8034 H   0  0  0  0  0  0  0  0  0  0  0  0
   -2.7728   -2.7096    0.3954 C   0  0  0  0  0  0  0  0  0  0  0  0
   -3.4267   -2.0426    0.9524 H   0  0  0  0  0  0  0  0  0  0  0  0
   -3.0538   -2.7186   -0.6556 H   0  0  0  0  0  0  0  0  0  0  0  0
   -1.3498   -2.2206    0.5184 C   0  0  0  0  0  0  0  0  0  0  0  0
   -0.4997   -2.9426    1.0194 O   0  0  0  0  0  0  0  0  0  0  0  0
   -1.1198   -0.9926    0.0674 N   0  0  0  0  0  0  0  0  0  0  0  0
   -1.8978   -0.4486   -0.2716 H   0  0  0  0  0  0  0  0  0  0  0  0
    0.1693   -0.2866    0.0854 C   0  0  1  0  0  0  0  0  0  0  0  0
    0.9043   -0.8713   -0.4705 H   0  0  0  0  0  0  0  0  0  0  0  0
    0.0106    1.0816   -0.6124 C   0  0  0  0  0  0  0  0  0  0  0  0
    1.0025    1.4759   -0.8401 H   0  0  0  0  0  0  0  0  0  0  0  0
   -0.5148    0.9352   -1.5587 H   0  0  0  0  0  0  0  0  0  0  0  0
   -0.7303    2.1398    0.2200 C   0  0  0  0  0  0  0  0  0  0  0  0
   -0.4383    3.3472    0.0508 O   0  5  0  0  0  0  0  0  0  0  0  0
   -1.5773    1.7254    1.0403 O   0  0  0  0  0  0  0  0  0  0  0  0
    0.6664   -0.1450    1.5428 C   0  0  0  0  0  0  0  0  0  0  0  0
    1.8485   -0.3724    1.8265 O   0  0  0  0  0  0  0  0  0  0  0  0
   -0.2161    0.2434    2.4686 N   0  0  0  0  0  0  0  0  0  0  0  0
   -1.1850    0.3219    2.1537 H   0  0  0  0  0  0  0  0  0  0  0  0
    0.0735    0.4128    3.8885 C   0  0  0  0  0  0  0  0  0  0  0  0
    1.0159    0.9483    4.0105 H   0  0  0  0  0  0  0  0  0  0  0  0
   -0.7315    0.9748    4.3613 H   0  0  0  0  0  0  0  0  0  0  0  0
    0.1564   -0.5677    4.3577 H   0  0  0  0  0  0  0  0  0  0  0  0
  5  6  2  0  0  0  0
  5  7  1  0  0  0  0
  2  3  1  0  0  0  0
  2  4  1  0  0  0  0
  2  5  1  0  0  0  0
  1  2  1  0  0  0  0
 17 18  2  0  0  0  0
 17 19  1  0  0  0  0
 14 15  1  0  0  0  0
 14 16  2  0  0  0  0
 11 12  1  0  0  0  0
 11 13  1  0  0  0  0
 11 14  1  0  0  0  0
  9 10  1  0  0  0  0
  9 11  1  0  0  0  0
  9 17  1  0  0  0  0
  7  8  1  0  0  0  0
  7  9  1  0  0  0  0
 21 22  1  0  0  0  0
 21 23  1  0  0  0  0
 21 24  1  0  0  0  0
 19 20  1  0  0  0  0
 19 21  1  0  0  0  0
M  CHG  1  15  -1
M  END
$$$$
default_name
  -OEChem-02102213163D

 24 23  0     1  0  0  0  0  0999 V2000
   -2.8347   -3.7166    0.8034 H   0  0  0  0  0  0  0  0  0  0  0  0
   -2.7728   -2.7096    0.3954 C   0  0  0  0  0  0  0  0  0  0  0  0
   -3.4267   -2.0426    0.9524 H   0  0  0  0  0  0  0  0  0  0  0  0
   -3.0538   -2.7186   -0.6556 H   0  0  0  0  0  0  0  0  0  0  0  0
   -1.3498   -2.2206    0.5184 C   0  0  0  0  0  0  0  0  0  0  0  0
   -0.4997   -2.9426    1.0194 O   0  0  0  0  0  0  0  0  0  0  0  0
   -1.1198   -0.9926    0.0674 N   0  0  0  0  0  0  0  0  0  0  0  0
   -1.8978   -0.4486   -0.2716 H   0  0  0  0  0  0  0  0  0  0  0  0
    0.1693   -0.2866    0.0854 C   0  0  1  0  0  0  0  0  0  0  0  0
    0.9043   -0.8713   -0.4705 H   0  0  0  0  0  0  0  0  0  0  0  0
    0.0106    1.0816   -0.6124 C   0  0  0  0  0  0  0  0  0  0  0  0
    1.0025    1.4759   -0.8401 H   0  0  0  0  0  0  0  0  0  0  0  0
   -0.5148    0.9352   -1.5587 H   0  0  0  0  0  0  0  0  0  0  0  0
   -0.7303    2.1398    0.2200 C   0  0  0  0  0  0  0  0  0  0  0  0
   -0.6575    3.3400   -0.1351 O   0  5  0  0  0  0  0  0  0  0  0  0
   -1.3534    1.7365    1.2255 O   0  0  0  0  0  0  0  0  0  0  0  0
    0.6664   -0.1450    1.5428 C   0  0  0  0  0  0  0  0  0  0  0  0
    1.8485   -0.3724    1.8265 O   0  0  0  0  0  0  0  0  0  0  0  0
   -0.2161    0.2434    2.4686 N   0  0  0  0  0  0  0  0  0  0  0  0
   -1.1850    0.3219    2.1537 H   0  0  0  0  0  0  0  0  0  0  0  0
    0.0735    0.4128    3.8885 C   0  0  0  0  0  0  0  0  0  0  0  0
    1.0159    0.9483    4.0105 H   0  0  0  0  0  0  0  0  0  0  0  0
   -0.7315    0.9748    4.3613 H   0  0  0  0  0  0  0  0  0  0  0  0
    0.1564   -0.5677    4.3577 H   0  0  0  0  0  0  0  0  0  0  0  0
  5  6  2  0  0  0  0
  5  7  1  0  0  0  0
  2  3  1  0  0  0  0
  2  4  1  0  0  0  0
  2  5  1  0  0  0  0
  1  2  1  0  0  0  0
 17 18  2  0  0  0  0
 17 19  1  0  0  0  0
 14 15  1  0  0  0  0
 14 16  2  0  0  0  0
 11 12  1  0  0  0  0
 11 13  1  0  0  0  0
 11 14  1  0  0  0  0
  9 10  1  0  0  0  0
  9 11  1  0  0  0  0
  9 17  1  0  0  0  0
  7  8  1  0  0  0  0
  7  9  1  0  0  0  0
 21 22  1  0  0  0  0
 21 23  1  0  0  0  0
 21 24  1  0  0  0  0
 19 20  1  0  0  0  0
 19 21  1  0  0  0  0
M  CHG  1  15  -1
M  END
$$$$
default_name
  -OEChem-02102213163D

 24 23  0     1  0  0  0  0  0999 V2000
   -2.8347   -3.7166    0.8034 H   0  0  0  0  0  0  0  0  0  0  0  0
   -2.7728   -2.7096    0.3954 C   0  0  0  0  0  0  0  0  0  0  0  0
   -3.4267   -2.0426    0.9524 H   0  0  0  0  0  0  0  0  0  0  0  0
   -3.0538   -2.7186   -0.6556 H   0  0  0  0  0  0  0  0  0  0  0  0
   -1.3498   -2.2206    0.5184 C   0  0  0  0  0  0  0  0  0  0  0  0
   -0.4997   -2.9426    1.0194 O   0  0  0  0  0  0  0  0  0  0  0  0
   -1.1198   -0.9926    0.0674 N   0  0  0  0  0  0  0  0  0  0  0  0
   -1.8978   -0.4486   -0.2716 H   0  0  0  0  0  0  0  0  0  0  0  0
    0.1693   -0.2866    0.0854 C   0  0  1  0  0  0  0  0  0  0  0  0
    0.9043   -0.8713   -0.4705 H   0  0  0  0  0  0  0  0  0  0  0  0
    0.0106    1.0816   -0.6124 C   0  0  0  0  0  0  0  0  0  0  0  0
    0.9614    1.3510   -1.0757 H   0  0  0  0  0  0  0  0  0  0  0  0
   -0.7323    0.9871   -1.4075 H   0  0  0  0  0  0  0  0  0  0  0  0
   -0.3926    2.2318    0.3235 C   0  0  0  0  0  0  0  0  0  0  0  0
   -0.5424    3.3768   -0.1645 O   0  5  0  0  0  0  0  0  0  0  0  0
   -0.5299    1.9560    1.5348 O   0  0  0  0  0  0  0  0  0  0  0  0
    0.6664   -0.1450    1.5428 C   0  0  0  0  0  0  0  0  0  0  0  0
    1.8485   -0.3724    1.8265 O   0  0  0  0  0  0  0  0  0  0  0  0
   -0.2161    0.2434    2.4686 N   0  0  0  0  0  0  0  0  0  0  0  0
   -1.1850    0.3219    2.1537 H   0  0  0  0  0  0  0  0  0  0  0  0
    0.0735    0.4128    3.8885 C   0  0  0  0  0  0  0  0  0  0  0  0
    1.0159    0.9483    4.0105 H   0  0  0  0  0  0  0  0  0  0  0  0
   -0.7315    0.9748    4.3613 H   0  0  0  0  0  0  0  0  0  0  0  0
    0.1564   -0.5677    4.3577 H   0  0  0  0  0  0  0  0  0  0  0  0
  5  6  2  0  0  0  0
  5  7  1  0  0  0  0
  2  3  1  0  0  0  0
  2  4  1  0  0  0  0
  2  5  1  0  0  0  0
  1  2  1  0  0  0  0
 17 18  2  0  0  0  0
 17 19  1  0  0  0  0
 14 15  1  0  0  0  0
 14 16  2  0  0  0  0
 11 12  1  0  0  0  0
 11 13  1  0  0  0  0
 11 14  1  0  0  0  0
  9 10  1  0  0  0  0
  9 11  1  0  0  0  0
  9 17  1  0  0  0  0
  7  8  1  0  0  0  0
  7  9  1  0  0  0  0
 21 22  1  0  0  0  0
 21 23  1  0  0  0  0
 21 24  1  0  0  0  0
 19 20  1  0  0  0  0
 19 21  1  0  0  0  0
M  CHG  1  15  -1
M  END
$$$$
default_name
  -OEChem-02102213163D

 24 23  0     1  0  0  0  0  0999 V2000
   -2.8347   -3.7166    0.8034 H   0  0  0  0  0  0  0  0  0  0  0  0
   -2.7728   -2.7096    0.3954 C   0  0  0  0  0  0  0  0  0  0  0  0
   -3.4267   -2.0426    0.9524 H   0  0  0  0  0  0  0  0  0  0  0  0
   -3.0538   -2.7186   -0.6556 H   0  0  0  0  0  0  0  0  0  0  0  0
   -1.3498   -2.2206    0.5184 C   0  0  0  0  0  0  0  0  0  0  0  0
   -0.4997   -2.9426    1.0194 O   0  0  0  0  0  0  0  0  0  0  0  0
   -1.1198   -0.9926    0.0674 N   0  0  0  0  0  0  0  0  0  0  0  0
   -1.8978   -0.4486   -0.2716 H   0  0  0  0  0  0  0  0  0  0  0  0
    0.1693   -0.2866    0.0854 C   0  0  1  0  0  0  0  0  0  0  0  0
    0.9043   -0.8713   -0.4705 H   0  0  0  0  0  0  0  0  0  0  0  0
    0.0106    1.0816   -0.6124 C   0  0  0  0  0  0  0  0  0  0  0  0
    0.9614    1.3510   -1.0757 H   0  0  0  0  0  0  0  0  0  0  0  0
   -0.7323    0.9871   -1.4075 H   0  0  0  0  0  0  0  0  0  0  0  0
   -0.3926    2.2318    0.3235 C   0  0  0  0  0  0  0  0  0  0  0  0
   -0.8177    3.2963   -0.1842 O   0  5  0  0  0  0  0  0  0  0  0  0
   -0.2522    2.0405    1.5506 O   0  0  0  0  0  0  0  0  0  0  0  0
    0.6664   -0.1450    1.5428 C   0  0  0  0  0  0  0  0  0  0  0  0
    1.8485   -0.3724    1.8265 O   0  0  0  0  0  0  0  0  0  0  0  0
   -0.2161    0.2434    2.4686 N   0  0  0  0  0  0  0  0  0  0  0  0
   -1.1850    0.3219    2.1537 H   0  0  0  0  0  0  0  0  0  0  0  0
    0.0735    0.4128    3.8885 C   0  0  0  0  0  0  0  0  0  0  0  0
    1.0159    0.9483    4.0105 H   0  0  0  0  0  0  0  0  0  0  0  0
   -0.7315    0.9748    4.3613 H   0  0  0  0  0  0  0  0  0  0  0  0
    0.1564   -0.5677    4.3577 H   0  0  0  0  0  0  0  0  0  0  0  0
  5  6  2  0  0  0  0
  5  7  1  0  0  0  0
  2  3  1  0  0  0  0
  2  4  1  0  0  0  0
  2  5  1  0  0  0  0
  1  2  1  0  0  0  0
 17 18  2  0  0  0  0
 17 19  1  0  0  0  0
 14 15  1  0  0  0  0
 14 16  2  0  0  0  0
 11 12  1  0  0  0  0
 11 13  1  0  0  0  0
 11 14  1  0  0  0  0
  9 10  1  0  0  0  0
  9 11  1  0  0  0  0
  9 17  1  0  0  0  0
  7  8  1  0  0  0  0
  7  9  1  0  0  0  0
 21 22  1  0  0  0  0
 21 23  1  0  0  0  0
 21 24  1  0  0  0  0
 19 20  1  0  0  0  0
 19 21  1  0  0  0  0
M  CHG  1  15  -1
M  END
$$$$
default_name
  -OEChem-02102213163D

 24 23  0     1  0  0  0  0  0999 V2000
   -2.8347   -3.7166    0.8034 H   0  0  0  0  0  0  0  0  0  0  0  0
   -2.7728   -2.7096    0.3954 C   0  0  0  0  0  0  0  0  0  0  0  0
   -3.4267   -2.0426    0.9524 H   0  0  0  0  0  0  0  0  0  0  0  0
   -3.0538   -2.7186   -0.6556 H   0  0  0  0  0  0  0  0  0  0  0  0
   -1.3498   -2.2206    0.5184 C   0  0  0  0  0  0  0  0  0  0  0  0
   -0.4997   -2.9426    1.0194 O   0  0  0  0  0  0  0  0  0  0  0  0
   -1.1198   -0.9926    0.0674 N   0  0  0  0  0  0  0  0  0  0  0  0
   -1.8978   -0.4486   -0.2716 H   0  0  0  0  0  0  0  0  0  0  0  0
    0.1693   -0.2866    0.0854 C   0  0  1  0  0  0  0  0  0  0  0  0
    0.9043   -0.8713   -0.4705 H   0  0  0  0  0  0  0  0  0  0  0  0
    0.0106    1.0816   -0.6124 C   0  0  0  0  0  0  0  0  0  0  0  0
    0.9614    1.3510   -1.0757 H   0  0  0  0  0  0  0  0  0  0  0  0
   -0.7323    0.9871   -1.4075 H   0  0  0  0  0  0  0  0  0  0  0  0
   -0.3926    2.2318    0.3235 C   0  0  0  0  0  0  0  0  0  0  0  0
   -1.0747    3.1739   -0.1444 O   0  5  0  0  0  0  0  0  0  0  0  0
    0.0059    2.1669    1.5064 O   0  0  0  0  0  0  0  0  0  0  0  0
    0.6664   -0.1450    1.5428 C   0  0  0  0  0  0  0  0  0  0  0  0
    1.8485   -0.3724    1.8265 O   0  0  0  0  0  0  0  0  0  0  0  0
   -0.2161    0.2434    2.4686 N   0  0  0  0  0  0  0  0  0  0  0  0
   -1.1850    0.3219    2.1537 H   0  0  0  0  0  0  0  0  0  0  0  0
    0.0735    0.4128    3.8885 C   0  0  0  0  0  0  0  0  0  0  0  0
    1.0159    0.9483    4.0105 H   0  0  0  0  0  0  0  0  0  0  0  0
   -0.7315    0.9748    4.3613 H   0  0  0  0  0  0  0  0  0  0  0  0
    0.1564   -0.5677    4.3577 H   0  0  0  0  0  0  0  0  0  0  0  0
  5  6  2  0  0  0  0
  5  7  1  0  0  0  0
  2  3  1  0  0  0  0
  2  4  1  0  0  0  0
  2  5  1  0  0  0  0
  1  2  1  0  0  0  0
 17 18  2  0  0  0  0
 17 19  1  0  0  0  0
 14 15  1  0  0  0  0
 14 16  2  0  0  0  0
 11 12  1  0  0  0  0
 11 13  1  0  0  0  0
 11 14  1  0  0  0  0
  9 10  1  0  0  0  0
  9 11  1  0  0  0  0
  9 17  1  0  0  0  0
  7  8  1  0  0  0  0
  7  9  1  0  0  0  0
 21 22  1  0  0  0  0
 21 23  1  0  0  0  0
 21 24  1  0  0  0  0
 19 20  1  0  0  0  0
 19 21  1  0  0  0  0
M  CHG  1  15  -1
M  END
$$$$
default_name
  -OEChem-02102213163D

 24 23  0     1  0  0  0  0  0999 V2000
   -2.8347   -3.7166    0.8034 H   0  0  0  0  0  0  0  0  0  0  0  0
   -2.7728   -2.7096    0.3954 C   0  0  0  0  0  0  0  0  0  0  0  0
   -3.4267   -2.0426    0.9524 H   0  0  0  0  0  0  0  0  0  0  0  0
   -3.0538   -2.7186   -0.6556 H   0  0  0  0  0  0  0  0  0  0  0  0
   -1.3498   -2.2206    0.5184 C   0  0  0  0  0  0  0  0  0  0  0  0
   -0.4997   -2.9426    1.0194 O   0  0  0  0  0  0  0  0  0  0  0  0
   -1.1198   -0.9926    0.0674 N   0  0  0  0  0  0  0  0  0  0  0  0
   -1.8978   -0.4486   -0.2716 H   0  0  0  0  0  0  0  0  0  0  0  0
    0.1693   -0.2866    0.0854 C   0  0  1  0  0  0  0  0  0  0  0  0
    0.9043   -0.8713   -0.4705 H   0  0  0  0  0  0  0  0  0  0  0  0
    0.0106    1.0816   -0.6124 C   0  0  0  0  0  0  0  0  0  0  0  0
    0.9614    1.3510   -1.0757 H   0  0  0  0  0  0  0  0  0  0  0  0
   -0.7323    0.9871   -1.4075 H   0  0  0  0  0  0  0  0  0  0  0  0
   -0.3926    2.2318    0.3235 C   0  0  0  0  0  0  0  0  0  0  0  0
   -1.2959    3.0178   -0.0478 O   0  5  0  0  0  0  0  0  0  0  0  0
    0.2266    2.3267    1.4051 O   0  0  0  0  0  0  0  0  0  0  0  0
    0.6664   -0.1450    1.5428 C   0  0  0  0  0  0  0  0  0  0  0  0
    1.8485   -0.3724    1.8265 O   0  0  0  0  0  0  0  0  0  0  0  0
   -0.2161    0.2434    2.4686 N   0  0  0  0  0  0  0  0  0  0  0  0
   -1.1850    0.3219    2.1537 H   0  0  0  0  0  0  0  0  0  0  0  0
    0.0735    0.4128    3.8885 C   0  0  0  0  0  0  0  0  0  0  0  0
    1.0159    0.9483    4.0105 H   0  0  0  0  0  0  0  0  0  0  0  0
   -0.7315    0.9748    4.3613 H   0  0  0  0  0  0  0  0  0  0  0  0
    0.1564   -0.5677    4.3577 H   0  0  0  0  0  0  0  0  0  0  0  0
  5  6  2  0  0  0  0
  5  7  1  0  0  0  0
  2  3  1  0  0  0  0
  2  4  1  0  0  0  0
  2  5  1  0  0  0  0
  1  2  1  0  0  0  0
 17 18  2  0  0  0  0
 17 19  1  0  0  0  0
 14 15  1  0  0  0  0
 14 16  2  0  0  0  0
 11 12  1  0  0  0  0
 11 13  1  0  0  0  0
 11 14  1  0  0  0  0
  9 10  1  0  0  0  0
  9 11  1  0  0  0  0
  9 17  1  0  0  0  0
  7  8  1  0  0  0  0
  7  9  1  0  0  0  0
 21 22  1  0  0  0  0
 21 23  1  0  0  0  0
 21 24  1  0  0  0  0
 19 20  1  0  0  0  0
 19 21  1  0  0  0  0
M  CHG  1  15  -1
M  END
$$$$
default_name
  -OEChem-02102213163D

 24 23  0     1  0  0  0  0  0999 V2000
   -2.8347   -3.7166    0.8034 H   0  0  0  0  0  0  0  0  0  0  0  0
   -2.7728   -2.7096    0.3954 C   0  0  0  0  0  0  0  0  0  0  0  0
   -3.4267   -2.0426    0.9524 H   0  0  0  0  0  0  0  0  0  0  0  0
   -3.0538   -2.7186   -0.6556 H   0  0  0  0  0  0  0  0  0  0  0  0
   -1.3498   -2.2206    0.5184 C   0  0  0  0  0  0  0  0  0  0  0  0
   -0.4997   -2.9426    1.0194 O   0  0  0  0  0  0  0  0  0  0  0  0
   -1.1198   -0.9926    0.0674 N   0  0  0  0  0  0  0  0  0  0  0  0
   -1.8978   -0.4486   -0.2716 H   0  0  0  0  0  0  0  0  0  0  0  0
    0.1693   -0.2866    0.0854 C   0  0  1  0  0  0  0  0  0  0  0  0
    0.9043   -0.8713   -0.4705 H   0  0  0  0  0  0  0  0  0  0  0  0
    0.0106    1.0816   -0.6124 C   0  0  0  0  0  0  0  0  0  0  0  0
    0.9614    1.3510   -1.0757 H   0  0  0  0  0  0  0  0  0  0  0  0
   -0.7323    0.9871   -1.4075 H   0  0  0  0  0  0  0  0  0  0  0  0
   -0.3926    2.2318    0.3235 C   0  0  0  0  0  0  0  0  0  0  0  0
   -1.4663    2.8386    0.0989 O   0  5  0  0  0  0  0  0  0  0  0  0
    0.3950    2.5090    1.2536 O   0  0  0  0  0  0  0  0  0  0  0  0
    0.6664   -0.1450    1.5428 C   0  0  0  0  0  0  0  0  0  0  0  0
    1.8485   -0.3724    1.8265 O   0  0  0  0  0  0  0  0  0  0  0  0
   -0.2161    0.2434    2.4686 N   0  0  0  0  0  0  0  0  0  0  0  0
   -1.1850    0.3219    2.1537 H   0  0  0  0  0  0  0  0  0  0  0  0
    0.0735    0.4128    3.8885 C   0  0  0  0  0  0  0  0  0  0  0  0
    1.0159    0.9483    4.0105 H   0  0  0  0  0  0  0  0  0  0  0  0
   -0.7315    0.9748    4.3613 H   0  0  0  0  0  0  0  0  0  0  0  0
    0.1564   -0.5677    4.3577 H   0  0  0  0  0  0  0  0  0  0  0  0
  5  6  2  0  0  0  0
  5  7  1  0  0  0  0
  2  3  1  0  0  0  0
  2  4  1  0  0  0  0
  2  5  1  0  0  0  0
  1  2  1  0  0  0  0
 17 18  2  0  0  0  0
 17 19  1  0  0  0  0
 14 15  1  0  0  0  0
 14 16  2  0  0  0  0
 11 12  1  0  0  0  0
 11 13  1  0  0  0  0
 11 14  1  0  0  0  0
  9 10  1  0  0  0  0
  9 11  1  0  0  0  0
  9 17  1  0  0  0  0
  7  8  1  0  0  0  0
  7  9  1  0  0  0  0
 21 22  1  0  0  0  0
 21 23  1  0  0  0  0
 21 24  1  0  0  0  0
 19 20  1  0  0  0  0
 19 21  1  0  0  0  0
M  CHG  1  15  -1
M  END
$$$$
default_name
  -OEChem-02102213163D

 24 23  0     1  0  0  0  0  0999 V2000
   -2.8347   -3.7166    0.8034 H   0  0  0  0  0  0  0  0  0  0  0  0
   -2.7728   -2.7096    0.3954 C   0  0  0  0  0  0  0  0  0  0  0  0
   -3.4267   -2.0426    0.9524 H   0  0  0  0  0  0  0  0  0  0  0  0
   -3.0538   -2.7186   -0.6556 H   0  0  0  0  0  0  0  0  0  0  0  0
   -1.3498   -2.2206    0.5184 C   0  0  0  0  0  0  0  0  0  0  0  0
   -0.4997   -2.9426    1.0194 O   0  0  0  0  0  0  0  0  0  0  0  0
   -1.1198   -0.9926    0.0674 N   0  0  0  0  0  0  0  0  0  0  0  0
   -1.8978   -0.4486   -0.2716 H   0  0  0  0  0  0  0  0  0  0  0  0
    0.1693   -0.2866    0.0854 C   0  0  1  0  0  0  0  0  0  0  0  0
    0.9043   -0.8713   -0.4705 H   0  0  0  0  0  0  0  0  0  0  0  0
    0.0106    1.0816   -0.6124 C   0  0  0  0  0  0  0  0  0  0  0  0
    0.9614    1.3510   -1.0757 H   0  0  0  0  0  0  0  0  0  0  0  0
   -0.7323    0.9871   -1.4075 H   0  0  0  0  0  0  0  0  0  0  0  0
   -0.3926    2.2318    0.3235 C   0  0  0  0  0  0  0  0  0  0  0  0
   -1.5743    2.6487    0.2858 O   0  5  0  0  0  0  0  0  0  0  0  0
    0.4996    2.7013    1.0623 O   0  0  0  0  0  0  0  0  0  0  0  0
    0.6664   -0.1450    1.5428 C   0  0  0  0  0  0  0  0  0  0  0  0
    1.8485   -0.3724    1.8265 O   0  0  0  0  0  0  0  0  0  0  0  0
   -0.2161    0.2434    2.4686 N   0  0  0  0  0  0  0  0  0  0  0  0
   -1.1850    0.3219    2.1537 H   0  0  0  0  0  0  0  0  0  0  0  0
    0.0735    0.4128    3.8885 C   0  0  0  0  0  0  0  0  0  0  0  0
    1.0159    0.9483    4.0105 H   0  0  0  0  0  0  0  0  0  0  0  0
   -0.7315    0.9748    4.3613 H   0  0  0  0  0  0  0  0  0  0  0  0
    0.1564   -0.5677    4.3577 H   0  0  0  0  0  0  0  0  0  0  0  0
  5  6  2  0  0  0  0
  5  7  1  0  0  0  0
  2  3  1  0  0  0  0
  2  4  1  0  0  0  0
  2  5  1  0  0  0  0
  1  2  1  0  0  0  0
 17 18  2  0  0  0  0
 17 19  1  0  0  0  0
 14 15  1  0  0  0  0
 14 16  2  0  0  0  0
 11 12  1  0  0  0  0
 11 13  1  0  0  0  0
 11 14  1  0  0  0  0
  9 10  1  0  0  0  0
  9 11  1  0  0  0  0
  9 17  1  0  0  0  0
  7  8  1  0  0  0  0
  7  9  1  0  0  0  0
 21 22  1  0  0  0  0
 21 23  1  0  0  0  0
 21 24  1  0  0  0  0
 19 20  1  0  0  0  0
 19 21  1  0  0  0  0
M  CHG  1  15  -1
M  END
$$$$
default_name
  -OEChem-02102213163D

 24 23  0     1  0  0  0  0  0999 V2000
   -2.8347   -3.7166    0.8034 H   0  0  0  0  0  0  0  0  0  0  0  0
   -2.7728   -2.7096    0.3954 C   0  0  0  0  0  0  0  0  0  0  0  0
   -3.4267   -2.0426    0.9524 H   0  0  0  0  0  0  0  0  0  0  0  0
   -3.0538   -2.7186   -0.6556 H   0  0  0  0  0  0  0  0  0  0  0  0
   -1.3498   -2.2206    0.5184 C   0  0  0  0  0  0  0  0  0  0  0  0
   -0.4997   -2.9426    1.0194 O   0  0  0  0  0  0  0  0  0  0  0  0
   -1.1198   -0.9926    0.0674 N   0  0  0  0  0  0  0  0  0  0  0  0
   -1.8978   -0.4486   -0.2716 H   0  0  0  0  0  0  0  0  0  0  0  0
    0.1693   -0.2866    0.0854 C   0  0  1  0  0  0  0  0  0  0  0  0
    0.9043   -0.8713   -0.4705 H   0  0  0  0  0  0  0  0  0  0  0  0
    0.0106    1.0816   -0.6124 C   0  0  0  0  0  0  0  0  0  0  0  0
    0.9614    1.3510   -1.0757 H   0  0  0  0  0  0  0  0  0  0  0  0
   -0.7323    0.9871   -1.4075 H   0  0  0  0  0  0  0  0  0  0  0  0
   -0.3926    2.2318    0.3235 C   0  0  0  0  0  0  0  0  0  0  0  0
   -1.6124    2.4610    0.5001 O   0  5  0  0  0  0  0  0  0  0  0  0
    0.5332    2.8906    0.8442 O   0  0  0  0  0  0  0  0  0  0  0  0
    0.6664   -0.1450    1.5428 C   0  0  0  0  0  0  0  0  0  0  0  0
    1.8485   -0.3724    1.8265 O   0  0  0  0  0  0  0  0  0  0  0  0
   -0.2161    0.2434    2.4686 N   0  0  0  0  0  0  0  0  0  0  0  0
   -1.1850    0.3219    2.1537 H   0  0  0  0  0  0  0  0  0  0  0  0
    0.0735    0.4128    3.8885 C   0  0  0  0  0  0  0  0  0  0  0  0
    1.0159    0.9483    4.0105 H   0  0  0  0  0  0  0  0  0  0  0  0
   -0.7315    0.9748    4.3613 H   0  0  0  0  0  0  0  0  0  0  0  0
    0.1564   -0.5677    4.3577 H   0  0  0  0  0  0  0  0  0  0  0  0
  5  6  2  0  0  0  0
  5  7  1  0  0  0  0
  2  3  1  0  0  0  0
  2  4  1  0  0  0  0
  2  5  1  0  0  0  0
  1  2  1  0  0  0  0
 17 18  2  0  0  0  0
 17 19  1  0  0  0  0
 14 15  1  0  0  0  0
 14 16  2  0  0  0  0
 11 12  1  0  0  0  0
 11 13  1  0  0  0  0
 11 14  1  0  0  0  0
  9 10  1  0  0  0  0
  9 11  1  0  0  0  0
  9 17  1  0  0  0  0
  7  8  1  0  0  0  0
  7  9  1  0  0  0  0
 21 22  1  0  0  0  0
 21 23  1  0  0  0  0
 21 24  1  0  0  0  0
 19 20  1  0  0  0  0
 19 21  1  0  0  0  0
M  CHG  1  15  -1
M  END
$$$$
default_name
  -OEChem-02102213163D

 24 23  0     1  0  0  0  0  0999 V2000
   -2.8347   -3.7166    0.8034 H   0  0  0  0  0  0  0  0  0  0  0  0
   -2.7728   -2.7096    0.3954 C   0  0  0  0  0  0  0  0  0  0  0  0
   -3.4267   -2.0426    0.9524 H   0  0  0  0  0  0  0  0  0  0  0  0
   -3.0538   -2.7186   -0.6556 H   0  0  0  0  0  0  0  0  0  0  0  0
   -1.3498   -2.2206    0.5184 C   0  0  0  0  0  0  0  0  0  0  0  0
   -0.4997   -2.9426    1.0194 O   0  0  0  0  0  0  0  0  0  0  0  0
   -1.1198   -0.9926    0.0674 N   0  0  0  0  0  0  0  0  0  0  0  0
   -1.8978   -0.4486   -0.2716 H   0  0  0  0  0  0  0  0  0  0  0  0
    0.1693   -0.2866    0.0854 C   0  0  1  0  0  0  0  0  0  0  0  0
    0.9043   -0.8713   -0.4705 H   0  0  0  0  0  0  0  0  0  0  0  0
    0.0106    1.0816   -0.6124 C   0  0  0  0  0  0  0  0  0  0  0  0
    0.9614    1.3510   -1.0757 H   0  0  0  0  0  0  0  0  0  0  0  0
   -0.7323    0.9871   -1.4075 H   0  0  0  0  0  0  0  0  0  0  0  0
   -0.3926    2.2318    0.3235 C   0  0  0  0  0  0  0  0  0  0  0  0
   -1.5781    2.2881    0.7273 O   0  5  0  0  0  0  0  0  0  0  0  0
    0.4936    3.0639    0.6142 O   0  0  0  0  0  0  0  0  0  0  0  0
    0.6664   -0.1450    1.5428 C   0  0  0  0  0  0  0  0  0  0  0  0
    1.8485   -0.3724    1.8265 O   0  0  0  0  0  0  0  0  0  0  0  0
   -0.2161    0.2434    2.4686 N   0  0  0  0  0  0  0  0  0  0  0  0
   -1.1850    0.3219    2.1537 H   0  0  0  0  0  0  0  0  0  0  0  0
    0.0735    0.4128    3.8885 C   0  0  0  0  0  0  0  0  0  0  0  0
    1.0159    0.9483    4.0105 H   0  0  0  0  0  0  0  0  0  0  0  0
   -0.7315    0.9748    4.3613 H   0  0  0  0  0  0  0  0  0  0  0  0
    0.1564   -0.5677    4.3577 H   0  0  0  0  0  0  0  0  0  0  0  0
  5  6  2  0  0  0  0
  5  7  1  0  0  0  0
  2  3  1  0  0  0  0
  2  4  1  0  0  0  0
  2  5  1  0  0  0  0
  1  2  1  0  0  0  0
 17 18  2  0  0  0  0
 17 19  1  0  0  0  0
 14 15  1  0  0  0  0
 14 16  2  0  0  0  0
 11 12  1  0  0  0  0
 11 13  1  0  0  0  0
 11 14  1  0  0  0  0
  9 10  1  0  0  0  0
  9 11  1  0  0  0  0
  9 17  1  0  0  0  0
  7  8  1  0  0  0  0
  7  9  1  0  0  0  0
 21 22  1  0  0  0  0
 21 23  1  0  0  0  0
 21 24  1  0  0  0  0
 19 20  1  0  0  0  0
 19 21  1  0  0  0  0
M  CHG  1  15  -1
M  END
$$$$
default_name
  -OEChem-02102213163D

 24 23  0     1  0  0  0  0  0999 V2000
   -2.8347   -3.7166    0.8034 H   0  0  0  0  0  0  0  0  0  0  0  0
   -2.7728   -2.7096    0.3954 C   0  0  0  0  0  0  0  0  0  0  0  0
   -3.4267   -2.0426    0.9524 H   0  0  0  0  0  0  0  0  0  0  0  0
   -3.0538   -2.7186   -0.6556 H   0  0  0  0  0  0  0  0  0  0  0  0
   -1.3498   -2.2206    0.5184 C   0  0  0  0  0  0  0  0  0  0  0  0
   -0.4997   -2.9426    1.0194 O   0  0  0  0  0  0  0  0  0  0  0  0
   -1.1198   -0.9926    0.0674 N   0  0  0  0  0  0  0  0  0  0  0  0
   -1.8978   -0.4486   -0.2716 H   0  0  0  0  0  0  0  0  0  0  0  0
    0.1693   -0.2866    0.0854 C   0  0  1  0  0  0  0  0  0  0  0  0
    0.9043   -0.8713   -0.4705 H   0  0  0  0  0  0  0  0  0  0  0  0
    0.0106    1.0816   -0.6124 C   0  0  0  0  0  0  0  0  0  0  0  0
    0.9614    1.3510   -1.0757 H   0  0  0  0  0  0  0  0  0  0  0  0
   -0.7323    0.9871   -1.4075 H   0  0  0  0  0  0  0  0  0  0  0  0
   -0.3926    2.2318    0.3235 C   0  0  0  0  0  0  0  0  0  0  0  0
   -1.4737    2.1420    0.9518 O   0  5  0  0  0  0  0  0  0  0  0  0
    0.3835    3.2094    0.3879 O   0  0  0  0  0  0  0  0  0  0  0  0
    0.6664   -0.1450    1.5428 C   0  0  0  0  0  0  0  0  0  0  0  0
    1.8485   -0.3724    1.8265 O   0  0  0  0  0  0  0  0  0  0  0  0
   -0.2161    0.2434    2.4686 N   0  0  0  0  0  0  0  0  0  0  0  0
   -1.1850    0.3219    2.1537 H   0  0  0  0  0  0  0  0  0  0  0  0
    0.0735    0.4128    3.8885 C   0  0  0  0  0  0  0  0  0  0  0  0
    1.0159    0.9483    4.0105 H   0  0  0  0  0  0  0  0  0  0  0  0
   -0.7315    0.9748    4.3613 H   0  0  0  0  0  0  0  0  0  0  0  0
    0.1564   -0.5677    4.3577 H   0  0  0  0  0  0  0  0  0  0  0  0
  5  6  2  0  0  0  0
  5  7  1  0  0  0  0
  2  3  1  0  0  0  0
  2  4  1  0  0  0  0
  2  5  1  0  0  0  0
  1  2  1  0  0  0  0
 17 18  2  0  0  0  0
 17 19  1  0  0  0  0
 14 15  1  0  0  0  0
 14 16  2  0  0  0  0
 11 12  1  0  0  0  0
 11 13  1  0  0  0  0
 11 14  1  0  0  0  0
  9 10  1  0  0  0  0
  9 11  1  0  0  0  0
  9 17  1  0  0  0  0
  7  8  1  0  0  0  0
  7  9  1  0  0  0  0
 21 22  1  0  0  0  0
 21 23  1  0  0  0  0
 21 24  1  0  0  0  0
 19 20  1  0  0  0  0
 19 21  1  0  0  0  0
M  CHG  1  15  -1
M  END
$$$$
default_name
  -OEChem-02102213163D

 24 23  0     1  0  0  0  0  0999 V2000
   -2.8347   -3.7166    0.8034 H   0  0  0  0  0  0  0  0  0  0  0  0
   -2.7728   -2.7096    0.3954 C   0  0  0  0  0  0  0  0  0  0  0  0
   -3.4267   -2.0426    0.9524 H   0  0  0  0  0  0  0  0  0  0  0  0
   -3.0538   -2.7186   -0.6556 H   0  0  0  0  0  0  0  0  0  0  0  0
   -1.3498   -2.2206    0.5184 C   0  0  0  0  0  0  0  0  0  0  0  0
   -0.4997   -2.9426    1.0194 O   0  0  0  0  0  0  0  0  0  0  0  0
   -1.1198   -0.9926    0.0674 N   0  0  0  0  0  0  0  0  0  0  0  0
   -1.8978   -0.4486   -0.2716 H   0  0  0  0  0  0  0  0  0  0  0  0
    0.1693   -0.2866    0.0854 C   0  0  1  0  0  0  0  0  0  0  0  0
    0.9043   -0.8713   -0.4705 H   0  0  0  0  0  0  0  0  0  0  0  0
    0.0106    1.0816   -0.6124 C   0  0  0  0  0  0  0  0  0  0  0  0
    0.9614    1.3510   -1.0757 H   0  0  0  0  0  0  0  0  0  0  0  0
   -0.7323    0.9871   -1.4075 H   0  0  0  0  0  0  0  0  0  0  0  0
   -0.3926    2.2318    0.3235 C   0  0  0  0  0  0  0  0  0  0  0  0
   -1.3063    2.0326    1.1584 O   0  5  0  0  0  0  0  0  0  0  0  0
    0.2104    3.3173    0.1807 O   0  0  0  0  0  0  0  0  0  0  0  0
    0.6664   -0.1450    1.5428 C   0  0  0  0  0  0  0  0  0  0  0  0
    1.8485   -0.3724    1.8265 O   0  0  0  0  0  0  0  0  0  0  0  0
   -0.2161    0.2434    2.4686 N   0  0  0  0  0  0  0  0  0  0  0  0
   -1.1850    0.3219    2.1537 H   0  0  0  0  0  0  0  0  0  0  0  0
    0.0735    0.4128    3.8885 C   0  0  0  0  0  0  0  0  0  0  0  0
    1.0159    0.9483    4.0105 H   0  0  0  0  0  0  0  0  0  0  0  0
   -0.7315    0.9748    4.3613 H   0  0  0  0  0  0  0  0  0  0  0  0
    0.1564   -0.5677    4.3577 H   0  0  0  0  0  0  0  0  0  0  0  0
  5  6  2  0  0  0  0
  5  7  1  0  0  0  0
  2  3  1  0  0  0  0
  2  4  1  0  0  0  0
  2  5  1  0  0  0  0
  1  2  1  0  0  0  0
 17 18  2  0  0  0  0
 17 19  1  0  0  0  0
 14 15  1  0  0  0  0
 14 16  2  0  0  0  0
 11 12  1  0  0  0  0
 11 13  1  0  0  0  0
 11 14  1  0  0  0  0
  9 10  1  0  0  0  0
  9 11  1  0  0  0  0
  9 17  1  0  0  0  0
  7  8  1  0  0  0  0
  7  9  1  0  0  0  0
 21 22  1  0  0  0  0
 21 23  1  0  0  0  0
 21 24  1  0  0  0  0
 19 20  1  0  0  0  0
 19 21  1  0  0  0  0
M  CHG  1  15  -1
M  END
$$$$
default_name
  -OEChem-02102213163D

 24 23  0     1  0  0  0  0  0999 V2000
   -2.8347   -3.7166    0.8034 H   0  0  0  0  0  0  0  0  0  0  0  0
   -2.7728   -2.7096    0.3954 C   0  0  0  0  0  0  0  0  0  0  0  0
   -3.4267   -2.0426    0.9524 H   0  0  0  0  0  0  0  0  0  0  0  0
   -3.0538   -2.7186   -0.6556 H   0  0  0  0  0  0  0  0  0  0  0  0
   -1.3498   -2.2206    0.5184 C   0  0  0  0  0  0  0  0  0  0  0  0
   -0.4997   -2.9426    1.0194 O   0  0  0  0  0  0  0  0  0  0  0  0
   -1.1198   -0.9926    0.0674 N   0  0  0  0  0  0  0  0  0  0  0  0
   -1.8978   -0.4486   -0.2716 H   0  0  0  0  0  0  0  0  0  0  0  0
    0.1693   -0.2866    0.0854 C   0  0  1  0  0  0  0  0  0  0  0  0
    0.9043   -0.8713   -0.4705 H   0  0  0  0  0  0  0  0  0  0  0  0
    0.0106    1.0816   -0.6124 C   0  0  0  0  0  0  0  0  0  0  0  0
    0.9614    1.3510   -1.0757 H   0  0  0  0  0  0  0  0  0  0  0  0
   -0.7323    0.9871   -1.4075 H   0  0  0  0  0  0  0  0  0  0  0  0
   -0.3926    2.2318    0.3235 C   0  0  0  0  0  0  0  0  0  0  0  0
   -1.0874    1.9673    1.3329 O   0  5  0  0  0  0  0  0  0  0  0  0
   -0.0140    3.3801    0.0069 O   0  0  0  0  0  0  0  0  0  0  0  0
    0.6664   -0.1450    1.5428 C   0  0  0  0  0  0  0  0  0  0  0  0
    1.8485   -0.3724    1.8265 O   0  0  0  0  0  0  0  0  0  0  0  0
   -0.2161    0.2434    2.4686 N   0  0  0  0  0  0  0  0  0  0  0  0
   -1.1850    0.3219    2.1537 H   0  0  0  0  0  0  0  0  0  0  0  0
    0.0735    0.4128    3.8885 C   0  0  0  0  0  0  0  0  0  0  0  0
    1.0159    0.9483    4.0105 H   0  0  0  0  0  0  0  0  0  0  0  0
   -0.7315    0.9748    4.3613 H   0  0  0  0  0  0  0  0  0  0  0  0
    0.1564   -0.5677    4.3577 H   0  0  0  0  0  0  0  0  0  0  0  0
  5  6  2  0  0  0  0
  5  7  1  0  0  0  0
  2  3  1  0  0  0  0
  2  4  1  0  0  0  0
  2  5  1  0  0  0  0
  1  2  1  0  0  0  0
 17 18  2  0  0  0  0
 17 19  1  0  0  0  0
 14 15  1  0  0  0  0
 14 16  2  0  0  0  0
 11 12  1  0  0  0  0
 11 13  1  0  0  0  0
 11 14  1  0  0  0  0
  9 10  1  0  0  0  0
  9 11  1  0  0  0  0
  9 17  1  0  0  0  0
  7  8  1  0  0  0  0
  7  9  1  0  0  0  0
 21 22  1  0  0  0  0
 21 23  1  0  0  0  0
 21 24  1  0  0  0  0
 19 20  1  0  0  0  0
 19 21  1  0  0  0  0
M  CHG  1  15  -1
M  END
$$$$
default_name
  -OEChem-02102213163D

 24 23  0     1  0  0  0  0  0999 V2000
   -2.8347   -3.7166    0.8034 H   0  0  0  0  0  0  0  0  0  0  0  0
   -2.7728   -2.7096    0.3954 C   0  0  0  0  0  0  0  0  0  0  0  0
   -3.4267   -2.0426    0.9524 H   0  0  0  0  0  0  0  0  0  0  0  0
   -3.0538   -2.7186   -0.6556 H   0  0  0  0  0  0  0  0  0  0  0  0
   -1.3498   -2.2206    0.5184 C   0  0  0  0  0  0  0  0  0  0  0  0
   -0.4997   -2.9426    1.0194 O   0  0  0  0  0  0  0  0  0  0  0  0
   -1.1198   -0.9926    0.0674 N   0  0  0  0  0  0  0  0  0  0  0  0
   -1.8978   -0.4486   -0.2716 H   0  0  0  0  0  0  0  0  0  0  0  0
    0.1693   -0.2866    0.0854 C   0  0  1  0  0  0  0  0  0  0  0  0
    0.9043   -0.8713   -0.4705 H   0  0  0  0  0  0  0  0  0  0  0  0
    0.0106    1.0816   -0.6124 C   0  0  0  0  0  0  0  0  0  0  0  0
    0.9614    1.3510   -1.0757 H   0  0  0  0  0  0  0  0  0  0  0  0
   -0.7323    0.9871   -1.4075 H   0  0  0  0  0  0  0  0  0  0  0  0
   -0.3926    2.2318    0.3235 C   0  0  0  0  0  0  0  0  0  0  0  0
   -0.8319    1.9506    1.4635 O   0  5  0  0  0  0  0  0  0  0  0  0
   -0.2744    3.3936   -0.1219 O   0  0  0  0  0  0  0  0  0  0  0  0
    0.6664   -0.1450    1.5428 C   0  0  0  0  0  0  0  0  0  0  0  0
    1.8485   -0.3724    1.8265 O   0  0  0  0  0  0  0  0  0  0  0  0
   -0.2161    0.2434    2.4686 N   0  0  0  0  0  0  0  0  0  0  0  0
   -1.1850    0.3219    2.1537 H   0  0  0  0  0  0  0  0  0  0  0  0
    0.0735    0.4128    3.8885 C   0  0  0  0  0  0  0  0  0  0  0  0
    1.0159    0.9483    4.0105 H   0  0  0  0  0  0  0  0  0  0  0  0
   -0.7315    0.9748    4.3613 H   0  0  0  0  0  0  0  0  0  0  0  0
    0.1564   -0.5677    4.3577 H   0  0  0  0  0  0  0  0  0  0  0  0
  5  6  2  0  0  0  0
  5  7  1  0  0  0  0
  2  3  1  0  0  0  0
  2  4  1  0  0  0  0
  2  5  1  0  0  0  0
  1  2  1  0  0  0  0
 17 18  2  0  0  0  0
 17 19  1  0  0  0  0
 14 15  1  0  0  0  0
 14 16  2  0  0  0  0
 11 12  1  0  0  0  0
 11 13  1  0  0  0  0
 11 14  1  0  0  0  0
  9 10  1  0  0  0  0
  9 11  1  0  0  0  0
  9 17  1  0  0  0  0
  7  8  1  0  0  0  0
  7  9  1  0  0  0  0
 21 22  1  0  0  0  0
 21 23  1  0  0  0  0
 21 24  1  0  0  0  0
 19 20  1  0  0  0  0
 19 21  1  0  0  0  0
M  CHG  1  15  -1
M  END
$$$$
default_name
  -OEChem-02102213163D

 24 23  0     1  0  0  0  0  0999 V2000
   -2.8347   -3.7166    0.8034 H   0  0  0  0  0  0  0  0  0  0  0  0
   -2.7728   -2.7096    0.3954 C   0  0  0  0  0  0  0  0  0  0  0  0
   -3.4267   -2.0426    0.9524 H   0  0  0  0  0  0  0  0  0  0  0  0
   -3.0538   -2.7186   -0.6556 H   0  0  0  0  0  0  0  0  0  0  0  0
   -1.3498   -2.2206    0.5184 C   0  0  0  0  0  0  0  0  0  0  0  0
   -0.4997   -2.9426    1.0194 O   0  0  0  0  0  0  0  0  0  0  0  0
   -1.1198   -0.9926    0.0674 N   0  0  0  0  0  0  0  0  0  0  0  0
   -1.8978   -0.4486   -0.2716 H   0  0  0  0  0  0  0  0  0  0  0  0
    0.1693   -0.2866    0.0854 C   0  0  1  0  0  0  0  0  0  0  0  0
    0.9043   -0.8713   -0.4705 H   0  0  0  0  0  0  0  0  0  0  0  0
    0.0106    1.0816   -0.6124 C   0  0  0  0  0  0  0  0  0  0  0  0
    0.9614    1.3510   -1.0757 H   0  0  0  0  0  0  0  0  0  0  0  0
   -0.7323    0.9871   -1.4075 H   0  0  0  0  0  0  0  0  0  0  0  0
   -0.3926    2.2318    0.3235 C   0  0  0  0  0  0  0  0  0  0  0  0
   -0.5571    1.9836    1.5413 O   0  5  0  0  0  0  0  0  0  0  0  0
   -0.5529    3.3569   -0.1967 O   0  0  0  0  0  0  0  0  0  0  0  0
    0.6664   -0.1450    1.5428 C   0  0  0  0  0  0  0  0  0  0  0  0
    1.8485   -0.3724    1.8265 O   0  0  0  0  0  0  0  0  0  0  0  0
   -0.2161    0.2434    2.4686 N   0  0  0  0  0  0  0  0  0  0  0  0
   -1.1850    0.3219    2.1537 H   0  0  0  0  0  0  0  0  0  0  0  0
    0.0735    0.4128    3.8885 C   0  0  0  0  0  0  0  0  0  0  0  0
    1.0159    0.9483    4.0105 H   0  0  0  0  0  0  0  0  0  0  0  0
   -0.7315    0.9748    4.3613 H   0  0  0  0  0  0  0  0  0  0  0  0
    0.1564   -0.5677    4.3577 H   0  0  0  0  0  0  0  0  0  0  0  0
  5  6  2  0  0  0  0
  5  7  1  0  0  0  0
  2  3  1  0  0  0  0
  2  4  1  0  0  0  0
  2  5  1  0  0  0  0
  1  2  1  0  0  0  0
 17 18  2  0  0  0  0
 17 19  1  0  0  0  0
 14 15  1  0  0  0  0
 14 16  2  0  0  0  0
 11 12  1  0  0  0  0
 11 13  1  0  0  0  0
 11 14  1  0  0  0  0
  9 10  1  0  0  0  0
  9 11  1  0  0  0  0
  9 17  1  0  0  0  0
  7  8  1  0  0  0  0
  7  9  1  0  0  0  0
 21 22  1  0  0  0  0
 21 23  1  0  0  0  0
 21 24  1  0  0  0  0
 19 20  1  0  0  0  0
 19 21  1  0  0  0  0
M  CHG  1  15  -1
M  END
$$$$
default_name
  -OEChem-02102213163D

 24 23  0     1  0  0  0  0  0999 V2000
   -2.8347   -3.7166    0.8034 H   0  0  0  0  0  0  0  0  0  0  0  0
   -2.7728   -2.7096    0.3954 C   0  0  0  0  0  0  0  0  0  0  0  0
   -3.4267   -2.0426    0.9524 H   0  0  0  0  0  0  0  0  0  0  0  0
   -3.0538   -2.7186   -0.6556 H   0  0  0  0  0  0  0  0  0  0  0  0
   -1.3498   -2.2206    0.5184 C   0  0  0  0  0  0  0  0  0  0  0  0
   -0.4997   -2.9426    1.0194 O   0  0  0  0  0  0  0  0  0  0  0  0
   -1.1198   -0.9926    0.0674 N   0  0  0  0  0  0  0  0  0  0  0  0
   -1.8978   -0.4486   -0.2716 H   0  0  0  0  0  0  0  0  0  0  0  0
    0.1693   -0.2866    0.0854 C   0  0  1  0  0  0  0  0  0  0  0  0
    0.9043   -0.8713   -0.4705 H   0  0  0  0  0  0  0  0  0  0  0  0
    0.0106    1.0816   -0.6124 C   0  0  0  0  0  0  0  0  0  0  0  0
    0.9614    1.3510   -1.0757 H   0  0  0  0  0  0  0  0  0  0  0  0
   -0.7323    0.9871   -1.4075 H   0  0  0  0  0  0  0  0  0  0  0  0
   -0.3926    2.2318    0.3235 C   0  0  0  0  0  0  0  0  0  0  0  0
   -0.2818    2.0641    1.5610 O   0  5  0  0  0  0  0  0  0  0  0  0
   -0.8306    3.2725   -0.2125 O   0  0  0  0  0  0  0  0  0  0  0  0
    0.6664   -0.1450    1.5428 C   0  0  0  0  0  0  0  0  0  0  0  0
    1.8485   -0.3724    1.8265 O   0  0  0  0  0  0  0  0  0  0  0  0
   -0.2161    0.2434    2.4686 N   0  0  0  0  0  0  0  0  0  0  0  0
   -1.1850    0.3219    2.1537 H   0  0  0  0  0  0  0  0  0  0  0  0
    0.0735    0.4128    3.8885 C   0  0  0  0  0  0  0  0  0  0  0  0
    1.0159    0.9483    4.0105 H   0  0  0  0  0  0  0  0  0  0  0  0
   -0.7315    0.9748    4.3613 H   0  0  0  0  0  0  0  0  0  0  0  0
    0.1564   -0.5677    4.3577 H   0  0  0  0  0  0  0  0  0  0  0  0
  5  6  2  0  0  0  0
  5  7  1  0  0  0  0
  2  3  1  0  0  0  0
  2  4  1  0  0  0  0
  2  5  1  0  0  0  0
  1  2  1  0  0  0  0
 17 18  2  0  0  0  0
 17 19  1  0  0  0  0
 14 15  1  0  0  0  0
 14 16  2  0  0  0  0
 11 12  1  0  0  0  0
 11 13  1  0  0  0  0
 11 14  1  0  0  0  0
  9 10  1  0  0  0  0
  9 11  1  0  0  0  0
  9 17  1  0  0  0  0
  7  8  1  0  0  0  0
  7  9  1  0  0  0  0
 21 22  1  0  0  0  0
 21 23  1  0  0  0  0
 21 24  1  0  0  0  0
 19 20  1  0  0  0  0
 19 21  1  0  0  0  0
M  CHG  1  15  -1
M  END
$$$$
default_name
  -OEChem-02102213163D

 24 23  0     1  0  0  0  0  0999 V2000
   -2.8347   -3.7166    0.8034 H   0  0  0  0  0  0  0  0  0  0  0  0
   -2.7728   -2.7096    0.3954 C   0  0  0  0  0  0  0  0  0  0  0  0
   -3.4267   -2.0426    0.9524 H   0  0  0  0  0  0  0  0  0  0  0  0
   -3.0538   -2.7186   -0.6556 H   0  0  0  0  0  0  0  0  0  0  0  0
   -1.3498   -2.2206    0.5184 C   0  0  0  0  0  0  0  0  0  0  0  0
   -0.4997   -2.9426    1.0194 O   0  0  0  0  0  0  0  0  0  0  0  0
   -1.1198   -0.9926    0.0674 N   0  0  0  0  0  0  0  0  0  0  0  0
   -1.8978   -0.4486   -0.2716 H   0  0  0  0  0  0  0  0  0  0  0  0
    0.1693   -0.2866    0.0854 C   0  0  1  0  0  0  0  0  0  0  0  0
    0.9043   -0.8713   -0.4705 H   0  0  0  0  0  0  0  0  0  0  0  0
    0.0106    1.0816   -0.6124 C   0  0  0  0  0  0  0  0  0  0  0  0
    0.9614    1.3510   -1.0757 H   0  0  0  0  0  0  0  0  0  0  0  0
   -0.7323    0.9871   -1.4075 H   0  0  0  0  0  0  0  0  0  0  0  0
   -0.3926    2.2318    0.3235 C   0  0  0  0  0  0  0  0  0  0  0  0
   -0.0248    2.1866    1.5212 O   0  5  0  0  0  0  0  0  0  0  0  0
   -1.0887    3.1460   -0.1683 O   0  0  0  0  0  0  0  0  0  0  0  0
    0.6664   -0.1450    1.5428 C   0  0  0  0  0  0  0  0  0  0  0  0
    1.8485   -0.3724    1.8265 O   0  0  0  0  0  0  0  0  0  0  0  0
   -0.2161    0.2434    2.4686 N   0  0  0  0  0  0  0  0  0  0  0  0
   -1.1850    0.3219    2.1537 H   0  0  0  0  0  0  0  0  0  0  0  0
    0.0735    0.4128    3.8885 C   0  0  0  0  0  0  0  0  0  0  0  0
    1.0159    0.9483    4.0105 H   0  0  0  0  0  0  0  0  0  0  0  0
   -0.7315    0.9748    4.3613 H   0  0  0  0  0  0  0  0  0  0  0  0
    0.1564   -0.5677    4.3577 H   0  0  0  0  0  0  0  0  0  0  0  0
  5  6  2  0  0  0  0
  5  7  1  0  0  0  0
  2  3  1  0  0  0  0
  2  4  1  0  0  0  0
  2  5  1  0  0  0  0
  1  2  1  0  0  0  0
 17 18  2  0  0  0  0
 17 19  1  0  0  0  0
 14 15  1  0  0  0  0
 14 16  2  0  0  0  0
 11 12  1  0  0  0  0
 11 13  1  0  0  0  0
 11 14  1  0  0  0  0
  9 10  1  0  0  0  0
  9 11  1  0  0  0  0
  9 17  1  0  0  0  0
  7  8  1  0  0  0  0
  7  9  1  0  0  0  0
 21 22  1  0  0  0  0
 21 23  1  0  0  0  0
 21 24  1  0  0  0  0
 19 20  1  0  0  0  0
 19 21  1  0  0  0  0
M  CHG  1  15  -1
M  END
$$$$
default_name
  -OEChem-02102213163D

 24 23  0     1  0  0  0  0  0999 V2000
   -2.8347   -3.7166    0.8034 H   0  0  0  0  0  0  0  0  0  0  0  0
   -2.7728   -2.7096    0.3954 C   0  0  0  0  0  0  0  0  0  0  0  0
   -3.4267   -2.0426    0.9524 H   0  0  0  0  0  0  0  0  0  0  0  0
   -3.0538   -2.7186   -0.6556 H   0  0  0  0  0  0  0  0  0  0  0  0
   -1.3498   -2.2206    0.5184 C   0  0  0  0  0  0  0  0  0  0  0  0
   -0.4997   -2.9426    1.0194 O   0  0  0  0  0  0  0  0  0  0  0  0
   -1.1198   -0.9926    0.0674 N   0  0  0  0  0  0  0  0  0  0  0  0
   -1.8978   -0.4486   -0.2716 H   0  0  0  0  0  0  0  0  0  0  0  0
    0.1693   -0.2866    0.0854 C   0  0  1  0  0  0  0  0  0  0  0  0
    0.9043   -0.8713   -0.4705 H   0  0  0  0  0  0  0  0  0  0  0  0
    0.0106    1.0816   -0.6124 C   0  0  0  0  0  0  0  0  0  0  0  0
    0.9614    1.3510   -1.0757 H   0  0  0  0  0  0  0  0  0  0  0  0
   -0.7323    0.9871   -1.4075 H   0  0  0  0  0  0  0  0  0  0  0  0
   -0.3926    2.2318    0.3235 C   0  0  0  0  0  0  0  0  0  0  0  0
    0.1965    2.3427    1.4246 O   0  5  0  0  0  0  0  0  0  0  0  0
   -1.3094    2.9862   -0.0670 O   0  0  0  0  0  0  0  0  0  0  0  0
    0.6664   -0.1450    1.5428 C   0  0  0  0  0  0  0  0  0  0  0  0
    1.8485   -0.3724    1.8265 O   0  0  0  0  0  0  0  0  0  0  0  0
   -0.2161    0.2434    2.4686 N   0  0  0  0  0  0  0  0  0  0  0  0
   -1.1850    0.3219    2.1537 H   0  0  0  0  0  0  0  0  0  0  0  0
    0.0735    0.4128    3.8885 C   0  0  0  0  0  0  0  0  0  0  0  0
    1.0159    0.9483    4.0105 H   0  0  0  0  0  0  0  0  0  0  0  0
   -0.7315    0.9748    4.3613 H   0  0  0  0  0  0  0  0  0  0  0  0
    0.1564   -0.5677    4.3577 H   0  0  0  0  0  0  0  0  0  0  0  0
  5  6  2  0  0  0  0
  5  7  1  0  0  0  0
  2  3  1  0  0  0  0
  2  4  1  0  0  0  0
  2  5  1  0  0  0  0
  1  2  1  0  0  0  0
 17 18  2  0  0  0  0
 17 19  1  0  0  0  0
 14 15  1  0  0  0  0
 14 16  2  0  0  0  0
 11 12  1  0  0  0  0
 11 13  1  0  0  0  0
 11 14  1  0  0  0  0
  9 10  1  0  0  0  0
  9 11  1  0  0  0  0
  9 17  1  0  0  0  0
  7  8  1  0  0  0  0
  7  9  1  0  0  0  0
 21 22  1  0  0  0  0
 21 23  1  0  0  0  0
 21 24  1  0  0  0  0
 19 20  1  0  0  0  0
 19 21  1  0  0  0  0
M  CHG  1  15  -1
M  END
$$$$
default_name
  -OEChem-02102213163D

 24 23  0     1  0  0  0  0  0999 V2000
   -2.8347   -3.7166    0.8034 H   0  0  0  0  0  0  0  0  0  0  0  0
   -2.7728   -2.7096    0.3954 C   0  0  0  0  0  0  0  0  0  0  0  0
   -3.4267   -2.0426    0.9524 H   0  0  0  0  0  0  0  0  0  0  0  0
   -3.0538   -2.7186   -0.6556 H   0  0  0  0  0  0  0  0  0  0  0  0
   -1.3498   -2.2206    0.5184 C   0  0  0  0  0  0  0  0  0  0  0  0
   -0.4997   -2.9426    1.0194 O   0  0  0  0  0  0  0  0  0  0  0  0
   -1.1198   -0.9926    0.0674 N   0  0  0  0  0  0  0  0  0  0  0  0
   -1.8978   -0.4486   -0.2716 H   0  0  0  0  0  0  0  0  0  0  0  0
    0.1693   -0.2866    0.0854 C   0  0  1  0  0  0  0  0  0  0  0  0
    0.9043   -0.8713   -0.4705 H   0  0  0  0  0  0  0  0  0  0  0  0
    0.0106    1.0816   -0.6124 C   0  0  0  0  0  0  0  0  0  0  0  0
    0.9614    1.3510   -1.0757 H   0  0  0  0  0  0  0  0  0  0  0  0
   -0.7323    0.9871   -1.4075 H   0  0  0  0  0  0  0  0  0  0  0  0
   -0.3926    2.2318    0.3235 C   0  0  0  0  0  0  0  0  0  0  0  0
    0.3669    2.5218    1.2779 O   0  5  0  0  0  0  0  0  0  0  0  0
   -1.4778    2.8039    0.0845 O   0  0  0  0  0  0  0  0  0  0  0  0
    0.6664   -0.1450    1.5428 C   0  0  0  0  0  0  0  0  0  0  0  0
    1.8485   -0.3724    1.8265 O   0  0  0  0  0  0  0  0  0  0  0  0
   -0.2161    0.2434    2.4686 N   0  0  0  0  0  0  0  0  0  0  0  0
   -1.1850    0.3219    2.1537 H   0  0  0  0  0  0  0  0  0  0  0  0
    0.0735    0.4128    3.8885 C   0  0  0  0  0  0  0  0  0  0  0  0
    1.0159    0.9483    4.0105 H   0  0  0  0  0  0  0  0  0  0  0  0
   -0.7315    0.9748    4.3613 H   0  0  0  0  0  0  0  0  0  0  0  0
    0.1564   -0.5677    4.3577 H   0  0  0  0  0  0  0  0  0  0  0  0
  5  6  2  0  0  0  0
  5  7  1  0  0  0  0
  2  3  1  0  0  0  0
  2  4  1  0  0  0  0
  2  5  1  0  0  0  0
  1  2  1  0  0  0  0
 17 18  2  0  0  0  0
 17 19  1  0  0  0  0
 14 15  1  0  0  0  0
 14 16  2  0  0  0  0
 11 12  1  0  0  0  0
 11 13  1  0  0  0  0
 11 14  1  0  0  0  0
  9 10  1  0  0  0  0
  9 11  1  0  0  0  0
  9 17  1  0  0  0  0
  7  8  1  0  0  0  0
  7  9  1  0  0  0  0
 21 22  1  0  0  0  0
 21 23  1  0  0  0  0
 21 24  1  0  0  0  0
 19 20  1  0  0  0  0
 19 21  1  0  0  0  0
M  CHG  1  15  -1
M  END
$$$$
default_name
  -OEChem-02102213163D

 24 23  0     1  0  0  0  0  0999 V2000
   -2.8347   -3.7166    0.8034 H   0  0  0  0  0  0  0  0  0  0  0  0
   -2.7728   -2.7096    0.3954 C   0  0  0  0  0  0  0  0  0  0  0  0
   -3.4267   -2.0426    0.9524 H   0  0  0  0  0  0  0  0  0  0  0  0
   -3.0538   -2.7186   -0.6556 H   0  0  0  0  0  0  0  0  0  0  0  0
   -1.3498   -2.2206    0.5184 C   0  0  0  0  0  0  0  0  0  0  0  0
   -0.4997   -2.9426    1.0194 O   0  0  0  0  0  0  0  0  0  0  0  0
   -1.1198   -0.9926    0.0674 N   0  0  0  0  0  0  0  0  0  0  0  0
   -1.8978   -0.4486   -0.2716 H   0  0  0  0  0  0  0  0  0  0  0  0
    0.1693   -0.2866    0.0854 C   0  0  1  0  0  0  0  0  0  0  0  0
    0.9043   -0.8713   -0.4705 H   0  0  0  0  0  0  0  0  0  0  0  0
    0.0106    1.0816   -0.6124 C   0  0  0  0  0  0  0  0  0  0  0  0
    0.9614    1.3510   -1.0757 H   0  0  0  0  0  0  0  0  0  0  0  0
   -0.7323    0.9871   -1.4075 H   0  0  0  0  0  0  0  0  0  0  0  0
   -0.3926    2.2318    0.3235 C   0  0  0  0  0  0  0  0  0  0  0  0
    0.4748    2.7117    1.0910 O   0  5  0  0  0  0  0  0  0  0  0  0
   -1.5824    2.6116    0.2758 O   0  0  0  0  0  0  0  0  0  0  0  0
    0.6664   -0.1450    1.5428 C   0  0  0  0  0  0  0  0  0  0  0  0
    1.8485   -0.3724    1.8265 O   0  0  0  0  0  0  0  0  0  0  0  0
   -0.2161    0.2434    2.4686 N   0  0  0  0  0  0  0  0  0  0  0  0
   -1.1850    0.3219    2.1537 H   0  0  0  0  0  0  0  0  0  0  0  0
    0.0735    0.4128    3.8885 C   0  0  0  0  0  0  0  0  0  0  0  0
    1.0159    0.9483    4.0105 H   0  0  0  0  0  0  0  0  0  0  0  0
   -0.7315    0.9748    4.3613 H   0  0  0  0  0  0  0  0  0  0  0  0
    0.1564   -0.5677    4.3577 H   0  0  0  0  0  0  0  0  0  0  0  0
  5  6  2  0  0  0  0
  5  7  1  0  0  0  0
  2  3  1  0  0  0  0
  2  4  1  0  0  0  0
  2  5  1  0  0  0  0
  1  2  1  0  0  0  0
 17 18  2  0  0  0  0
 17 19  1  0  0  0  0
 14 15  1  0  0  0  0
 14 16  2  0  0  0  0
 11 12  1  0  0  0  0
 11 13  1  0  0  0  0
 11 14  1  0  0  0  0
  9 10  1  0  0  0  0
  9 11  1  0  0  0  0
  9 17  1  0  0  0  0
  7  8  1  0  0  0  0
  7  9  1  0  0  0  0
 21 22  1  0  0  0  0
 21 23  1  0  0  0  0
 21 24  1  0  0  0  0
 19 20  1  0  0  0  0
 19 21  1  0  0  0  0
M  CHG  1  15  -1
M  END
$$$$
default_name
  -OEChem-02102213163D

 24 23  0     1  0  0  0  0  0999 V2000
   -2.8347   -3.7166    0.8034 H   0  0  0  0  0  0  0  0  0  0  0  0
   -2.7728   -2.7096    0.3954 C   0  0  0  0  0  0  0  0  0  0  0  0
   -3.4267   -2.0426    0.9524 H   0  0  0  0  0  0  0  0  0  0  0  0
   -3.0538   -2.7186   -0.6556 H   0  0  0  0  0  0  0  0  0  0  0  0
   -1.3498   -2.2206    0.5184 C   0  0  0  0  0  0  0  0  0  0  0  0
   -0.4997   -2.9426    1.0194 O   0  0  0  0  0  0  0  0  0  0  0  0
   -1.1198   -0.9926    0.0674 N   0  0  0  0  0  0  0  0  0  0  0  0
   -1.8978   -0.4486   -0.2716 H   0  0  0  0  0  0  0  0  0  0  0  0
    0.1693   -0.2866    0.0854 C   0  0  1  0  0  0  0  0  0  0  0  0
    0.9043   -0.8713   -0.4705 H   0  0  0  0  0  0  0  0  0  0  0  0
    0.0106    1.0816   -0.6124 C   0  0  0  0  0  0  0  0  0  0  0  0
    0.9614    1.3510   -1.0757 H   0  0  0  0  0  0  0  0  0  0  0  0
   -0.7323    0.9871   -1.4075 H   0  0  0  0  0  0  0  0  0  0  0  0
   -0.3926    2.2318    0.3235 C   0  0  0  0  0  0  0  0  0  0  0  0
    0.5129    2.8995    0.8766 O   0  5  0  0  0  0  0  0  0  0  0  0
   -1.6160    2.4223    0.4939 O   0  0  0  0  0  0  0  0  0  0  0  0
    0.6664   -0.1450    1.5428 C   0  0  0  0  0  0  0  0  0  0  0  0
    1.8485   -0.3724    1.8265 O   0  0  0  0  0  0  0  0  0  0  0  0
   -0.2161    0.2434    2.4686 N   0  0  0  0  0  0  0  0  0  0  0  0
   -1.1850    0.3219    2.1537 H   0  0  0  0  0  0  0  0  0  0  0  0
    0.0735    0.4128    3.8885 C   0  0  0  0  0  0  0  0  0  0  0  0
    1.0159    0.9483    4.0105 H   0  0  0  0  0  0  0  0  0  0  0  0
   -0.7315    0.9748    4.3613 H   0  0  0  0  0  0  0  0  0  0  0  0
    0.1564   -0.5677    4.3577 H   0  0  0  0  0  0  0  0  0  0  0  0
  5  6  2  0  0  0  0
  5  7  1  0  0  0  0
  2  3  1  0  0  0  0
  2  4  1  0  0  0  0
  2  5  1  0  0  0  0
  1  2  1  0  0  0  0
 17 18  2  0  0  0  0
 17 19  1  0  0  0  0
 14 15  1  0  0  0  0
 14 16  2  0  0  0  0
 11 12  1  0  0  0  0
 11 13  1  0  0  0  0
 11 14  1  0  0  0  0
  9 10  1  0  0  0  0
  9 11  1  0  0  0  0
  9 17  1  0  0  0  0
  7  8  1  0  0  0  0
  7  9  1  0  0  0  0
 21 22  1  0  0  0  0
 21 23  1  0  0  0  0
 21 24  1  0  0  0  0
 19 20  1  0  0  0  0
 19 21  1  0  0  0  0
M  CHG  1  15  -1
M  END
$$$$
default_name
  -OEChem-02102213163D

 24 23  0     1  0  0  0  0  0999 V2000
   -2.8347   -3.7166    0.8034 H   0  0  0  0  0  0  0  0  0  0  0  0
   -2.7728   -2.7096    0.3954 C   0  0  0  0  0  0  0  0  0  0  0  0
   -3.4267   -2.0426    0.9524 H   0  0  0  0  0  0  0  0  0  0  0  0
   -3.0538   -2.7186   -0.6556 H   0  0  0  0  0  0  0  0  0  0  0  0
   -1.3498   -2.2206    0.5184 C   0  0  0  0  0  0  0  0  0  0  0  0
   -0.4997   -2.9426    1.0194 O   0  0  0  0  0  0  0  0  0  0  0  0
   -1.1198   -0.9926    0.0674 N   0  0  0  0  0  0  0  0  0  0  0  0
   -1.8978   -0.4486   -0.2716 H   0  0  0  0  0  0  0  0  0  0  0  0
    0.1693   -0.2866    0.0854 C   0  0  1  0  0  0  0  0  0  0  0  0
    0.9043   -0.8713   -0.4705 H   0  0  0  0  0  0  0  0  0  0  0  0
    0.0106    1.0816   -0.6124 C   0  0  0  0  0  0  0  0  0  0  0  0
    0.9614    1.3510   -1.0757 H   0  0  0  0  0  0  0  0  0  0  0  0
   -0.7323    0.9871   -1.4075 H   0  0  0  0  0  0  0  0  0  0  0  0
   -0.3926    2.2318    0.3235 C   0  0  0  0  0  0  0  0  0  0  0  0
    0.4786    3.0723    0.6495 O   0  5  0  0  0  0  0  0  0  0  0  0
   -1.5764    2.2490    0.7239 O   0  0  0  0  0  0  0  0  0  0  0  0
    0.6664   -0.1450    1.5428 C   0  0  0  0  0  0  0  0  0  0  0  0
    1.8485   -0.3724    1.8265 O   0  0  0  0  0  0  0  0  0  0  0  0
   -0.2161    0.2434    2.4686 N   0  0  0  0  0  0  0  0  0  0  0  0
   -1.1850    0.3219    2.1537 H   0  0  0  0  0  0  0  0  0  0  0  0
    0.0735    0.4128    3.8885 C   0  0  0  0  0  0  0  0  0  0  0  0
    1.0159    0.9483    4.0105 H   0  0  0  0  0  0  0  0  0  0  0  0
   -0.7315    0.9748    4.3613 H   0  0  0  0  0  0  0  0  0  0  0  0
    0.1564   -0.5677    4.3577 H   0  0  0  0  0  0  0  0  0  0  0  0
  5  6  2  0  0  0  0
  5  7  1  0  0  0  0
  2  3  1  0  0  0  0
  2  4  1  0  0  0  0
  2  5  1  0  0  0  0
  1  2  1  0  0  0  0
 17 18  2  0  0  0  0
 17 19  1  0  0  0  0
 14 15  1  0  0  0  0
 14 16  2  0  0  0  0
 11 12  1  0  0  0  0
 11 13  1  0  0  0  0
 11 14  1  0  0  0  0
  9 10  1  0  0  0  0
  9 11  1  0  0  0  0
  9 17  1  0  0  0  0
  7  8  1  0  0  0  0
  7  9  1  0  0  0  0
 21 22  1  0  0  0  0
 21 23  1  0  0  0  0
 21 24  1  0  0  0  0
 19 20  1  0  0  0  0
 19 21  1  0  0  0  0
M  CHG  1  15  -1
M  END
$$$$
default_name
  -OEChem-02102213163D

 24 23  0     1  0  0  0  0  0999 V2000
   -2.8347   -3.7166    0.8034 H   0  0  0  0  0  0  0  0  0  0  0  0
   -2.7728   -2.7096    0.3954 C   0  0  0  0  0  0  0  0  0  0  0  0
   -3.4267   -2.0426    0.9524 H   0  0  0  0  0  0  0  0  0  0  0  0
   -3.0538   -2.7186   -0.6556 H   0  0  0  0  0  0  0  0  0  0  0  0
   -1.3498   -2.2206    0.5184 C   0  0  0  0  0  0  0  0  0  0  0  0
   -0.4997   -2.9426    1.0194 O   0  0  0  0  0  0  0  0  0  0  0  0
   -1.1198   -0.9926    0.0674 N   0  0  0  0  0  0  0  0  0  0  0  0
   -1.8978   -0.4486   -0.2716 H   0  0  0  0  0  0  0  0  0  0  0  0
    0.1693   -0.2866    0.0854 C   0  0  1  0  0  0  0  0  0  0  0  0
    0.9043   -0.8713   -0.4705 H   0  0  0  0  0  0  0  0  0  0  0  0
    0.0106    1.0816   -0.6124 C   0  0  0  0  0  0  0  0  0  0  0  0
    0.9614    1.3510   -1.0757 H   0  0  0  0  0  0  0  0  0  0  0  0
   -0.7323    0.9871   -1.4075 H   0  0  0  0  0  0  0  0  0  0  0  0
   -0.3926    2.2318    0.3235 C   0  0  0  0  0  0  0  0  0  0  0  0
    0.3742    3.2184    0.4250 O   0  5  0  0  0  0  0  0  0  0  0  0
   -1.4663    2.1035    0.9502 O   0  0  0  0  0  0  0  0  0  0  0  0
    0.6664   -0.1450    1.5428 C   0  0  0  0  0  0  0  0  0  0  0  0
    1.8485   -0.3724    1.8265 O   0  0  0  0  0  0  0  0  0  0  0  0
   -0.2161    0.2434    2.4686 N   0  0  0  0  0  0  0  0  0  0  0  0
   -1.1850    0.3219    2.1537 H   0  0  0  0  0  0  0  0  0  0  0  0
    0.0735    0.4128    3.8885 C   0  0  0  0  0  0  0  0  0  0  0  0
    1.0159    0.9483    4.0105 H   0  0  0  0  0  0  0  0  0  0  0  0
   -0.7315    0.9748    4.3613 H   0  0  0  0  0  0  0  0  0  0  0  0
    0.1564   -0.5677    4.3577 H   0  0  0  0  0  0  0  0  0  0  0  0
  5  6  2  0  0  0  0
  5  7  1  0  0  0  0
  2  3  1  0  0  0  0
  2  4  1  0  0  0  0
  2  5  1  0  0  0  0
  1  2  1  0  0  0  0
 17 18  2  0  0  0  0
 17 19  1  0  0  0  0
 14 15  1  0  0  0  0
 14 16  2  0  0  0  0
 11 12  1  0  0  0  0
 11 13  1  0  0  0  0
 11 14  1  0  0  0  0
  9 10  1  0  0  0  0
  9 11  1  0  0  0  0
  9 17  1  0  0  0  0
  7  8  1  0  0  0  0
  7  9  1  0  0  0  0
 21 22  1  0  0  0  0
 21 23  1  0  0  0  0
 21 24  1  0  0  0  0
 19 20  1  0  0  0  0
 19 21  1  0  0  0  0
M  CHG  1  15  -1
M  END
$$$$
default_name
  -OEChem-02102213163D

 24 23  0     1  0  0  0  0  0999 V2000
   -2.8347   -3.7166    0.8034 H   0  0  0  0  0  0  0  0  0  0  0  0
   -2.7728   -2.7096    0.3954 C   0  0  0  0  0  0  0  0  0  0  0  0
   -3.4267   -2.0426    0.9524 H   0  0  0  0  0  0  0  0  0  0  0  0
   -3.0538   -2.7186   -0.6556 H   0  0  0  0  0  0  0  0  0  0  0  0
   -1.3498   -2.2206    0.5184 C   0  0  0  0  0  0  0  0  0  0  0  0
   -0.4997   -2.9426    1.0194 O   0  0  0  0  0  0  0  0  0  0  0  0
   -1.1198   -0.9926    0.0674 N   0  0  0  0  0  0  0  0  0  0  0  0
   -1.8978   -0.4486   -0.2716 H   0  0  0  0  0  0  0  0  0  0  0  0
    0.1693   -0.2866    0.0854 C   0  0  1  0  0  0  0  0  0  0  0  0
    0.9043   -0.8713   -0.4705 H   0  0  0  0  0  0  0  0  0  0  0  0
    0.0106    1.0816   -0.6124 C   0  0  0  0  0  0  0  0  0  0  0  0
    0.9614    1.3510   -1.0757 H   0  0  0  0  0  0  0  0  0  0  0  0
   -0.7323    0.9871   -1.4075 H   0  0  0  0  0  0  0  0  0  0  0  0
   -0.3926    2.2318    0.3235 C   0  0  0  0  0  0  0  0  0  0  0  0
    0.2069    3.3278    0.2184 O   0  5  0  0  0  0  0  0  0  0  0  0
   -1.2931    1.9956    1.1574 O   0  0  0  0  0  0  0  0  0  0  0  0
    0.6664   -0.1450    1.5428 C   0  0  0  0  0  0  0  0  0  0  0  0
    1.8485   -0.3724    1.8265 O   0  0  0  0  0  0  0  0  0  0  0  0
   -0.2161    0.2434    2.4686 N   0  0  0  0  0  0  0  0  0  0  0  0
   -1.1850    0.3219    2.1537 H   0  0  0  0  0  0  0  0  0  0  0  0
    0.0735    0.4128    3.8885 C   0  0  0  0  0  0  0  0  0  0  0  0
    1.0159    0.9483    4.0105 H   0  0  0  0  0  0  0  0  0  0  0  0
   -0.7315    0.9748    4.3613 H   0  0  0  0  0  0  0  0  0  0  0  0
    0.1564   -0.5677    4.3577 H   0  0  0  0  0  0  0  0  0  0  0  0
  5  6  2  0  0  0  0
  5  7  1  0  0  0  0
  2  3  1  0  0  0  0
  2  4  1  0  0  0  0
  2  5  1  0  0  0  0
  1  2  1  0  0  0  0
 17 18  2  0  0  0  0
 17 19  1  0  0  0  0
 14 15  1  0  0  0  0
 14 16  2  0  0  0  0
 11 12  1  0  0  0  0
 11 13  1  0  0  0  0
 11 14  1  0  0  0  0
  9 10  1  0  0  0  0
  9 11  1  0  0  0  0
  9 17  1  0  0  0  0
  7  8  1  0  0  0  0
  7  9  1  0  0  0  0
 21 22  1  0  0  0  0
 21 23  1  0  0  0  0
 21 24  1  0  0  0  0
 19 20  1  0  0  0  0
 19 21  1  0  0  0  0
M  CHG  1  15  -1
M  END
$$$$
default_name
  -OEChem-02102213163D

 24 23  0     1  0  0  0  0  0999 V2000
   -2.8347   -3.7166    0.8034 H   0  0  0  0  0  0  0  0  0  0  0  0
   -2.7728   -2.7096    0.3954 C   0  0  0  0  0  0  0  0  0  0  0  0
   -3.4267   -2.0426    0.9524 H   0  0  0  0  0  0  0  0  0  0  0  0
   -3.0538   -2.7186   -0.6556 H   0  0  0  0  0  0  0  0  0  0  0  0
   -1.3498   -2.2206    0.5184 C   0  0  0  0  0  0  0  0  0  0  0  0
   -0.4997   -2.9426    1.0194 O   0  0  0  0  0  0  0  0  0  0  0  0
   -1.1198   -0.9926    0.0674 N   0  0  0  0  0  0  0  0  0  0  0  0
   -1.8978   -0.4486   -0.2716 H   0  0  0  0  0  0  0  0  0  0  0  0
    0.1693   -0.2866    0.0854 C   0  0  1  0  0  0  0  0  0  0  0  0
    0.9043   -0.8713   -0.4705 H   0  0  0  0  0  0  0  0  0  0  0  0
    0.0106    1.0816   -0.6124 C   0  0  0  0  0  0  0  0  0  0  0  0
    0.9614    1.3510   -1.0757 H   0  0  0  0  0  0  0  0  0  0  0  0
   -0.7323    0.9871   -1.4075 H   0  0  0  0  0  0  0  0  0  0  0  0
   -0.3926    2.2318    0.3235 C   0  0  0  0  0  0  0  0  0  0  0  0
   -0.0120    3.3931    0.0439 O   0  5  0  0  0  0  0  0  0  0  0  0
   -1.0688    1.9328    1.3312 O   0  0  0  0  0  0  0  0  0  0  0  0
    0.6664   -0.1450    1.5428 C   0  0  0  0  0  0  0  0  0  0  0  0
    1.8485   -0.3724    1.8265 O   0  0  0  0  0  0  0  0  0  0  0  0
   -0.2161    0.2434    2.4686 N   0  0  0  0  0  0  0  0  0  0  0  0
   -1.1850    0.3219    2.1537 H   0  0  0  0  0  0  0  0  0  0  0  0
    0.0735    0.4128    3.8885 C   0  0  0  0  0  0  0  0  0  0  0  0
    1.0159    0.9483    4.0105 H   0  0  0  0  0  0  0  0  0  0  0  0
   -0.7315    0.9748    4.3613 H   0  0  0  0  0  0  0  0  0  0  0  0
    0.1564   -0.5677    4.3577 H   0  0  0  0  0  0  0  0  0  0  0  0
  5  6  2  0  0  0  0
  5  7  1  0  0  0  0
  2  3  1  0  0  0  0
  2  4  1  0  0  0  0
  2  5  1  0  0  0  0
  1  2  1  0  0  0  0
 17 18  2  0  0  0  0
 17 19  1  0  0  0  0
 14 15  1  0  0  0  0
 14 16  2  0  0  0  0
 11 12  1  0  0  0  0
 11 13  1  0  0  0  0
 11 14  1  0  0  0  0
  9 10  1  0  0  0  0
  9 11  1  0  0  0  0
  9 17  1  0  0  0  0
  7  8  1  0  0  0  0
  7  9  1  0  0  0  0
 21 22  1  0  0  0  0
 21 23  1  0  0  0  0
 21 24  1  0  0  0  0
 19 20  1  0  0  0  0
 19 21  1  0  0  0  0
M  CHG  1  15  -1
M  END
$$$$
default_name
  -OEChem-02102213163D

 24 23  0     1  0  0  0  0  0999 V2000
   -2.8347   -3.7166    0.8034 H   0  0  0  0  0  0  0  0  0  0  0  0
   -2.7728   -2.7096    0.3954 C   0  0  0  0  0  0  0  0  0  0  0  0
   -3.4267   -2.0426    0.9524 H   0  0  0  0  0  0  0  0  0  0  0  0
   -3.0538   -2.7186   -0.6556 H   0  0  0  0  0  0  0  0  0  0  0  0
   -1.3498   -2.2206    0.5184 C   0  0  0  0  0  0  0  0  0  0  0  0
   -0.4997   -2.9426    1.0194 O   0  0  0  0  0  0  0  0  0  0  0  0
   -1.1198   -0.9926    0.0674 N   0  0  0  0  0  0  0  0  0  0  0  0
   -1.8978   -0.4486   -0.2716 H   0  0  0  0  0  0  0  0  0  0  0  0
    0.1693   -0.2866    0.0854 C   0  0  1  0  0  0  0  0  0  0  0  0
    0.9043   -0.8713   -0.4705 H   0  0  0  0  0  0  0  0  0  0  0  0
    0.0106    1.0816   -0.6124 C   0  0  0  0  0  0  0  0  0  0  0  0
    0.9614    1.3510   -1.0757 H   0  0  0  0  0  0  0  0  0  0  0  0
   -0.7323    0.9871   -1.4075 H   0  0  0  0  0  0  0  0  0  0  0  0
   -0.3926    2.2318    0.3235 C   0  0  0  0  0  0  0  0  0  0  0  0
   -0.2676    3.4098   -0.0867 O   0  5  0  0  0  0  0  0  0  0  0  0
   -0.8084    1.9193    1.4600 O   0  0  0  0  0  0  0  0  0  0  0  0
    0.6664   -0.1450    1.5428 C   0  0  0  0  0  0  0  0  0  0  0  0
    1.8485   -0.3724    1.8265 O   0  0  0  0  0  0  0  0  0  0  0  0
   -0.2161    0.2434    2.4686 N   0  0  0  0  0  0  0  0  0  0  0  0
   -1.1850    0.3219    2.1537 H   0  0  0  0  0  0  0  0  0  0  0  0
    0.0735    0.4128    3.8885 C   0  0  0  0  0  0  0  0  0  0  0  0
    1.0159    0.9483    4.0105 H   0  0  0  0  0  0  0  0  0  0  0  0
   -0.7315    0.9748    4.3613 H   0  0  0  0  0  0  0  0  0  0  0  0
    0.1564   -0.5677    4.3577 H   0  0  0  0  0  0  0  0  0  0  0  0
  5  6  2  0  0  0  0
  5  7  1  0  0  0  0
  2  3  1  0  0  0  0
  2  4  1  0  0  0  0
  2  5  1  0  0  0  0
  1  2  1  0  0  0  0
 17 18  2  0  0  0  0
 17 19  1  0  0  0  0
 14 15  1  0  0  0  0
 14 16  2  0  0  0  0
 11 12  1  0  0  0  0
 11 13  1  0  0  0  0
 11 14  1  0  0  0  0
  9 10  1  0  0  0  0
  9 11  1  0  0  0  0
  9 17  1  0  0  0  0
  7  8  1  0  0  0  0
  7  9  1  0  0  0  0
 21 22  1  0  0  0  0
 21 23  1  0  0  0  0
 21 24  1  0  0  0  0
 19 20  1  0  0  0  0
 19 21  1  0  0  0  0
M  CHG  1  15  -1
M  END
$$$$
default_name
  -OEChem-02102213163D

 24 23  0     1  0  0  0  0  0999 V2000
   -2.8347   -3.7166    0.8034 H   0  0  0  0  0  0  0  0  0  0  0  0
   -2.7728   -2.7096    0.3954 C   0  0  0  0  0  0  0  0  0  0  0  0
   -3.4267   -2.0426    0.9524 H   0  0  0  0  0  0  0  0  0  0  0  0
   -3.0538   -2.7186   -0.6556 H   0  0  0  0  0  0  0  0  0  0  0  0
   -1.3498   -2.2206    0.5184 C   0  0  0  0  0  0  0  0  0  0  0  0
   -0.4997   -2.9426    1.0194 O   0  0  0  0  0  0  0  0  0  0  0  0
   -1.1198   -0.9926    0.0674 N   0  0  0  0  0  0  0  0  0  0  0  0
   -1.8978   -0.4486   -0.2716 H   0  0  0  0  0  0  0  0  0  0  0  0
    0.1693   -0.2866    0.0854 C   0  0  1  0  0  0  0  0  0  0  0  0
    0.9043   -0.8713   -0.4705 H   0  0  0  0  0  0  0  0  0  0  0  0
    0.0106    1.0816   -0.6124 C   0  0  0  0  0  0  0  0  0  0  0  0
    0.8530    1.2288   -1.2905 H   0  0  0  0  0  0  0  0  0  0  0  0
   -0.9016    1.0667   -1.2130 H   0  0  0  0  0  0  0  0  0  0  0  0
   -0.0319    2.2839    0.3437 C   0  0  0  0  0  0  0  0  0  0  0  0
   -0.1590    3.4322   -0.1431 O   0  5  0  0  0  0  0  0  0  0  0  0
    0.0837    2.0423    1.5645 O   0  0  0  0  0  0  0  0  0  0  0  0
    0.6664   -0.1450    1.5428 C   0  0  0  0  0  0  0  0  0  0  0  0
    1.8485   -0.3724    1.8265 O   0  0  0  0  0  0  0  0  0  0  0  0
   -0.2161    0.2434    2.4686 N   0  0  0  0  0  0  0  0  0  0  0  0
   -1.1850    0.3219    2.1537 H   0  0  0  0  0  0  0  0  0  0  0  0
    0.0735    0.4128    3.8885 C   0  0  0  0  0  0  0  0  0  0  0  0
    1.0159    0.9483    4.0105 H   0  0  0  0  0  0  0  0  0  0  0  0
   -0.7315    0.9748    4.3613 H   0  0  0  0  0  0  0  0  0  0  0  0
    0.1564   -0.5677    4.3577 H   0  0  0  0  0  0  0  0  0  0  0  0
  5  6  2  0  0  0  0
  5  7  1  0  0  0  0
  2  3  1  0  0  0  0
  2  4  1  0  0  0  0
  2  5  1  0  0  0  0
  1  2  1  0  0  0  0
 17 18  2  0  0  0  0
 17 19  1  0  0  0  0
 14 15  1  0  0  0  0
 14 16  2  0  0  0  0
 11 12  1  0  0  0  0
 11 13  1  0  0  0  0
 11 14  1  0  0  0  0
  9 10  1  0  0  0  0
  9 11  1  0  0  0  0
  9 17  1  0  0  0  0
  7  8  1  0  0  0  0
  7  9  1  0  0  0  0
 21 22  1  0  0  0  0
 21 23  1  0  0  0  0
 21 24  1  0  0  0  0
 19 20  1  0  0  0  0
 19 21  1  0  0  0  0
M  CHG  1  15  -1
M  END
$$$$
default_name
  -OEChem-02102213163D

 24 23  0     1  0  0  0  0  0999 V2000
   -2.8347   -3.7166    0.8034 H   0  0  0  0  0  0  0  0  0  0  0  0
   -2.7728   -2.7096    0.3954 C   0  0  0  0  0  0  0  0  0  0  0  0
   -3.4267   -2.0426    0.9524 H   0  0  0  0  0  0  0  0  0  0  0  0
   -3.0538   -2.7186   -0.6556 H   0  0  0  0  0  0  0  0  0  0  0  0
   -1.3498   -2.2206    0.5184 C   0  0  0  0  0  0  0  0  0  0  0  0
   -0.4997   -2.9426    1.0194 O   0  0  0  0  0  0  0  0  0  0  0  0
   -1.1198   -0.9926    0.0674 N   0  0  0  0  0  0  0  0  0  0  0  0
   -1.8978   -0.4486   -0.2716 H   0  0  0  0  0  0  0  0  0  0  0  0
    0.1693   -0.2866    0.0854 C   0  0  1  0  0  0  0  0  0  0  0  0
    0.9043   -0.8713   -0.4705 H   0  0  0  0  0  0  0  0  0  0  0  0
    0.0106    1.0816   -0.6124 C   0  0  0  0  0  0  0  0  0  0  0  0
    0.8530    1.2288   -1.2905 H   0  0  0  0  0  0  0  0  0  0  0  0
   -0.9016    1.0667   -1.2130 H   0  0  0  0  0  0  0  0  0  0  0  0
   -0.0319    2.2839    0.3437 C   0  0  0  0  0  0  0  0  0  0  0  0
   -0.4387    3.3851   -0.0963 O   0  5  0  0  0  0  0  0  0  0  0  0
    0.3654    2.0930    1.5132 O   0  0  0  0  0  0  0  0  0  0  0  0
    0.6664   -0.1450    1.5428 C   0  0  0  0  0  0  0  0  0  0  0  0
    1.8485   -0.3724    1.8265 O   0  0  0  0  0  0  0  0  0  0  0  0
   -0.2161    0.2434    2.4686 N   0  0  0  0  0  0  0  0  0  0  0  0
   -1.1850    0.3219    2.1537 H   0  0  0  0  0  0  0  0  0  0  0  0
    0.0735    0.4128    3.8885 C   0  0  0  0  0  0  0  0  0  0  0  0
    1.0159    0.9483    4.0105 H   0  0  0  0  0  0  0  0  0  0  0  0
   -0.7315    0.9748    4.3613 H   0  0  0  0  0  0  0  0  0  0  0  0
    0.1564   -0.5677    4.3577 H   0  0  0  0  0  0  0  0  0  0  0  0
  5  6  2  0  0  0  0
  5  7  1  0  0  0  0
  2  3  1  0  0  0  0
  2  4  1  0  0  0  0
  2  5  1  0  0  0  0
  1  2  1  0  0  0  0
 17 18  2  0  0  0  0
 17 19  1  0  0  0  0
 14 15  1  0  0  0  0
 14 16  2  0  0  0  0
 11 12  1  0  0  0  0
 11 13  1  0  0  0  0
 11 14  1  0  0  0  0
  9 10  1  0  0  0  0
  9 11  1  0  0  0  0
  9 17  1  0  0  0  0
  7  8  1  0  0  0  0
  7  9  1  0  0  0  0
 21 22  1  0  0  0  0
 21 23  1  0  0  0  0
 21 24  1  0  0  0  0
 19 20  1  0  0  0  0
 19 21  1  0  0  0  0
M  CHG  1  15  -1
M  END
$$$$
default_name
  -OEChem-02102213163D

 24 23  0     1  0  0  0  0  0999 V2000
   -2.8347   -3.7166    0.8034 H   0  0  0  0  0  0  0  0  0  0  0  0
   -2.7728   -2.7096    0.3954 C   0  0  0  0  0  0  0  0  0  0  0  0
   -3.4267   -2.0426    0.9524 H   0  0  0  0  0  0  0  0  0  0  0  0
   -3.0538   -2.7186   -0.6556 H   0  0  0  0  0  0  0  0  0  0  0  0
   -1.3498   -2.2206    0.5184 C   0  0  0  0  0  0  0  0  0  0  0  0
   -0.4997   -2.9426    1.0194 O   0  0  0  0  0  0  0  0  0  0  0  0
   -1.1198   -0.9926    0.0674 N   0  0  0  0  0  0  0  0  0  0  0  0
   -1.8978   -0.4486   -0.2716 H   0  0  0  0  0  0  0  0  0  0  0  0
    0.1693   -0.2866    0.0854 C   0  0  1  0  0  0  0  0  0  0  0  0
    0.9043   -0.8713   -0.4705 H   0  0  0  0  0  0  0  0  0  0  0  0
    0.0106    1.0816   -0.6124 C   0  0  0  0  0  0  0  0  0  0  0  0
    0.8530    1.2288   -1.2905 H   0  0  0  0  0  0  0  0  0  0  0  0
   -0.9016    1.0667   -1.2130 H   0  0  0  0  0  0  0  0  0  0  0  0
   -0.0319    2.2839    0.3437 C   0  0  0  0  0  0  0  0  0  0  0  0
   -0.6918    3.2949    0.0059 O   0  5  0  0  0  0  0  0  0  0  0  0
    0.6189    2.1870    1.4063 O   0  0  0  0  0  0  0  0  0  0  0  0
    0.6664   -0.1450    1.5428 C   0  0  0  0  0  0  0  0  0  0  0  0
    1.8485   -0.3724    1.8265 O   0  0  0  0  0  0  0  0  0  0  0  0
   -0.2161    0.2434    2.4686 N   0  0  0  0  0  0  0  0  0  0  0  0
   -1.1850    0.3219    2.1537 H   0  0  0  0  0  0  0  0  0  0  0  0
    0.0735    0.4128    3.8885 C   0  0  0  0  0  0  0  0  0  0  0  0
    1.0159    0.9483    4.0105 H   0  0  0  0  0  0  0  0  0  0  0  0
   -0.7315    0.9748    4.3613 H   0  0  0  0  0  0  0  0  0  0  0  0
    0.1564   -0.5677    4.3577 H   0  0  0  0  0  0  0  0  0  0  0  0
  5  6  2  0  0  0  0
  5  7  1  0  0  0  0
  2  3  1  0  0  0  0
  2  4  1  0  0  0  0
  2  5  1  0  0  0  0
  1  2  1  0  0  0  0
 17 18  2  0  0  0  0
 17 19  1  0  0  0  0
 14 15  1  0  0  0  0
 14 16  2  0  0  0  0
 11 12  1  0  0  0  0
 11 13  1  0  0  0  0
 11 14  1  0  0  0  0
  9 10  1  0  0  0  0
  9 11  1  0  0  0  0
  9 17  1  0  0  0  0
  7  8  1  0  0  0  0
  7  9  1  0  0  0  0
 21 22  1  0  0  0  0
 21 23  1  0  0  0  0
 21 24  1  0  0  0  0
 19 20  1  0  0  0  0
 19 21  1  0  0  0  0
M  CHG  1  15  -1
M  END
$$$$
default_name
  -OEChem-02102213163D

 24 23  0     1  0  0  0  0  0999 V2000
   -2.8347   -3.7166    0.8034 H   0  0  0  0  0  0  0  0  0  0  0  0
   -2.7728   -2.7096    0.3954 C   0  0  0  0  0  0  0  0  0  0  0  0
   -3.4267   -2.0426    0.9524 H   0  0  0  0  0  0  0  0  0  0  0  0
   -3.0538   -2.7186   -0.6556 H   0  0  0  0  0  0  0  0  0  0  0  0
   -1.3498   -2.2206    0.5184 C   0  0  0  0  0  0  0  0  0  0  0  0
   -0.4997   -2.9426    1.0194 O   0  0  0  0  0  0  0  0  0  0  0  0
   -1.1198   -0.9926    0.0674 N   0  0  0  0  0  0  0  0  0  0  0  0
   -1.8978   -0.4486   -0.2716 H   0  0  0  0  0  0  0  0  0  0  0  0
    0.1693   -0.2866    0.0854 C   0  0  1  0  0  0  0  0  0  0  0  0
    0.9043   -0.8713   -0.4705 H   0  0  0  0  0  0  0  0  0  0  0  0
    0.0106    1.0816   -0.6124 C   0  0  0  0  0  0  0  0  0  0  0  0
    0.8530    1.2288   -1.2905 H   0  0  0  0  0  0  0  0  0  0  0  0
   -0.9016    1.0667   -1.2130 H   0  0  0  0  0  0  0  0  0  0  0  0
   -0.0319    2.2839    0.3437 C   0  0  0  0  0  0  0  0  0  0  0  0
   -0.9011    3.1678    0.1565 O   0  5  0  0  0  0  0  0  0  0  0  0
    0.8270    2.3178    1.2511 O   0  0  0  0  0  0  0  0  0  0  0  0
    0.6664   -0.1450    1.5428 C   0  0  0  0  0  0  0  0  0  0  0  0
    1.8485   -0.3724    1.8265 O   0  0  0  0  0  0  0  0  0  0  0  0
   -0.2161    0.2434    2.4686 N   0  0  0  0  0  0  0  0  0  0  0  0
   -1.1850    0.3219    2.1537 H   0  0  0  0  0  0  0  0  0  0  0  0
    0.0735    0.4128    3.8885 C   0  0  0  0  0  0  0  0  0  0  0  0
    1.0159    0.9483    4.0105 H   0  0  0  0  0  0  0  0  0  0  0  0
   -0.7315    0.9748    4.3613 H   0  0  0  0  0  0  0  0  0  0  0  0
    0.1564   -0.5677    4.3577 H   0  0  0  0  0  0  0  0  0  0  0  0
  5  6  2  0  0  0  0
  5  7  1  0  0  0  0
  2  3  1  0  0  0  0
  2  4  1  0  0  0  0
  2  5  1  0  0  0  0
  1  2  1  0  0  0  0
 17 18  2  0  0  0  0
 17 19  1  0  0  0  0
 14 15  1  0  0  0  0
 14 16  2  0  0  0  0
 11 12  1  0  0  0  0
 11 13  1  0  0  0  0
 11 14  1  0  0  0  0
  9 10  1  0  0  0  0
  9 11  1  0  0  0  0
  9 17  1  0  0  0  0
  7  8  1  0  0  0  0
  7  9  1  0  0  0  0
 21 22  1  0  0  0  0
 21 23  1  0  0  0  0
 21 24  1  0  0  0  0
 19 20  1  0  0  0  0
 19 21  1  0  0  0  0
M  CHG  1  15  -1
M  END
$$$$
default_name
  -OEChem-02102213163D

 24 23  0     1  0  0  0  0  0999 V2000
   -2.8347   -3.7166    0.8034 H   0  0  0  0  0  0  0  0  0  0  0  0
   -2.7728   -2.7096    0.3954 C   0  0  0  0  0  0  0  0  0  0  0  0
   -3.4267   -2.0426    0.9524 H   0  0  0  0  0  0  0  0  0  0  0  0
   -3.0538   -2.7186   -0.6556 H   0  0  0  0  0  0  0  0  0  0  0  0
   -1.3498   -2.2206    0.5184 C   0  0  0  0  0  0  0  0  0  0  0  0
   -0.4997   -2.9426    1.0194 O   0  0  0  0  0  0  0  0  0  0  0  0
   -1.1198   -0.9926    0.0674 N   0  0  0  0  0  0  0  0  0  0  0  0
   -1.8978   -0.4486   -0.2716 H   0  0  0  0  0  0  0  0  0  0  0  0
    0.1693   -0.2866    0.0854 C   0  0  1  0  0  0  0  0  0  0  0  0
    0.9043   -0.8713   -0.4705 H   0  0  0  0  0  0  0  0  0  0  0  0
    0.0106    1.0816   -0.6124 C   0  0  0  0  0  0  0  0  0  0  0  0
    0.8530    1.2288   -1.2905 H   0  0  0  0  0  0  0  0  0  0  0  0
   -0.9016    1.0667   -1.2130 H   0  0  0  0  0  0  0  0  0  0  0  0
   -0.0319    2.2839    0.3437 C   0  0  0  0  0  0  0  0  0  0  0  0
   -1.0522    3.0123    0.3453 O   0  5  0  0  0  0  0  0  0  0  0  0
    0.9755    2.4765    1.0580 O   0  0  0  0  0  0  0  0  0  0  0  0
    0.6664   -0.1450    1.5428 C   0  0  0  0  0  0  0  0  0  0  0  0
    1.8485   -0.3724    1.8265 O   0  0  0  0  0  0  0  0  0  0  0  0
   -0.2161    0.2434    2.4686 N   0  0  0  0  0  0  0  0  0  0  0  0
   -1.1850    0.3219    2.1537 H   0  0  0  0  0  0  0  0  0  0  0  0
    0.0735    0.4128    3.8885 C   0  0  0  0  0  0  0  0  0  0  0  0
    1.0159    0.9483    4.0105 H   0  0  0  0  0  0  0  0  0  0  0  0
   -0.7315    0.9748    4.3613 H   0  0  0  0  0  0  0  0  0  0  0  0
    0.1564   -0.5677    4.3577 H   0  0  0  0  0  0  0  0  0  0  0  0
  5  6  2  0  0  0  0
  5  7  1  0  0  0  0
  2  3  1  0  0  0  0
  2  4  1  0  0  0  0
  2  5  1  0  0  0  0
  1  2  1  0  0  0  0
 17 18  2  0  0  0  0
 17 19  1  0  0  0  0
 14 15  1  0  0  0  0
 14 16  2  0  0  0  0
 11 12  1  0  0  0  0
 11 13  1  0  0  0  0
 11 14  1  0  0  0  0
  9 10  1  0  0  0  0
  9 11  1  0  0  0  0
  9 17  1  0  0  0  0
  7  8  1  0  0  0  0
  7  9  1  0  0  0  0
 21 22  1  0  0  0  0
 21 23  1  0  0  0  0
 21 24  1  0  0  0  0
 19 20  1  0  0  0  0
 19 21  1  0  0  0  0
M  CHG  1  15  -1
M  END
$$$$
default_name
  -OEChem-02102213163D

 24 23  0     1  0  0  0  0  0999 V2000
   -2.8347   -3.7166    0.8034 H   0  0  0  0  0  0  0  0  0  0  0  0
   -2.7728   -2.7096    0.3954 C   0  0  0  0  0  0  0  0  0  0  0  0
   -3.4267   -2.0426    0.9524 H   0  0  0  0  0  0  0  0  0  0  0  0
   -3.0538   -2.7186   -0.6556 H   0  0  0  0  0  0  0  0  0  0  0  0
   -1.3498   -2.2206    0.5184 C   0  0  0  0  0  0  0  0  0  0  0  0
   -0.4997   -2.9426    1.0194 O   0  0  0  0  0  0  0  0  0  0  0  0
   -1.1198   -0.9926    0.0674 N   0  0  0  0  0  0  0  0  0  0  0  0
   -1.8978   -0.4486   -0.2716 H   0  0  0  0  0  0  0  0  0  0  0  0
    0.1693   -0.2866    0.0854 C   0  0  1  0  0  0  0  0  0  0  0  0
    0.9043   -0.8713   -0.4705 H   0  0  0  0  0  0  0  0  0  0  0  0
    0.0106    1.0816   -0.6124 C   0  0  0  0  0  0  0  0  0  0  0  0
    0.8530    1.2288   -1.2905 H   0  0  0  0  0  0  0  0  0  0  0  0
   -0.9016    1.0667   -1.2130 H   0  0  0  0  0  0  0  0  0  0  0  0
   -0.0319    2.2839    0.3437 C   0  0  0  0  0  0  0  0  0  0  0  0
   -1.1350    2.8392    0.5593 O   0  5  0  0  0  0  0  0  0  0  0  0
    1.0543    2.6524    0.8403 O   0  0  0  0  0  0  0  0  0  0  0  0
    0.6664   -0.1450    1.5428 C   0  0  0  0  0  0  0  0  0  0  0  0
    1.8485   -0.3724    1.8265 O   0  0  0  0  0  0  0  0  0  0  0  0
   -0.2161    0.2434    2.4686 N   0  0  0  0  0  0  0  0  0  0  0  0
   -1.1850    0.3219    2.1537 H   0  0  0  0  0  0  0  0  0  0  0  0
    0.0735    0.4128    3.8885 C   0  0  0  0  0  0  0  0  0  0  0  0
    1.0159    0.9483    4.0105 H   0  0  0  0  0  0  0  0  0  0  0  0
   -0.7315    0.9748    4.3613 H   0  0  0  0  0  0  0  0  0  0  0  0
    0.1564   -0.5677    4.3577 H   0  0  0  0  0  0  0  0  0  0  0  0
  5  6  2  0  0  0  0
  5  7  1  0  0  0  0
  2  3  1  0  0  0  0
  2  4  1  0  0  0  0
  2  5  1  0  0  0  0
  1  2  1  0  0  0  0
 17 18  2  0  0  0  0
 17 19  1  0  0  0  0
 14 15  1  0  0  0  0
 14 16  2  0  0  0  0
 11 12  1  0  0  0  0
 11 13  1  0  0  0  0
 11 14  1  0  0  0  0
  9 10  1  0  0  0  0
  9 11  1  0  0  0  0
  9 17  1  0  0  0  0
  7  8  1  0  0  0  0
  7  9  1  0  0  0  0
 21 22  1  0  0  0  0
 21 23  1  0  0  0  0
 21 24  1  0  0  0  0
 19 20  1  0  0  0  0
 19 21  1  0  0  0  0
M  CHG  1  15  -1
M  END
$$$$
default_name
  -OEChem-02102213163D

 24 23  0     1  0  0  0  0  0999 V2000
   -2.8347   -3.7166    0.8034 H   0  0  0  0  0  0  0  0  0  0  0  0
   -2.7728   -2.7096    0.3954 C   0  0  0  0  0  0  0  0  0  0  0  0
   -3.4267   -2.0426    0.9524 H   0  0  0  0  0  0  0  0  0  0  0  0
   -3.0538   -2.7186   -0.6556 H   0  0  0  0  0  0  0  0  0  0  0  0
   -1.3498   -2.2206    0.5184 C   0  0  0  0  0  0  0  0  0  0  0  0
   -0.4997   -2.9426    1.0194 O   0  0  0  0  0  0  0  0  0  0  0  0
   -1.1198   -0.9926    0.0674 N   0  0  0  0  0  0  0  0  0  0  0  0
   -1.8978   -0.4486   -0.2716 H   0  0  0  0  0  0  0  0  0  0  0  0
    0.1693   -0.2866    0.0854 C   0  0  1  0  0  0  0  0  0  0  0  0
    0.9043   -0.8713   -0.4705 H   0  0  0  0  0  0  0  0  0  0  0  0
    0.0106    1.0816   -0.6124 C   0  0  0  0  0  0  0  0  0  0  0  0
    0.8530    1.2288   -1.2905 H   0  0  0  0  0  0  0  0  0  0  0  0
   -0.9016    1.0667   -1.2130 H   0  0  0  0  0  0  0  0  0  0  0  0
   -0.0319    2.2839    0.3437 C   0  0  0  0  0  0  0  0  0  0  0  0
   -1.1437    2.6601    0.7841 O   0  5  0  0  0  0  0  0  0  0  0  0
    1.0579    2.8334    0.6129 O   0  0  0  0  0  0  0  0  0  0  0  0
    0.6664   -0.1450    1.5428 C   0  0  0  0  0  0  0  0  0  0  0  0
    1.8485   -0.3724    1.8265 O   0  0  0  0  0  0  0  0  0  0  0  0
   -0.2161    0.2434    2.4686 N   0  0  0  0  0  0  0  0  0  0  0  0
   -1.1850    0.3219    2.1537 H   0  0  0  0  0  0  0  0  0  0  0  0
    0.0735    0.4128    3.8885 C   0  0  0  0  0  0  0  0  0  0  0  0
    1.0159    0.9483    4.0105 H   0  0  0  0  0  0  0  0  0  0  0  0
   -0.7315    0.9748    4.3613 H   0  0  0  0  0  0  0  0  0  0  0  0
    0.1564   -0.5677    4.3577 H   0  0  0  0  0  0  0  0  0  0  0  0
  5  6  2  0  0  0  0
  5  7  1  0  0  0  0
  2  3  1  0  0  0  0
  2  4  1  0  0  0  0
  2  5  1  0  0  0  0
  1  2  1  0  0  0  0
 17 18  2  0  0  0  0
 17 19  1  0  0  0  0
 14 15  1  0  0  0  0
 14 16  2  0  0  0  0
 11 12  1  0  0  0  0
 11 13  1  0  0  0  0
 11 14  1  0  0  0  0
  9 10  1  0  0  0  0
  9 11  1  0  0  0  0
  9 17  1  0  0  0  0
  7  8  1  0  0  0  0
  7  9  1  0  0  0  0
 21 22  1  0  0  0  0
 21 23  1  0  0  0  0
 21 24  1  0  0  0  0
 19 20  1  0  0  0  0
 19 21  1  0  0  0  0
M  CHG  1  15  -1
M  END
$$$$
default_name
  -OEChem-02102213163D

 24 23  0     1  0  0  0  0  0999 V2000
   -2.8347   -3.7166    0.8034 H   0  0  0  0  0  0  0  0  0  0  0  0
   -2.7728   -2.7096    0.3954 C   0  0  0  0  0  0  0  0  0  0  0  0
   -3.4267   -2.0426    0.9524 H   0  0  0  0  0  0  0  0  0  0  0  0
   -3.0538   -2.7186   -0.6556 H   0  0  0  0  0  0  0  0  0  0  0  0
   -1.3498   -2.2206    0.5184 C   0  0  0  0  0  0  0  0  0  0  0  0
   -0.4997   -2.9426    1.0194 O   0  0  0  0  0  0  0  0  0  0  0  0
   -1.1198   -0.9926    0.0674 N   0  0  0  0  0  0  0  0  0  0  0  0
   -1.8978   -0.4486   -0.2716 H   0  0  0  0  0  0  0  0  0  0  0  0
    0.1693   -0.2866    0.0854 C   0  0  1  0  0  0  0  0  0  0  0  0
    0.9043   -0.8713   -0.4705 H   0  0  0  0  0  0  0  0  0  0  0  0
    0.0106    1.0816   -0.6124 C   0  0  0  0  0  0  0  0  0  0  0  0
    0.8530    1.2288   -1.2905 H   0  0  0  0  0  0  0  0  0  0  0  0
   -0.9016    1.0667   -1.2130 H   0  0  0  0  0  0  0  0  0  0  0  0
   -0.0319    2.2839    0.3437 C   0  0  0  0  0  0  0  0  0  0  0  0
   -1.0778    2.4874    1.0042 O   0  5  0  0  0  0  0  0  0  0  0  0
    0.9863    3.0073    0.3911 O   0  0  0  0  0  0  0  0  0  0  0  0
    0.6664   -0.1450    1.5428 C   0  0  0  0  0  0  0  0  0  0  0  0
    1.8485   -0.3724    1.8265 O   0  0  0  0  0  0  0  0  0  0  0  0
   -0.2161    0.2434    2.4686 N   0  0  0  0  0  0  0  0  0  0  0  0
   -1.1850    0.3219    2.1537 H   0  0  0  0  0  0  0  0  0  0  0  0
    0.0735    0.4128    3.8885 C   0  0  0  0  0  0  0  0  0  0  0  0
    1.0159    0.9483    4.0105 H   0  0  0  0  0  0  0  0  0  0  0  0
   -0.7315    0.9748    4.3613 H   0  0  0  0  0  0  0  0  0  0  0  0
    0.1564   -0.5677    4.3577 H   0  0  0  0  0  0  0  0  0  0  0  0
  5  6  2  0  0  0  0
  5  7  1  0  0  0  0
  2  3  1  0  0  0  0
  2  4  1  0  0  0  0
  2  5  1  0  0  0  0
  1  2  1  0  0  0  0
 17 18  2  0  0  0  0
 17 19  1  0  0  0  0
 14 15  1  0  0  0  0
 14 16  2  0  0  0  0
 11 12  1  0  0  0  0
 11 13  1  0  0  0  0
 11 14  1  0  0  0  0
  9 10  1  0  0  0  0
  9 11  1  0  0  0  0
  9 17  1  0  0  0  0
  7  8  1  0  0  0  0
  7  9  1  0  0  0  0
 21 22  1  0  0  0  0
 21 23  1  0  0  0  0
 21 24  1  0  0  0  0
 19 20  1  0  0  0  0
 19 21  1  0  0  0  0
M  CHG  1  15  -1
M  END
$$$$
default_name
  -OEChem-02102213163D

 24 23  0     1  0  0  0  0  0999 V2000
   -2.8347   -3.7166    0.8034 H   0  0  0  0  0  0  0  0  0  0  0  0
   -2.7728   -2.7096    0.3954 C   0  0  0  0  0  0  0  0  0  0  0  0
   -3.4267   -2.0426    0.9524 H   0  0  0  0  0  0  0  0  0  0  0  0
   -3.0538   -2.7186   -0.6556 H   0  0  0  0  0  0  0  0  0  0  0  0
   -1.3498   -2.2206    0.5184 C   0  0  0  0  0  0  0  0  0  0  0  0
   -0.4997   -2.9426    1.0194 O   0  0  0  0  0  0  0  0  0  0  0  0
   -1.1198   -0.9926    0.0674 N   0  0  0  0  0  0  0  0  0  0  0  0
   -1.8978   -0.4486   -0.2716 H   0  0  0  0  0  0  0  0  0  0  0  0
    0.1693   -0.2866    0.0854 C   0  0  1  0  0  0  0  0  0  0  0  0
    0.9043   -0.8713   -0.4705 H   0  0  0  0  0  0  0  0  0  0  0  0
    0.0106    1.0816   -0.6124 C   0  0  0  0  0  0  0  0  0  0  0  0
    0.8530    1.2288   -1.2905 H   0  0  0  0  0  0  0  0  0  0  0  0
   -0.9016    1.0667   -1.2130 H   0  0  0  0  0  0  0  0  0  0  0  0
   -0.0319    2.2839    0.3437 C   0  0  0  0  0  0  0  0  0  0  0  0
   -0.9417    2.3327    1.2048 O   0  5  0  0  0  0  0  0  0  0  0  0
    0.8442    3.1620    0.1902 O   0  0  0  0  0  0  0  0  0  0  0  0
    0.6664   -0.1450    1.5428 C   0  0  0  0  0  0  0  0  0  0  0  0
    1.8485   -0.3724    1.8265 O   0  0  0  0  0  0  0  0  0  0  0  0
   -0.2161    0.2434    2.4686 N   0  0  0  0  0  0  0  0  0  0  0  0
   -1.1850    0.3219    2.1537 H   0  0  0  0  0  0  0  0  0  0  0  0
    0.0735    0.4128    3.8885 C   0  0  0  0  0  0  0  0  0  0  0  0
    1.0159    0.9483    4.0105 H   0  0  0  0  0  0  0  0  0  0  0  0
   -0.7315    0.9748    4.3613 H   0  0  0  0  0  0  0  0  0  0  0  0
    0.1564   -0.5677    4.3577 H   0  0  0  0  0  0  0  0  0  0  0  0
  5  6  2  0  0  0  0
  5  7  1  0  0  0  0
  2  3  1  0  0  0  0
  2  4  1  0  0  0  0
  2  5  1  0  0  0  0
  1  2  1  0  0  0  0
 17 18  2  0  0  0  0
 17 19  1  0  0  0  0
 14 15  1  0  0  0  0
 14 16  2  0  0  0  0
 11 12  1  0  0  0  0
 11 13  1  0  0  0  0
 11 14  1  0  0  0  0
  9 10  1  0  0  0  0
  9 11  1  0  0  0  0
  9 17  1  0  0  0  0
  7  8  1  0  0  0  0
  7  9  1  0  0  0  0
 21 22  1  0  0  0  0
 21 23  1  0  0  0  0
 21 24  1  0  0  0  0
 19 20  1  0  0  0  0
 19 21  1  0  0  0  0
M  CHG  1  15  -1
M  END
$$$$
default_name
  -OEChem-02102213163D

 24 23  0     1  0  0  0  0  0999 V2000
   -2.8347   -3.7166    0.8034 H   0  0  0  0  0  0  0  0  0  0  0  0
   -2.7728   -2.7096    0.3954 C   0  0  0  0  0  0  0  0  0  0  0  0
   -3.4267   -2.0426    0.9524 H   0  0  0  0  0  0  0  0  0  0  0  0
   -3.0538   -2.7186   -0.6556 H   0  0  0  0  0  0  0  0  0  0  0  0
   -1.3498   -2.2206    0.5184 C   0  0  0  0  0  0  0  0  0  0  0  0
   -0.4997   -2.9426    1.0194 O   0  0  0  0  0  0  0  0  0  0  0  0
   -1.1198   -0.9926    0.0674 N   0  0  0  0  0  0  0  0  0  0  0  0
   -1.8978   -0.4486   -0.2716 H   0  0  0  0  0  0  0  0  0  0  0  0
    0.1693   -0.2866    0.0854 C   0  0  1  0  0  0  0  0  0  0  0  0
    0.9043   -0.8713   -0.4705 H   0  0  0  0  0  0  0  0  0  0  0  0
    0.0106    1.0816   -0.6124 C   0  0  0  0  0  0  0  0  0  0  0  0
    0.8530    1.2288   -1.2905 H   0  0  0  0  0  0  0  0  0  0  0  0
   -0.9016    1.0667   -1.2130 H   0  0  0  0  0  0  0  0  0  0  0  0
   -0.0319    2.2839    0.3437 C   0  0  0  0  0  0  0  0  0  0  0  0
   -0.7447    2.2067    1.3720 O   0  5  0  0  0  0  0  0  0  0  0  0
    0.6413    3.2872    0.0237 O   0  0  0  0  0  0  0  0  0  0  0  0
    0.6664   -0.1450    1.5428 C   0  0  0  0  0  0  0  0  0  0  0  0
    1.8485   -0.3724    1.8265 O   0  0  0  0  0  0  0  0  0  0  0  0
   -0.2161    0.2434    2.4686 N   0  0  0  0  0  0  0  0  0  0  0  0
   -1.1850    0.3219    2.1537 H   0  0  0  0  0  0  0  0  0  0  0  0
    0.0735    0.4128    3.8885 C   0  0  0  0  0  0  0  0  0  0  0  0
    1.0159    0.9483    4.0105 H   0  0  0  0  0  0  0  0  0  0  0  0
   -0.7315    0.9748    4.3613 H   0  0  0  0  0  0  0  0  0  0  0  0
    0.1564   -0.5677    4.3577 H   0  0  0  0  0  0  0  0  0  0  0  0
  5  6  2  0  0  0  0
  5  7  1  0  0  0  0
  2  3  1  0  0  0  0
  2  4  1  0  0  0  0
  2  5  1  0  0  0  0
  1  2  1  0  0  0  0
 17 18  2  0  0  0  0
 17 19  1  0  0  0  0
 14 15  1  0  0  0  0
 14 16  2  0  0  0  0
 11 12  1  0  0  0  0
 11 13  1  0  0  0  0
 11 14  1  0  0  0  0
  9 10  1  0  0  0  0
  9 11  1  0  0  0  0
  9 17  1  0  0  0  0
  7  8  1  0  0  0  0
  7  9  1  0  0  0  0
 21 22  1  0  0  0  0
 21 23  1  0  0  0  0
 21 24  1  0  0  0  0
 19 20  1  0  0  0  0
 19 21  1  0  0  0  0
M  CHG  1  15  -1
M  END
$$$$
default_name
  -OEChem-02102213163D

 24 23  0     1  0  0  0  0  0999 V2000
   -2.8347   -3.7166    0.8034 H   0  0  0  0  0  0  0  0  0  0  0  0
   -2.7728   -2.7096    0.3954 C   0  0  0  0  0  0  0  0  0  0  0  0
   -3.4267   -2.0426    0.9524 H   0  0  0  0  0  0  0  0  0  0  0  0
   -3.0538   -2.7186   -0.6556 H   0  0  0  0  0  0  0  0  0  0  0  0
   -1.3498   -2.2206    0.5184 C   0  0  0  0  0  0  0  0  0  0  0  0
   -0.4997   -2.9426    1.0194 O   0  0  0  0  0  0  0  0  0  0  0  0
   -1.1198   -0.9926    0.0674 N   0  0  0  0  0  0  0  0  0  0  0  0
   -1.8978   -0.4486   -0.2716 H   0  0  0  0  0  0  0  0  0  0  0  0
    0.1693   -0.2866    0.0854 C   0  0  1  0  0  0  0  0  0  0  0  0
    0.9043   -0.8713   -0.4705 H   0  0  0  0  0  0  0  0  0  0  0  0
    0.0106    1.0816   -0.6124 C   0  0  0  0  0  0  0  0  0  0  0  0
    0.8530    1.2288   -1.2905 H   0  0  0  0  0  0  0  0  0  0  0  0
   -0.9016    1.0667   -1.2130 H   0  0  0  0  0  0  0  0  0  0  0  0
   -0.0319    2.2839    0.3437 C   0  0  0  0  0  0  0  0  0  0  0  0
   -0.5003    2.1179    1.4946 O   0  5  0  0  0  0  0  0  0  0  0  0
    0.3915    3.3743   -0.0968 O   0  0  0  0  0  0  0  0  0  0  0  0
    0.6664   -0.1450    1.5428 C   0  0  0  0  0  0  0  0  0  0  0  0
    1.8485   -0.3724    1.8265 O   0  0  0  0  0  0  0  0  0  0  0  0
   -0.2161    0.2434    2.4686 N   0  0  0  0  0  0  0  0  0  0  0  0
   -1.1850    0.3219    2.1537 H   0  0  0  0  0  0  0  0  0  0  0  0
    0.0735    0.4128    3.8885 C   0  0  0  0  0  0  0  0  0  0  0  0
    1.0159    0.9483    4.0105 H   0  0  0  0  0  0  0  0  0  0  0  0
   -0.7315    0.9748    4.3613 H   0  0  0  0  0  0  0  0  0  0  0  0
    0.1564   -0.5677    4.3577 H   0  0  0  0  0  0  0  0  0  0  0  0
  5  6  2  0  0  0  0
  5  7  1  0  0  0  0
  2  3  1  0  0  0  0
  2  4  1  0  0  0  0
  2  5  1  0  0  0  0
  1  2  1  0  0  0  0
 17 18  2  0  0  0  0
 17 19  1  0  0  0  0
 14 15  1  0  0  0  0
 14 16  2  0  0  0  0
 11 12  1  0  0  0  0
 11 13  1  0  0  0  0
 11 14  1  0  0  0  0
  9 10  1  0  0  0  0
  9 11  1  0  0  0  0
  9 17  1  0  0  0  0
  7  8  1  0  0  0  0
  7  9  1  0  0  0  0
 21 22  1  0  0  0  0
 21 23  1  0  0  0  0
 21 24  1  0  0  0  0
 19 20  1  0  0  0  0
 19 21  1  0  0  0  0
M  CHG  1  15  -1
M  END
$$$$
default_name
  -OEChem-02102213163D

 24 23  0     1  0  0  0  0  0999 V2000
   -2.8347   -3.7166    0.8034 H   0  0  0  0  0  0  0  0  0  0  0  0
   -2.7728   -2.7096    0.3954 C   0  0  0  0  0  0  0  0  0  0  0  0
   -3.4267   -2.0426    0.9524 H   0  0  0  0  0  0  0  0  0  0  0  0
   -3.0538   -2.7186   -0.6556 H   0  0  0  0  0  0  0  0  0  0  0  0
   -1.3498   -2.2206    0.5184 C   0  0  0  0  0  0  0  0  0  0  0  0
   -0.4997   -2.9426    1.0194 O   0  0  0  0  0  0  0  0  0  0  0  0
   -1.1198   -0.9926    0.0674 N   0  0  0  0  0  0  0  0  0  0  0  0
   -1.8978   -0.4486   -0.2716 H   0  0  0  0  0  0  0  0  0  0  0  0
    0.1693   -0.2866    0.0854 C   0  0  1  0  0  0  0  0  0  0  0  0
    0.9043   -0.8713   -0.4705 H   0  0  0  0  0  0  0  0  0  0  0  0
    0.0106    1.0816   -0.6124 C   0  0  0  0  0  0  0  0  0  0  0  0
    0.8530    1.2288   -1.2905 H   0  0  0  0  0  0  0  0  0  0  0  0
   -0.9016    1.0667   -1.2130 H   0  0  0  0  0  0  0  0  0  0  0  0
   -0.0319    2.2839    0.3437 C   0  0  0  0  0  0  0  0  0  0  0  0
   -0.2251    2.0723    1.5641 O   0  5  0  0  0  0  0  0  0  0  0  0
    0.1118    3.4173   -0.1633 O   0  0  0  0  0  0  0  0  0  0  0  0
    0.6664   -0.1450    1.5428 C   0  0  0  0  0  0  0  0  0  0  0  0
    1.8485   -0.3724    1.8265 O   0  0  0  0  0  0  0  0  0  0  0  0
   -0.2161    0.2434    2.4686 N   0  0  0  0  0  0  0  0  0  0  0  0
   -1.1850    0.3219    2.1537 H   0  0  0  0  0  0  0  0  0  0  0  0
    0.0735    0.4128    3.8885 C   0  0  0  0  0  0  0  0  0  0  0  0
    1.0159    0.9483    4.0105 H   0  0  0  0  0  0  0  0  0  0  0  0
   -0.7315    0.9748    4.3613 H   0  0  0  0  0  0  0  0  0  0  0  0
    0.1564   -0.5677    4.3577 H   0  0  0  0  0  0  0  0  0  0  0  0
  5  6  2  0  0  0  0
  5  7  1  0  0  0  0
  2  3  1  0  0  0  0
  2  4  1  0  0  0  0
  2  5  1  0  0  0  0
  1  2  1  0  0  0  0
 17 18  2  0  0  0  0
 17 19  1  0  0  0  0
 14 15  1  0  0  0  0
 14 16  2  0  0  0  0
 11 12  1  0  0  0  0
 11 13  1  0  0  0  0
 11 14  1  0  0  0  0
  9 10  1  0  0  0  0
  9 11  1  0  0  0  0
  9 17  1  0  0  0  0
  7  8  1  0  0  0  0
  7  9  1  0  0  0  0
 21 22  1  0  0  0  0
 21 23  1  0  0  0  0
 21 24  1  0  0  0  0
 19 20  1  0  0  0  0
 19 21  1  0  0  0  0
M  CHG  1  15  -1
M  END
$$$$
default_name
  -OEChem-02102213163D

 24 23  0     1  0  0  0  0  0999 V2000
   -2.8347   -3.7166    0.8034 H   0  0  0  0  0  0  0  0  0  0  0  0
   -2.7728   -2.7096    0.3954 C   0  0  0  0  0  0  0  0  0  0  0  0
   -3.4267   -2.0426    0.9524 H   0  0  0  0  0  0  0  0  0  0  0  0
   -3.0538   -2.7186   -0.6556 H   0  0  0  0  0  0  0  0  0  0  0  0
   -1.3498   -2.2206    0.5184 C   0  0  0  0  0  0  0  0  0  0  0  0
   -0.4997   -2.9426    1.0194 O   0  0  0  0  0  0  0  0  0  0  0  0
   -1.1198   -0.9926    0.0674 N   0  0  0  0  0  0  0  0  0  0  0  0
   -1.8978   -0.4486   -0.2716 H   0  0  0  0  0  0  0  0  0  0  0  0
    0.1693   -0.2866    0.0854 C   0  0  1  0  0  0  0  0  0  0  0  0
    0.9043   -0.8713   -0.4705 H   0  0  0  0  0  0  0  0  0  0  0  0
    0.0106    1.0816   -0.6124 C   0  0  0  0  0  0  0  0  0  0  0  0
    0.8530    1.2288   -1.2905 H   0  0  0  0  0  0  0  0  0  0  0  0
   -0.9016    1.0667   -1.2130 H   0  0  0  0  0  0  0  0  0  0  0  0
   -0.0319    2.2839    0.3437 C   0  0  0  0  0  0  0  0  0  0  0  0
    0.0621    2.0731    1.5759 O   0  5  0  0  0  0  0  0  0  0  0  0
   -0.1788    3.4133   -0.1712 O   0  0  0  0  0  0  0  0  0  0  0  0
    0.6664   -0.1450    1.5428 C   0  0  0  0  0  0  0  0  0  0  0  0
    1.8485   -0.3724    1.8265 O   0  0  0  0  0  0  0  0  0  0  0  0
   -0.2161    0.2434    2.4686 N   0  0  0  0  0  0  0  0  0  0  0  0
   -1.1850    0.3219    2.1537 H   0  0  0  0  0  0  0  0  0  0  0  0
    0.0735    0.4128    3.8885 C   0  0  0  0  0  0  0  0  0  0  0  0
    1.0159    0.9483    4.0105 H   0  0  0  0  0  0  0  0  0  0  0  0
   -0.7315    0.9748    4.3613 H   0  0  0  0  0  0  0  0  0  0  0  0
    0.1564   -0.5677    4.3577 H   0  0  0  0  0  0  0  0  0  0  0  0
  5  6  2  0  0  0  0
  5  7  1  0  0  0  0
  2  3  1  0  0  0  0
  2  4  1  0  0  0  0
  2  5  1  0  0  0  0
  1  2  1  0  0  0  0
 17 18  2  0  0  0  0
 17 19  1  0  0  0  0
 14 15  1  0  0  0  0
 14 16  2  0  0  0  0
 11 12  1  0  0  0  0
 11 13  1  0  0  0  0
 11 14  1  0  0  0  0
  9 10  1  0  0  0  0
  9 11  1  0  0  0  0
  9 17  1  0  0  0  0
  7  8  1  0  0  0  0
  7  9  1  0  0  0  0
 21 22  1  0  0  0  0
 21 23  1  0  0  0  0
 21 24  1  0  0  0  0
 19 20  1  0  0  0  0
 19 21  1  0  0  0  0
M  CHG  1  15  -1
M  END
$$$$
default_name
  -OEChem-02102213163D

 24 23  0     1  0  0  0  0  0999 V2000
   -2.8347   -3.7166    0.8034 H   0  0  0  0  0  0  0  0  0  0  0  0
   -2.7728   -2.7096    0.3954 C   0  0  0  0  0  0  0  0  0  0  0  0
   -3.4267   -2.0426    0.9524 H   0  0  0  0  0  0  0  0  0  0  0  0
   -3.0538   -2.7186   -0.6556 H   0  0  0  0  0  0  0  0  0  0  0  0
   -1.3498   -2.2206    0.5184 C   0  0  0  0  0  0  0  0  0  0  0  0
   -0.4997   -2.9426    1.0194 O   0  0  0  0  0  0  0  0  0  0  0  0
   -1.1198   -0.9926    0.0674 N   0  0  0  0  0  0  0  0  0  0  0  0
   -1.8978   -0.4486   -0.2716 H   0  0  0  0  0  0  0  0  0  0  0  0
    0.1693   -0.2866    0.0854 C   0  0  1  0  0  0  0  0  0  0  0  0
    0.9043   -0.8713   -0.4705 H   0  0  0  0  0  0  0  0  0  0  0  0
    0.0106    1.0816   -0.6124 C   0  0  0  0  0  0  0  0  0  0  0  0
    0.8530    1.2288   -1.2905 H   0  0  0  0  0  0  0  0  0  0  0  0
   -0.9016    1.0667   -1.2130 H   0  0  0  0  0  0  0  0  0  0  0  0
   -0.0319    2.2839    0.3437 C   0  0  0  0  0  0  0  0  0  0  0  0
    0.3418    2.1202    1.5291 O   0  5  0  0  0  0  0  0  0  0  0  0
   -0.4605    3.3626   -0.1200 O   0  0  0  0  0  0  0  0  0  0  0  0
    0.6664   -0.1450    1.5428 C   0  0  0  0  0  0  0  0  0  0  0  0
    1.8485   -0.3724    1.8265 O   0  0  0  0  0  0  0  0  0  0  0  0
   -0.2161    0.2434    2.4686 N   0  0  0  0  0  0  0  0  0  0  0  0
   -1.1850    0.3219    2.1537 H   0  0  0  0  0  0  0  0  0  0  0  0
    0.0735    0.4128    3.8885 C   0  0  0  0  0  0  0  0  0  0  0  0
    1.0159    0.9483    4.0105 H   0  0  0  0  0  0  0  0  0  0  0  0
   -0.7315    0.9748    4.3613 H   0  0  0  0  0  0  0  0  0  0  0  0
    0.1564   -0.5677    4.3577 H   0  0  0  0  0  0  0  0  0  0  0  0
  5  6  2  0  0  0  0
  5  7  1  0  0  0  0
  2  3  1  0  0  0  0
  2  4  1  0  0  0  0
  2  5  1  0  0  0  0
  1  2  1  0  0  0  0
 17 18  2  0  0  0  0
 17 19  1  0  0  0  0
 14 15  1  0  0  0  0
 14 16  2  0  0  0  0
 11 12  1  0  0  0  0
 11 13  1  0  0  0  0
 11 14  1  0  0  0  0
  9 10  1  0  0  0  0
  9 11  1  0  0  0  0
  9 17  1  0  0  0  0
  7  8  1  0  0  0  0
  7  9  1  0  0  0  0
 21 22  1  0  0  0  0
 21 23  1  0  0  0  0
 21 24  1  0  0  0  0
 19 20  1  0  0  0  0
 19 21  1  0  0  0  0
M  CHG  1  15  -1
M  END
$$$$
default_name
  -OEChem-02102213163D

 24 23  0     1  0  0  0  0  0999 V2000
   -2.8347   -3.7166    0.8034 H   0  0  0  0  0  0  0  0  0  0  0  0
   -2.7728   -2.7096    0.3954 C   0  0  0  0  0  0  0  0  0  0  0  0
   -3.4267   -2.0426    0.9524 H   0  0  0  0  0  0  0  0  0  0  0  0
   -3.0538   -2.7186   -0.6556 H   0  0  0  0  0  0  0  0  0  0  0  0
   -1.3498   -2.2206    0.5184 C   0  0  0  0  0  0  0  0  0  0  0  0
   -0.4997   -2.9426    1.0194 O   0  0  0  0  0  0  0  0  0  0  0  0
   -1.1198   -0.9926    0.0674 N   0  0  0  0  0  0  0  0  0  0  0  0
   -1.8978   -0.4486   -0.2716 H   0  0  0  0  0  0  0  0  0  0  0  0
    0.1693   -0.2866    0.0854 C   0  0  1  0  0  0  0  0  0  0  0  0
    0.9043   -0.8713   -0.4705 H   0  0  0  0  0  0  0  0  0  0  0  0
    0.0106    1.0816   -0.6124 C   0  0  0  0  0  0  0  0  0  0  0  0
    0.8530    1.2288   -1.2905 H   0  0  0  0  0  0  0  0  0  0  0  0
   -0.9016    1.0667   -1.2130 H   0  0  0  0  0  0  0  0  0  0  0  0
   -0.0319    2.2839    0.3437 C   0  0  0  0  0  0  0  0  0  0  0  0
    0.5949    2.2104    1.4269 O   0  5  0  0  0  0  0  0  0  0  0  0
   -0.7140    3.2686   -0.0131 O   0  0  0  0  0  0  0  0  0  0  0  0
    0.6664   -0.1450    1.5428 C   0  0  0  0  0  0  0  0  0  0  0  0
    1.8485   -0.3724    1.8265 O   0  0  0  0  0  0  0  0  0  0  0  0
   -0.2161    0.2434    2.4686 N   0  0  0  0  0  0  0  0  0  0  0  0
   -1.1850    0.3219    2.1537 H   0  0  0  0  0  0  0  0  0  0  0  0
    0.0735    0.4128    3.8885 C   0  0  0  0  0  0  0  0  0  0  0  0
    1.0159    0.9483    4.0105 H   0  0  0  0  0  0  0  0  0  0  0  0
   -0.7315    0.9748    4.3613 H   0  0  0  0  0  0  0  0  0  0  0  0
    0.1564   -0.5677    4.3577 H   0  0  0  0  0  0  0  0  0  0  0  0
  5  6  2  0  0  0  0
  5  7  1  0  0  0  0
  2  3  1  0  0  0  0
  2  4  1  0  0  0  0
  2  5  1  0  0  0  0
  1  2  1  0  0  0  0
 17 18  2  0  0  0  0
 17 19  1  0  0  0  0
 14 15  1  0  0  0  0
 14 16  2  0  0  0  0
 11 12  1  0  0  0  0
 11 13  1  0  0  0  0
 11 14  1  0  0  0  0
  9 10  1  0  0  0  0
  9 11  1  0  0  0  0
  9 17  1  0  0  0  0
  7  8  1  0  0  0  0
  7  9  1  0  0  0  0
 21 22  1  0  0  0  0
 21 23  1  0  0  0  0
 21 24  1  0  0  0  0
 19 20  1  0  0  0  0
 19 21  1  0  0  0  0
M  CHG  1  15  -1
M  END
$$$$
default_name
  -OEChem-02102213163D

 24 23  0     1  0  0  0  0  0999 V2000
   -2.8347   -3.7166    0.8034 H   0  0  0  0  0  0  0  0  0  0  0  0
   -2.7728   -2.7096    0.3954 C   0  0  0  0  0  0  0  0  0  0  0  0
   -3.4267   -2.0426    0.9524 H   0  0  0  0  0  0  0  0  0  0  0  0
   -3.0538   -2.7186   -0.6556 H   0  0  0  0  0  0  0  0  0  0  0  0
   -1.3498   -2.2206    0.5184 C   0  0  0  0  0  0  0  0  0  0  0  0
   -0.4997   -2.9426    1.0194 O   0  0  0  0  0  0  0  0  0  0  0  0
   -1.1198   -0.9926    0.0674 N   0  0  0  0  0  0  0  0  0  0  0  0
   -1.8978   -0.4486   -0.2716 H   0  0  0  0  0  0  0  0  0  0  0  0
    0.1693   -0.2866    0.0854 C   0  0  1  0  0  0  0  0  0  0  0  0
    0.9043   -0.8713   -0.4705 H   0  0  0  0  0  0  0  0  0  0  0  0
    0.0106    1.0816   -0.6124 C   0  0  0  0  0  0  0  0  0  0  0  0
    0.8530    1.2288   -1.2905 H   0  0  0  0  0  0  0  0  0  0  0  0
   -0.9016    1.0667   -1.2130 H   0  0  0  0  0  0  0  0  0  0  0  0
   -0.0319    2.2839    0.3437 C   0  0  0  0  0  0  0  0  0  0  0  0
    0.8042    2.3375    1.2763 O   0  5  0  0  0  0  0  0  0  0  0  0
   -0.9221    3.1378    0.1422 O   0  0  0  0  0  0  0  0  0  0  0  0
    0.6664   -0.1450    1.5428 C   0  0  0  0  0  0  0  0  0  0  0  0
    1.8485   -0.3724    1.8265 O   0  0  0  0  0  0  0  0  0  0  0  0
   -0.2161    0.2434    2.4686 N   0  0  0  0  0  0  0  0  0  0  0  0
   -1.1850    0.3219    2.1537 H   0  0  0  0  0  0  0  0  0  0  0  0
    0.0735    0.4128    3.8885 C   0  0  0  0  0  0  0  0  0  0  0  0
    1.0159    0.9483    4.0105 H   0  0  0  0  0  0  0  0  0  0  0  0
   -0.7315    0.9748    4.3613 H   0  0  0  0  0  0  0  0  0  0  0  0
    0.1564   -0.5677    4.3577 H   0  0  0  0  0  0  0  0  0  0  0  0
  5  6  2  0  0  0  0
  5  7  1  0  0  0  0
  2  3  1  0  0  0  0
  2  4  1  0  0  0  0
  2  5  1  0  0  0  0
  1  2  1  0  0  0  0
 17 18  2  0  0  0  0
 17 19  1  0  0  0  0
 14 15  1  0  0  0  0
 14 16  2  0  0  0  0
 11 12  1  0  0  0  0
 11 13  1  0  0  0  0
 11 14  1  0  0  0  0
  9 10  1  0  0  0  0
  9 11  1  0  0  0  0
  9 17  1  0  0  0  0
  7  8  1  0  0  0  0
  7  9  1  0  0  0  0
 21 22  1  0  0  0  0
 21 23  1  0  0  0  0
 21 24  1  0  0  0  0
 19 20  1  0  0  0  0
 19 21  1  0  0  0  0
M  CHG  1  15  -1
M  END
$$$$
default_name
  -OEChem-02102213163D

 24 23  0     1  0  0  0  0  0999 V2000
   -2.8347   -3.7166    0.8034 H   0  0  0  0  0  0  0  0  0  0  0  0
   -2.7728   -2.7096    0.3954 C   0  0  0  0  0  0  0  0  0  0  0  0
   -3.4267   -2.0426    0.9524 H   0  0  0  0  0  0  0  0  0  0  0  0
   -3.0538   -2.7186   -0.6556 H   0  0  0  0  0  0  0  0  0  0  0  0
   -1.3498   -2.2206    0.5184 C   0  0  0  0  0  0  0  0  0  0  0  0
   -0.4997   -2.9426    1.0194 O   0  0  0  0  0  0  0  0  0  0  0  0
   -1.1198   -0.9926    0.0674 N   0  0  0  0  0  0  0  0  0  0  0  0
   -1.8978   -0.4486   -0.2716 H   0  0  0  0  0  0  0  0  0  0  0  0
    0.1693   -0.2866    0.0854 C   0  0  1  0  0  0  0  0  0  0  0  0
    0.9043   -0.8713   -0.4705 H   0  0  0  0  0  0  0  0  0  0  0  0
    0.0106    1.0816   -0.6124 C   0  0  0  0  0  0  0  0  0  0  0  0
    0.8530    1.2288   -1.2905 H   0  0  0  0  0  0  0  0  0  0  0  0
   -0.9016    1.0667   -1.2130 H   0  0  0  0  0  0  0  0  0  0  0  0
   -0.0319    2.2839    0.3437 C   0  0  0  0  0  0  0  0  0  0  0  0
    0.9554    2.4930    1.0875 O   0  5  0  0  0  0  0  0  0  0  0  0
   -1.0706    2.9791    0.3353 O   0  0  0  0  0  0  0  0  0  0  0  0
    0.6664   -0.1450    1.5428 C   0  0  0  0  0  0  0  0  0  0  0  0
    1.8485   -0.3724    1.8265 O   0  0  0  0  0  0  0  0  0  0  0  0
   -0.2161    0.2434    2.4686 N   0  0  0  0  0  0  0  0  0  0  0  0
   -1.1850    0.3219    2.1537 H   0  0  0  0  0  0  0  0  0  0  0  0
    0.0735    0.4128    3.8885 C   0  0  0  0  0  0  0  0  0  0  0  0
    1.0159    0.9483    4.0105 H   0  0  0  0  0  0  0  0  0  0  0  0
   -0.7315    0.9748    4.3613 H   0  0  0  0  0  0  0  0  0  0  0  0
    0.1564   -0.5677    4.3577 H   0  0  0  0  0  0  0  0  0  0  0  0
  5  6  2  0  0  0  0
  5  7  1  0  0  0  0
  2  3  1  0  0  0  0
  2  4  1  0  0  0  0
  2  5  1  0  0  0  0
  1  2  1  0  0  0  0
 17 18  2  0  0  0  0
 17 19  1  0  0  0  0
 14 15  1  0  0  0  0
 14 16  2  0  0  0  0
 11 12  1  0  0  0  0
 11 13  1  0  0  0  0
 11 14  1  0  0  0  0
  9 10  1  0  0  0  0
  9 11  1  0  0  0  0
  9 17  1  0  0  0  0
  7  8  1  0  0  0  0
  7  9  1  0  0  0  0
 21 22  1  0  0  0  0
 21 23  1  0  0  0  0
 21 24  1  0  0  0  0
 19 20  1  0  0  0  0
 19 21  1  0  0  0  0
M  CHG  1  15  -1
M  END
$$$$
default_name
  -OEChem-02102213163D

 24 23  0     1  0  0  0  0  0999 V2000
   -2.8347   -3.7166    0.8034 H   0  0  0  0  0  0  0  0  0  0  0  0
   -2.7728   -2.7096    0.3954 C   0  0  0  0  0  0  0  0  0  0  0  0
   -3.4267   -2.0426    0.9524 H   0  0  0  0  0  0  0  0  0  0  0  0
   -3.0538   -2.7186   -0.6556 H   0  0  0  0  0  0  0  0  0  0  0  0
   -1.3498   -2.2206    0.5184 C   0  0  0  0  0  0  0  0  0  0  0  0
   -0.4997   -2.9426    1.0194 O   0  0  0  0  0  0  0  0  0  0  0  0
   -1.1198   -0.9926    0.0674 N   0  0  0  0  0  0  0  0  0  0  0  0
   -1.8978   -0.4486   -0.2716 H   0  0  0  0  0  0  0  0  0  0  0  0
    0.1693   -0.2866    0.0854 C   0  0  1  0  0  0  0  0  0  0  0  0
    0.9043   -0.8713   -0.4705 H   0  0  0  0  0  0  0  0  0  0  0  0
    0.0106    1.0816   -0.6124 C   0  0  0  0  0  0  0  0  0  0  0  0
    0.8530    1.2288   -1.2905 H   0  0  0  0  0  0  0  0  0  0  0  0
   -0.9016    1.0667   -1.2130 H   0  0  0  0  0  0  0  0  0  0  0  0
   -0.0319    2.2839    0.3437 C   0  0  0  0  0  0  0  0  0  0  0  0
    1.0381    2.6661    0.8734 O   0  5  0  0  0  0  0  0  0  0  0  0
   -1.1494    2.8032    0.5529 O   0  0  0  0  0  0  0  0  0  0  0  0
    0.6664   -0.1450    1.5428 C   0  0  0  0  0  0  0  0  0  0  0  0
    1.8485   -0.3724    1.8265 O   0  0  0  0  0  0  0  0  0  0  0  0
   -0.2161    0.2434    2.4686 N   0  0  0  0  0  0  0  0  0  0  0  0
   -1.1850    0.3219    2.1537 H   0  0  0  0  0  0  0  0  0  0  0  0
    0.0735    0.4128    3.8885 C   0  0  0  0  0  0  0  0  0  0  0  0
    1.0159    0.9483    4.0105 H   0  0  0  0  0  0  0  0  0  0  0  0
   -0.7315    0.9748    4.3613 H   0  0  0  0  0  0  0  0  0  0  0  0
    0.1564   -0.5677    4.3577 H   0  0  0  0  0  0  0  0  0  0  0  0
  5  6  2  0  0  0  0
  5  7  1  0  0  0  0
  2  3  1  0  0  0  0
  2  4  1  0  0  0  0
  2  5  1  0  0  0  0
  1  2  1  0  0  0  0
 17 18  2  0  0  0  0
 17 19  1  0  0  0  0
 14 15  1  0  0  0  0
 14 16  2  0  0  0  0
 11 12  1  0  0  0  0
 11 13  1  0  0  0  0
 11 14  1  0  0  0  0
  9 10  1  0  0  0  0
  9 11  1  0  0  0  0
  9 17  1  0  0  0  0
  7  8  1  0  0  0  0
  7  9  1  0  0  0  0
 21 22  1  0  0  0  0
 21 23  1  0  0  0  0
 21 24  1  0  0  0  0
 19 20  1  0  0  0  0
 19 21  1  0  0  0  0
M  CHG  1  15  -1
M  END
$$$$
default_name
  -OEChem-02102213163D

 24 23  0     1  0  0  0  0  0999 V2000
   -2.8347   -3.7166    0.8034 H   0  0  0  0  0  0  0  0  0  0  0  0
   -2.7728   -2.7096    0.3954 C   0  0  0  0  0  0  0  0  0  0  0  0
   -3.4267   -2.0426    0.9524 H   0  0  0  0  0  0  0  0  0  0  0  0
   -3.0538   -2.7186   -0.6556 H   0  0  0  0  0  0  0  0  0  0  0  0
   -1.3498   -2.2206    0.5184 C   0  0  0  0  0  0  0  0  0  0  0  0
   -0.4997   -2.9426    1.0194 O   0  0  0  0  0  0  0  0  0  0  0  0
   -1.1198   -0.9926    0.0674 N   0  0  0  0  0  0  0  0  0  0  0  0
   -1.8978   -0.4486   -0.2716 H   0  0  0  0  0  0  0  0  0  0  0  0
    0.1693   -0.2866    0.0854 C   0  0  1  0  0  0  0  0  0  0  0  0
    0.9043   -0.8713   -0.4705 H   0  0  0  0  0  0  0  0  0  0  0  0
    0.0106    1.0816   -0.6124 C   0  0  0  0  0  0  0  0  0  0  0  0
    0.8530    1.2288   -1.2905 H   0  0  0  0  0  0  0  0  0  0  0  0
   -0.9016    1.0667   -1.2130 H   0  0  0  0  0  0  0  0  0  0  0  0
   -0.0319    2.2839    0.3437 C   0  0  0  0  0  0  0  0  0  0  0  0
    1.0469    2.8451    0.6487 O   0  5  0  0  0  0  0  0  0  0  0  0
   -1.1530    2.6222    0.7804 O   0  0  0  0  0  0  0  0  0  0  0  0
    0.6664   -0.1450    1.5428 C   0  0  0  0  0  0  0  0  0  0  0  0
    1.8485   -0.3724    1.8265 O   0  0  0  0  0  0  0  0  0  0  0  0
   -0.2161    0.2434    2.4686 N   0  0  0  0  0  0  0  0  0  0  0  0
   -1.1850    0.3219    2.1537 H   0  0  0  0  0  0  0  0  0  0  0  0
    0.0735    0.4128    3.8885 C   0  0  0  0  0  0  0  0  0  0  0  0
    1.0159    0.9483    4.0105 H   0  0  0  0  0  0  0  0  0  0  0  0
   -0.7315    0.9748    4.3613 H   0  0  0  0  0  0  0  0  0  0  0  0
    0.1564   -0.5677    4.3577 H   0  0  0  0  0  0  0  0  0  0  0  0
  5  6  2  0  0  0  0
  5  7  1  0  0  0  0
  2  3  1  0  0  0  0
  2  4  1  0  0  0  0
  2  5  1  0  0  0  0
  1  2  1  0  0  0  0
 17 18  2  0  0  0  0
 17 19  1  0  0  0  0
 14 15  1  0  0  0  0
 14 16  2  0  0  0  0
 11 12  1  0  0  0  0
 11 13  1  0  0  0  0
 11 14  1  0  0  0  0
  9 10  1  0  0  0  0
  9 11  1  0  0  0  0
  9 17  1  0  0  0  0
  7  8  1  0  0  0  0
  7  9  1  0  0  0  0
 21 22  1  0  0  0  0
 21 23  1  0  0  0  0
 21 24  1  0  0  0  0
 19 20  1  0  0  0  0
 19 21  1  0  0  0  0
M  CHG  1  15  -1
M  END
$$$$
default_name
  -OEChem-02102213163D

 24 23  0     1  0  0  0  0  0999 V2000
   -2.8347   -3.7166    0.8034 H   0  0  0  0  0  0  0  0  0  0  0  0
   -2.7728   -2.7096    0.3954 C   0  0  0  0  0  0  0  0  0  0  0  0
   -3.4267   -2.0426    0.9524 H   0  0  0  0  0  0  0  0  0  0  0  0
   -3.0538   -2.7186   -0.6556 H   0  0  0  0  0  0  0  0  0  0  0  0
   -1.3498   -2.2206    0.5184 C   0  0  0  0  0  0  0  0  0  0  0  0
   -0.4997   -2.9426    1.0194 O   0  0  0  0  0  0  0  0  0  0  0  0
   -1.1198   -0.9926    0.0674 N   0  0  0  0  0  0  0  0  0  0  0  0
   -1.8978   -0.4486   -0.2716 H   0  0  0  0  0  0  0  0  0  0  0  0
    0.1693   -0.2866    0.0854 C   0  0  1  0  0  0  0  0  0  0  0  0
    0.9043   -0.8713   -0.4705 H   0  0  0  0  0  0  0  0  0  0  0  0
    0.0106    1.0816   -0.6124 C   0  0  0  0  0  0  0  0  0  0  0  0
    0.8530    1.2288   -1.2905 H   0  0  0  0  0  0  0  0  0  0  0  0
   -0.9016    1.0667   -1.2130 H   0  0  0  0  0  0  0  0  0  0  0  0
   -0.0319    2.2839    0.3437 C   0  0  0  0  0  0  0  0  0  0  0  0
    0.9809    3.0179    0.4285 O   0  5  0  0  0  0  0  0  0  0  0  0
   -1.0814    2.4484    1.0022 O   0  0  0  0  0  0  0  0  0  0  0  0
    0.6664   -0.1450    1.5428 C   0  0  0  0  0  0  0  0  0  0  0  0
    1.8485   -0.3724    1.8265 O   0  0  0  0  0  0  0  0  0  0  0  0
   -0.2161    0.2434    2.4686 N   0  0  0  0  0  0  0  0  0  0  0  0
   -1.1850    0.3219    2.1537 H   0  0  0  0  0  0  0  0  0  0  0  0
    0.0735    0.4128    3.8885 C   0  0  0  0  0  0  0  0  0  0  0  0
    1.0159    0.9483    4.0105 H   0  0  0  0  0  0  0  0  0  0  0  0
   -0.7315    0.9748    4.3613 H   0  0  0  0  0  0  0  0  0  0  0  0
    0.1564   -0.5677    4.3577 H   0  0  0  0  0  0  0  0  0  0  0  0
  5  6  2  0  0  0  0
  5  7  1  0  0  0  0
  2  3  1  0  0  0  0
  2  4  1  0  0  0  0
  2  5  1  0  0  0  0
  1  2  1  0  0  0  0
 17 18  2  0  0  0  0
 17 19  1  0  0  0  0
 14 15  1  0  0  0  0
 14 16  2  0  0  0  0
 11 12  1  0  0  0  0
 11 13  1  0  0  0  0
 11 14  1  0  0  0  0
  9 10  1  0  0  0  0
  9 11  1  0  0  0  0
  9 17  1  0  0  0  0
  7  8  1  0  0  0  0
  7  9  1  0  0  0  0
 21 22  1  0  0  0  0
 21 23  1  0  0  0  0
 21 24  1  0  0  0  0
 19 20  1  0  0  0  0
 19 21  1  0  0  0  0
M  CHG  1  15  -1
M  END
$$$$
default_name
  -OEChem-02102213163D

 24 23  0     1  0  0  0  0  0999 V2000
   -2.8347   -3.7166    0.8034 H   0  0  0  0  0  0  0  0  0  0  0  0
   -2.7728   -2.7096    0.3954 C   0  0  0  0  0  0  0  0  0  0  0  0
   -3.4267   -2.0426    0.9524 H   0  0  0  0  0  0  0  0  0  0  0  0
   -3.0538   -2.7186   -0.6556 H   0  0  0  0  0  0  0  0  0  0  0  0
   -1.3498   -2.2206    0.5184 C   0  0  0  0  0  0  0  0  0  0  0  0
   -0.4997   -2.9426    1.0194 O   0  0  0  0  0  0  0  0  0  0  0  0
   -1.1198   -0.9926    0.0674 N   0  0  0  0  0  0  0  0  0  0  0  0
   -1.8978   -0.4486   -0.2716 H   0  0  0  0  0  0  0  0  0  0  0  0
    0.1693   -0.2866    0.0854 C   0  0  1  0  0  0  0  0  0  0  0  0
    0.9043   -0.8713   -0.4705 H   0  0  0  0  0  0  0  0  0  0  0  0
    0.0106    1.0816   -0.6124 C   0  0  0  0  0  0  0  0  0  0  0  0
    0.8530    1.2288   -1.2905 H   0  0  0  0  0  0  0  0  0  0  0  0
   -0.9016    1.0667   -1.2130 H   0  0  0  0  0  0  0  0  0  0  0  0
   -0.0319    2.2839    0.3437 C   0  0  0  0  0  0  0  0  0  0  0  0
    0.8448    3.1725    0.2280 O   0  5  0  0  0  0  0  0  0  0  0  0
   -0.9393    2.2936    1.2031 O   0  0  0  0  0  0  0  0  0  0  0  0
    0.6664   -0.1450    1.5428 C   0  0  0  0  0  0  0  0  0  0  0  0
    1.8485   -0.3724    1.8265 O   0  0  0  0  0  0  0  0  0  0  0  0
   -0.2161    0.2434    2.4686 N   0  0  0  0  0  0  0  0  0  0  0  0
   -1.1850    0.3219    2.1537 H   0  0  0  0  0  0  0  0  0  0  0  0
    0.0735    0.4128    3.8885 C   0  0  0  0  0  0  0  0  0  0  0  0
    1.0159    0.9483    4.0105 H   0  0  0  0  0  0  0  0  0  0  0  0
   -0.7315    0.9748    4.3613 H   0  0  0  0  0  0  0  0  0  0  0  0
    0.1564   -0.5677    4.3577 H   0  0  0  0  0  0  0  0  0  0  0  0
  5  6  2  0  0  0  0
  5  7  1  0  0  0  0
  2  3  1  0  0  0  0
  2  4  1  0  0  0  0
  2  5  1  0  0  0  0
  1  2  1  0  0  0  0
 17 18  2  0  0  0  0
 17 19  1  0  0  0  0
 14 15  1  0  0  0  0
 14 16  2  0  0  0  0
 11 12  1  0  0  0  0
 11 13  1  0  0  0  0
 11 14  1  0  0  0  0
  9 10  1  0  0  0  0
  9 11  1  0  0  0  0
  9 17  1  0  0  0  0
  7  8  1  0  0  0  0
  7  9  1  0  0  0  0
 21 22  1  0  0  0  0
 21 23  1  0  0  0  0
 21 24  1  0  0  0  0
 19 20  1  0  0  0  0
 19 21  1  0  0  0  0
M  CHG  1  15  -1
M  END
$$$$
default_name
  -OEChem-02102213163D

 24 23  0     1  0  0  0  0  0999 V2000
   -2.8347   -3.7166    0.8034 H   0  0  0  0  0  0  0  0  0  0  0  0
   -2.7728   -2.7096    0.3954 C   0  0  0  0  0  0  0  0  0  0  0  0
   -3.4267   -2.0426    0.9524 H   0  0  0  0  0  0  0  0  0  0  0  0
   -3.0538   -2.7186   -0.6556 H   0  0  0  0  0  0  0  0  0  0  0  0
   -1.3498   -2.2206    0.5184 C   0  0  0  0  0  0  0  0  0  0  0  0
   -0.4997   -2.9426    1.0194 O   0  0  0  0  0  0  0  0  0  0  0  0
   -1.1198   -0.9926    0.0674 N   0  0  0  0  0  0  0  0  0  0  0  0
   -1.8978   -0.4486   -0.2716 H   0  0  0  0  0  0  0  0  0  0  0  0
    0.1693   -0.2866    0.0854 C   0  0  1  0  0  0  0  0  0  0  0  0
    0.9043   -0.8713   -0.4705 H   0  0  0  0  0  0  0  0  0  0  0  0
    0.0106    1.0816   -0.6124 C   0  0  0  0  0  0  0  0  0  0  0  0
    0.8530    1.2288   -1.2905 H   0  0  0  0  0  0  0  0  0  0  0  0
   -0.9016    1.0667   -1.2130 H   0  0  0  0  0  0  0  0  0  0  0  0
   -0.0319    2.2839    0.3437 C   0  0  0  0  0  0  0  0  0  0  0  0
    0.6479    3.2986    0.0608 O   0  5  0  0  0  0  0  0  0  0  0  0
   -0.7364    2.1684    1.3695 O   0  0  0  0  0  0  0  0  0  0  0  0
    0.6664   -0.1450    1.5428 C   0  0  0  0  0  0  0  0  0  0  0  0
    1.8485   -0.3724    1.8265 O   0  0  0  0  0  0  0  0  0  0  0  0
   -0.2161    0.2434    2.4686 N   0  0  0  0  0  0  0  0  0  0  0  0
   -1.1850    0.3219    2.1537 H   0  0  0  0  0  0  0  0  0  0  0  0
    0.0735    0.4128    3.8885 C   0  0  0  0  0  0  0  0  0  0  0  0
    1.0159    0.9483    4.0105 H   0  0  0  0  0  0  0  0  0  0  0  0
   -0.7315    0.9748    4.3613 H   0  0  0  0  0  0  0  0  0  0  0  0
    0.1564   -0.5677    4.3577 H   0  0  0  0  0  0  0  0  0  0  0  0
  5  6  2  0  0  0  0
  5  7  1  0  0  0  0
  2  3  1  0  0  0  0
  2  4  1  0  0  0  0
  2  5  1  0  0  0  0
  1  2  1  0  0  0  0
 17 18  2  0  0  0  0
 17 19  1  0  0  0  0
 14 15  1  0  0  0  0
 14 16  2  0  0  0  0
 11 12  1  0  0  0  0
 11 13  1  0  0  0  0
 11 14  1  0  0  0  0
  9 10  1  0  0  0  0
  9 11  1  0  0  0  0
  9 17  1  0  0  0  0
  7  8  1  0  0  0  0
  7  9  1  0  0  0  0
 21 22  1  0  0  0  0
 21 23  1  0  0  0  0
 21 24  1  0  0  0  0
 19 20  1  0  0  0  0
 19 21  1  0  0  0  0
M  CHG  1  15  -1
M  END
$$$$
default_name
  -OEChem-02102213163D

 24 23  0     1  0  0  0  0  0999 V2000
   -2.8347   -3.7166    0.8034 H   0  0  0  0  0  0  0  0  0  0  0  0
   -2.7728   -2.7096    0.3954 C   0  0  0  0  0  0  0  0  0  0  0  0
   -3.4267   -2.0426    0.9524 H   0  0  0  0  0  0  0  0  0  0  0  0
   -3.0538   -2.7186   -0.6556 H   0  0  0  0  0  0  0  0  0  0  0  0
   -1.3498   -2.2206    0.5184 C   0  0  0  0  0  0  0  0  0  0  0  0
   -0.4997   -2.9426    1.0194 O   0  0  0  0  0  0  0  0  0  0  0  0
   -1.1198   -0.9926    0.0674 N   0  0  0  0  0  0  0  0  0  0  0  0
   -1.8978   -0.4486   -0.2716 H   0  0  0  0  0  0  0  0  0  0  0  0
    0.1693   -0.2866    0.0854 C   0  0  1  0  0  0  0  0  0  0  0  0
    0.9043   -0.8713   -0.4705 H   0  0  0  0  0  0  0  0  0  0  0  0
    0.0106    1.0816   -0.6124 C   0  0  0  0  0  0  0  0  0  0  0  0
    0.8530    1.2288   -1.2905 H   0  0  0  0  0  0  0  0  0  0  0  0
   -0.9016    1.0667   -1.2130 H   0  0  0  0  0  0  0  0  0  0  0  0
   -0.0319    2.2839    0.3437 C   0  0  0  0  0  0  0  0  0  0  0  0
    0.4035    3.3874   -0.0618 O   0  5  0  0  0  0  0  0  0  0  0  0
   -0.4866    2.0813    1.4901 O   0  0  0  0  0  0  0  0  0  0  0  0
    0.6664   -0.1450    1.5428 C   0  0  0  0  0  0  0  0  0  0  0  0
    1.8485   -0.3724    1.8265 O   0  0  0  0  0  0  0  0  0  0  0  0
   -0.2161    0.2434    2.4686 N   0  0  0  0  0  0  0  0  0  0  0  0
   -1.1850    0.3219    2.1537 H   0  0  0  0  0  0  0  0  0  0  0  0
    0.0735    0.4128    3.8885 C   0  0  0  0  0  0  0  0  0  0  0  0
    1.0159    0.9483    4.0105 H   0  0  0  0  0  0  0  0  0  0  0  0
   -0.7315    0.9748    4.3613 H   0  0  0  0  0  0  0  0  0  0  0  0
    0.1564   -0.5677    4.3577 H   0  0  0  0  0  0  0  0  0  0  0  0
  5  6  2  0  0  0  0
  5  7  1  0  0  0  0
  2  3  1  0  0  0  0
  2  4  1  0  0  0  0
  2  5  1  0  0  0  0
  1  2  1  0  0  0  0
 17 18  2  0  0  0  0
 17 19  1  0  0  0  0
 14 15  1  0  0  0  0
 14 16  2  0  0  0  0
 11 12  1  0  0  0  0
 11 13  1  0  0  0  0
 11 14  1  0  0  0  0
  9 10  1  0  0  0  0
  9 11  1  0  0  0  0
  9 17  1  0  0  0  0
  7  8  1  0  0  0  0
  7  9  1  0  0  0  0
 21 22  1  0  0  0  0
 21 23  1  0  0  0  0
 21 24  1  0  0  0  0
 19 20  1  0  0  0  0
 19 21  1  0  0  0  0
M  CHG  1  15  -1
M  END
$$$$
default_name
  -OEChem-02102213163D

 24 23  0     1  0  0  0  0  0999 V2000
   -2.8347   -3.7166    0.8034 H   0  0  0  0  0  0  0  0  0  0  0  0
   -2.7728   -2.7096    0.3954 C   0  0  0  0  0  0  0  0  0  0  0  0
   -3.4267   -2.0426    0.9524 H   0  0  0  0  0  0  0  0  0  0  0  0
   -3.0538   -2.7186   -0.6556 H   0  0  0  0  0  0  0  0  0  0  0  0
   -1.3498   -2.2206    0.5184 C   0  0  0  0  0  0  0  0  0  0  0  0
   -0.4997   -2.9426    1.0194 O   0  0  0  0  0  0  0  0  0  0  0  0
   -1.1198   -0.9926    0.0674 N   0  0  0  0  0  0  0  0  0  0  0  0
   -1.8978   -0.4486   -0.2716 H   0  0  0  0  0  0  0  0  0  0  0  0
    0.1693   -0.2866    0.0854 C   0  0  1  0  0  0  0  0  0  0  0  0
    0.9043   -0.8713   -0.4705 H   0  0  0  0  0  0  0  0  0  0  0  0
    0.0106    1.0816   -0.6124 C   0  0  0  0  0  0  0  0  0  0  0  0
    0.8530    1.2288   -1.2905 H   0  0  0  0  0  0  0  0  0  0  0  0
   -0.9016    1.0667   -1.2130 H   0  0  0  0  0  0  0  0  0  0  0  0
   -0.0319    2.2839    0.3437 C   0  0  0  0  0  0  0  0  0  0  0  0
    0.1283    3.4330   -0.1313 O   0  5  0  0  0  0  0  0  0  0  0  0
   -0.2069    2.0383    1.5566 O   0  0  0  0  0  0  0  0  0  0  0  0
    0.6664   -0.1450    1.5428 C   0  0  0  0  0  0  0  0  0  0  0  0
    1.8485   -0.3724    1.8265 O   0  0  0  0  0  0  0  0  0  0  0  0
   -0.2161    0.2434    2.4686 N   0  0  0  0  0  0  0  0  0  0  0  0
   -1.1850    0.3219    2.1537 H   0  0  0  0  0  0  0  0  0  0  0  0
    0.0735    0.4128    3.8885 C   0  0  0  0  0  0  0  0  0  0  0  0
    1.0159    0.9483    4.0105 H   0  0  0  0  0  0  0  0  0  0  0  0
   -0.7315    0.9748    4.3613 H   0  0  0  0  0  0  0  0  0  0  0  0
    0.1564   -0.5677    4.3577 H   0  0  0  0  0  0  0  0  0  0  0  0
  5  6  2  0  0  0  0
  5  7  1  0  0  0  0
  2  3  1  0  0  0  0
  2  4  1  0  0  0  0
  2  5  1  0  0  0  0
  1  2  1  0  0  0  0
 17 18  2  0  0  0  0
 17 19  1  0  0  0  0
 14 15  1  0  0  0  0
 14 16  2  0  0  0  0
 11 12  1  0  0  0  0
 11 13  1  0  0  0  0
 11 14  1  0  0  0  0
  9 10  1  0  0  0  0
  9 11  1  0  0  0  0
  9 17  1  0  0  0  0
  7  8  1  0  0  0  0
  7  9  1  0  0  0  0
 21 22  1  0  0  0  0
 21 23  1  0  0  0  0
 21 24  1  0  0  0  0
 19 20  1  0  0  0  0
 19 21  1  0  0  0  0
M  CHG  1  15  -1
M  END
$$$$
default_name
  -OEChem-02102213163D

 24 23  0     1  0  0  0  0  0999 V2000
   -2.8347   -3.7166    0.8034 H   0  0  0  0  0  0  0  0  0  0  0  0
   -2.7728   -2.7096    0.3954 C   0  0  0  0  0  0  0  0  0  0  0  0
   -3.4267   -2.0426    0.9524 H   0  0  0  0  0  0  0  0  0  0  0  0
   -3.0538   -2.7186   -0.6556 H   0  0  0  0  0  0  0  0  0  0  0  0
   -1.3498   -2.2206    0.5184 C   0  0  0  0  0  0  0  0  0  0  0  0
   -0.4997   -2.9426    1.0194 O   0  0  0  0  0  0  0  0  0  0  0  0
   -1.1198   -0.9926    0.0674 N   0  0  0  0  0  0  0  0  0  0  0  0
   -1.8978   -0.4486   -0.2716 H   0  0  0  0  0  0  0  0  0  0  0  0
    0.1693   -0.2866    0.0854 C   0  0  1  0  0  0  0  0  0  0  0  0
    0.9043   -0.8713   -0.4705 H   0  0  0  0  0  0  0  0  0  0  0  0
    0.0106    1.0816   -0.6124 C   0  0  0  0  0  0  0  0  0  0  0  0
    0.6848    1.1178   -1.4699 H   0  0  0  0  0  0  0  0  0  0  0  0
   -1.0112    1.1685   -0.9883 H   0  0  0  0  0  0  0  0  0  0  0  0
    0.3272    2.2926    0.2790 C   0  0  0  0  0  0  0  0  0  0  0  0
    0.2228    3.4415   -0.2118 O   0  5  0  0  0  0  0  0  0  0  0  0
    0.6933    2.0547    1.4501 O   0  0  0  0  0  0  0  0  0  0  0  0
    0.6664   -0.1450    1.5428 C   0  0  0  0  0  0  0  0  0  0  0  0
    1.8485   -0.3724    1.8265 O   0  0  0  0  0  0  0  0  0  0  0  0
   -0.2161    0.2434    2.4686 N   0  0  0  0  0  0  0  0  0  0  0  0
   -1.1850    0.3219    2.1537 H   0  0  0  0  0  0  0  0  0  0  0  0
    0.0735    0.4128    3.8885 C   0  0  0  0  0  0  0  0  0  0  0  0
    1.0159    0.9483    4.0105 H   0  0  0  0  0  0  0  0  0  0  0  0
   -0.7315    0.9748    4.3613 H   0  0  0  0  0  0  0  0  0  0  0  0
    0.1564   -0.5677    4.3577 H   0  0  0  0  0  0  0  0  0  0  0  0
  5  6  2  0  0  0  0
  5  7  1  0  0  0  0
  2  3  1  0  0  0  0
  2  4  1  0  0  0  0
  2  5  1  0  0  0  0
  1  2  1  0  0  0  0
 17 18  2  0  0  0  0
 17 19  1  0  0  0  0
 14 15  1  0  0  0  0
 14 16  2  0  0  0  0
 11 12  1  0  0  0  0
 11 13  1  0  0  0  0
 11 14  1  0  0  0  0
  9 10  1  0  0  0  0
  9 11  1  0  0  0  0
  9 17  1  0  0  0  0
  7  8  1  0  0  0  0
  7  9  1  0  0  0  0
 21 22  1  0  0  0  0
 21 23  1  0  0  0  0
 21 24  1  0  0  0  0
 19 20  1  0  0  0  0
 19 21  1  0  0  0  0
M  CHG  1  15  -1
M  END
$$$$
default_name
  -OEChem-02102213163D

 24 23  0     1  0  0  0  0  0999 V2000
   -2.8347   -3.7166    0.8034 H   0  0  0  0  0  0  0  0  0  0  0  0
   -2.7728   -2.7096    0.3954 C   0  0  0  0  0  0  0  0  0  0  0  0
   -3.4267   -2.0426    0.9524 H   0  0  0  0  0  0  0  0  0  0  0  0
   -3.0538   -2.7186   -0.6556 H   0  0  0  0  0  0  0  0  0  0  0  0
   -1.3498   -2.2206    0.5184 C   0  0  0  0  0  0  0  0  0  0  0  0
   -0.4997   -2.9426    1.0194 O   0  0  0  0  0  0  0  0  0  0  0  0
   -1.1198   -0.9926    0.0674 N   0  0  0  0  0  0  0  0  0  0  0  0
   -1.8978   -0.4486   -0.2716 H   0  0  0  0  0  0  0  0  0  0  0  0
    0.1693   -0.2866    0.0854 C   0  0  1  0  0  0  0  0  0  0  0  0
    0.9043   -0.8713   -0.4705 H   0  0  0  0  0  0  0  0  0  0  0  0
    0.0106    1.0816   -0.6124 C   0  0  0  0  0  0  0  0  0  0  0  0
    0.6848    1.1178   -1.4699 H   0  0  0  0  0  0  0  0  0  0  0  0
   -1.0112    1.1685   -0.9883 H   0  0  0  0  0  0  0  0  0  0  0  0
    0.3272    2.2926    0.2790 C   0  0  0  0  0  0  0  0  0  0  0  0
   -0.0420    3.4289   -0.1007 O   0  5  0  0  0  0  0  0  0  0  0  0
    0.9594    2.0705    1.3341 O   0  0  0  0  0  0  0  0  0  0  0  0
    0.6664   -0.1450    1.5428 C   0  0  0  0  0  0  0  0  0  0  0  0
    1.8485   -0.3724    1.8265 O   0  0  0  0  0  0  0  0  0  0  0  0
   -0.2161    0.2434    2.4686 N   0  0  0  0  0  0  0  0  0  0  0  0
   -1.1850    0.3219    2.1537 H   0  0  0  0  0  0  0  0  0  0  0  0
    0.0735    0.4128    3.8885 C   0  0  0  0  0  0  0  0  0  0  0  0
    1.0159    0.9483    4.0105 H   0  0  0  0  0  0  0  0  0  0  0  0
   -0.7315    0.9748    4.3613 H   0  0  0  0  0  0  0  0  0  0  0  0
    0.1564   -0.5677    4.3577 H   0  0  0  0  0  0  0  0  0  0  0  0
  5  6  2  0  0  0  0
  5  7  1  0  0  0  0
  2  3  1  0  0  0  0
  2  4  1  0  0  0  0
  2  5  1  0  0  0  0
  1  2  1  0  0  0  0
 17 18  2  0  0  0  0
 17 19  1  0  0  0  0
 14 15  1  0  0  0  0
 14 16  2  0  0  0  0
 11 12  1  0  0  0  0
 11 13  1  0  0  0  0
 11 14  1  0  0  0  0
  9 10  1  0  0  0  0
  9 11  1  0  0  0  0
  9 17  1  0  0  0  0
  7  8  1  0  0  0  0
  7  9  1  0  0  0  0
 21 22  1  0  0  0  0
 21 23  1  0  0  0  0
 21 24  1  0  0  0  0
 19 20  1  0  0  0  0
 19 21  1  0  0  0  0
M  CHG  1  15  -1
M  END
$$$$
default_name
  -OEChem-02102213163D

 24 23  0     1  0  0  0  0  0999 V2000
   -2.8347   -3.7166    0.8034 H   0  0  0  0  0  0  0  0  0  0  0  0
   -2.7728   -2.7096    0.3954 C   0  0  0  0  0  0  0  0  0  0  0  0
   -3.4267   -2.0426    0.9524 H   0  0  0  0  0  0  0  0  0  0  0  0
   -3.0538   -2.7186   -0.6556 H   0  0  0  0  0  0  0  0  0  0  0  0
   -1.3498   -2.2206    0.5184 C   0  0  0  0  0  0  0  0  0  0  0  0
   -0.4997   -2.9426    1.0194 O   0  0  0  0  0  0  0  0  0  0  0  0
   -1.1198   -0.9926    0.0674 N   0  0  0  0  0  0  0  0  0  0  0  0
   -1.8978   -0.4486   -0.2716 H   0  0  0  0  0  0  0  0  0  0  0  0
    0.1693   -0.2866    0.0854 C   0  0  1  0  0  0  0  0  0  0  0  0
    0.9043   -0.8713   -0.4705 H   0  0  0  0  0  0  0  0  0  0  0  0
    0.0106    1.0816   -0.6124 C   0  0  0  0  0  0  0  0  0  0  0  0
    0.6848    1.1178   -1.4699 H   0  0  0  0  0  0  0  0  0  0  0  0
   -1.0112    1.1685   -0.9883 H   0  0  0  0  0  0  0  0  0  0  0  0
    0.3272    2.2926    0.2790 C   0  0  0  0  0  0  0  0  0  0  0  0
   -0.2733    3.3711    0.0600 O   0  5  0  0  0  0  0  0  0  0  0  0
    1.1904    2.1320    1.1686 O   0  0  0  0  0  0  0  0  0  0  0  0
    0.6664   -0.1450    1.5428 C   0  0  0  0  0  0  0  0  0  0  0  0
    1.8485   -0.3724    1.8265 O   0  0  0  0  0  0  0  0  0  0  0  0
   -0.2161    0.2434    2.4686 N   0  0  0  0  0  0  0  0  0  0  0  0
   -1.1850    0.3219    2.1537 H   0  0  0  0  0  0  0  0  0  0  0  0
    0.0735    0.4128    3.8885 C   0  0  0  0  0  0  0  0  0  0  0  0
    1.0159    0.9483    4.0105 H   0  0  0  0  0  0  0  0  0  0  0  0
   -0.7315    0.9748    4.3613 H   0  0  0  0  0  0  0  0  0  0  0  0
    0.1564   -0.5677    4.3577 H   0  0  0  0  0  0  0  0  0  0  0  0
  5  6  2  0  0  0  0
  5  7  1  0  0  0  0
  2  3  1  0  0  0  0
  2  4  1  0  0  0  0
  2  5  1  0  0  0  0
  1  2  1  0  0  0  0
 17 18  2  0  0  0  0
 17 19  1  0  0  0  0
 14 15  1  0  0  0  0
 14 16  2  0  0  0  0
 11 12  1  0  0  0  0
 11 13  1  0  0  0  0
 11 14  1  0  0  0  0
  9 10  1  0  0  0  0
  9 11  1  0  0  0  0
  9 17  1  0  0  0  0
  7  8  1  0  0  0  0
  7  9  1  0  0  0  0
 21 22  1  0  0  0  0
 21 23  1  0  0  0  0
 21 24  1  0  0  0  0
 19 20  1  0  0  0  0
 19 21  1  0  0  0  0
M  CHG  1  15  -1
M  END
$$$$
default_name
  -OEChem-02102213163D

 24 23  0     1  0  0  0  0  0999 V2000
   -2.8347   -3.7166    0.8034 H   0  0  0  0  0  0  0  0  0  0  0  0
   -2.7728   -2.7096    0.3954 C   0  0  0  0  0  0  0  0  0  0  0  0
   -3.4267   -2.0426    0.9524 H   0  0  0  0  0  0  0  0  0  0  0  0
   -3.0538   -2.7186   -0.6556 H   0  0  0  0  0  0  0  0  0  0  0  0
   -1.3498   -2.2206    0.5184 C   0  0  0  0  0  0  0  0  0  0  0  0
   -0.4997   -2.9426    1.0194 O   0  0  0  0  0  0  0  0  0  0  0  0
   -1.1198   -0.9926    0.0674 N   0  0  0  0  0  0  0  0  0  0  0  0
   -1.8978   -0.4486   -0.2716 H   0  0  0  0  0  0  0  0  0  0  0  0
    0.1693   -0.2866    0.0854 C   0  0  1  0  0  0  0  0  0  0  0  0
    0.9043   -0.8713   -0.4705 H   0  0  0  0  0  0  0  0  0  0  0  0
    0.0106    1.0816   -0.6124 C   0  0  0  0  0  0  0  0  0  0  0  0
    0.6848    1.1178   -1.4699 H   0  0  0  0  0  0  0  0  0  0  0  0
   -1.0112    1.1685   -0.9883 H   0  0  0  0  0  0  0  0  0  0  0  0
    0.3272    2.2926    0.2790 C   0  0  0  0  0  0  0  0  0  0  0  0
   -0.4552    3.2719    0.2593 O   0  5  0  0  0  0  0  0  0  0  0  0
    1.3705    2.2349    0.9648 O   0  0  0  0  0  0  0  0  0  0  0  0
    0.6664   -0.1450    1.5428 C   0  0  0  0  0  0  0  0  0  0  0  0
    1.8485   -0.3724    1.8265 O   0  0  0  0  0  0  0  0  0  0  0  0
   -0.2161    0.2434    2.4686 N   0  0  0  0  0  0  0  0  0  0  0  0
   -1.1850    0.3219    2.1537 H   0  0  0  0  0  0  0  0  0  0  0  0
    0.0735    0.4128    3.8885 C   0  0  0  0  0  0  0  0  0  0  0  0
    1.0159    0.9483    4.0105 H   0  0  0  0  0  0  0  0  0  0  0  0
   -0.7315    0.9748    4.3613 H   0  0  0  0  0  0  0  0  0  0  0  0
    0.1564   -0.5677    4.3577 H   0  0  0  0  0  0  0  0  0  0  0  0
  5  6  2  0  0  0  0
  5  7  1  0  0  0  0
  2  3  1  0  0  0  0
  2  4  1  0  0  0  0
  2  5  1  0  0  0  0
  1  2  1  0  0  0  0
 17 18  2  0  0  0  0
 17 19  1  0  0  0  0
 14 15  1  0  0  0  0
 14 16  2  0  0  0  0
 11 12  1  0  0  0  0
 11 13  1  0  0  0  0
 11 14  1  0  0  0  0
  9 10  1  0  0  0  0
  9 11  1  0  0  0  0
  9 17  1  0  0  0  0
  7  8  1  0  0  0  0
  7  9  1  0  0  0  0
 21 22  1  0  0  0  0
 21 23  1  0  0  0  0
 21 24  1  0  0  0  0
 19 20  1  0  0  0  0
 19 21  1  0  0  0  0
M  CHG  1  15  -1
M  END
$$$$
default_name
  -OEChem-02102213163D

 24 23  0     1  0  0  0  0  0999 V2000
   -2.8347   -3.7166    0.8034 H   0  0  0  0  0  0  0  0  0  0  0  0
   -2.7728   -2.7096    0.3954 C   0  0  0  0  0  0  0  0  0  0  0  0
   -3.4267   -2.0426    0.9524 H   0  0  0  0  0  0  0  0  0  0  0  0
   -3.0538   -2.7186   -0.6556 H   0  0  0  0  0  0  0  0  0  0  0  0
   -1.3498   -2.2206    0.5184 C   0  0  0  0  0  0  0  0  0  0  0  0
   -0.4997   -2.9426    1.0194 O   0  0  0  0  0  0  0  0  0  0  0  0
   -1.1198   -0.9926    0.0674 N   0  0  0  0  0  0  0  0  0  0  0  0
   -1.8978   -0.4486   -0.2716 H   0  0  0  0  0  0  0  0  0  0  0  0
    0.1693   -0.2866    0.0854 C   0  0  1  0  0  0  0  0  0  0  0  0
    0.9043   -0.8713   -0.4705 H   0  0  0  0  0  0  0  0  0  0  0  0
    0.0106    1.0816   -0.6124 C   0  0  0  0  0  0  0  0  0  0  0  0
    0.6848    1.1178   -1.4699 H   0  0  0  0  0  0  0  0  0  0  0  0
   -1.0112    1.1685   -0.9883 H   0  0  0  0  0  0  0  0  0  0  0  0
    0.3272    2.2926    0.2790 C   0  0  0  0  0  0  0  0  0  0  0  0
   -0.5754    3.1382    0.4837 O   0  5  0  0  0  0  0  0  0  0  0  0
    1.4875    2.3721    0.7368 O   0  0  0  0  0  0  0  0  0  0  0  0
    0.6664   -0.1450    1.5428 C   0  0  0  0  0  0  0  0  0  0  0  0
    1.8485   -0.3724    1.8265 O   0  0  0  0  0  0  0  0  0  0  0  0
   -0.2161    0.2434    2.4686 N   0  0  0  0  0  0  0  0  0  0  0  0
   -1.1850    0.3219    2.1537 H   0  0  0  0  0  0  0  0  0  0  0  0
    0.0735    0.4128    3.8885 C   0  0  0  0  0  0  0  0  0  0  0  0
    1.0159    0.9483    4.0105 H   0  0  0  0  0  0  0  0  0  0  0  0
   -0.7315    0.9748    4.3613 H   0  0  0  0  0  0  0  0  0  0  0  0
    0.1564   -0.5677    4.3577 H   0  0  0  0  0  0  0  0  0  0  0  0
  5  6  2  0  0  0  0
  5  7  1  0  0  0  0
  2  3  1  0  0  0  0
  2  4  1  0  0  0  0
  2  5  1  0  0  0  0
  1  2  1  0  0  0  0
 17 18  2  0  0  0  0
 17 19  1  0  0  0  0
 14 15  1  0  0  0  0
 14 16  2  0  0  0  0
 11 12  1  0  0  0  0
 11 13  1  0  0  0  0
 11 14  1  0  0  0  0
  9 10  1  0  0  0  0
  9 11  1  0  0  0  0
  9 17  1  0  0  0  0
  7  8  1  0  0  0  0
  7  9  1  0  0  0  0
 21 22  1  0  0  0  0
 21 23  1  0  0  0  0
 21 24  1  0  0  0  0
 19 20  1  0  0  0  0
 19 21  1  0  0  0  0
M  CHG  1  15  -1
M  END
$$$$
default_name
  -OEChem-02102213163D

 24 23  0     1  0  0  0  0  0999 V2000
   -2.8347   -3.7166    0.8034 H   0  0  0  0  0  0  0  0  0  0  0  0
   -2.7728   -2.7096    0.3954 C   0  0  0  0  0  0  0  0  0  0  0  0
   -3.4267   -2.0426    0.9524 H   0  0  0  0  0  0  0  0  0  0  0  0
   -3.0538   -2.7186   -0.6556 H   0  0  0  0  0  0  0  0  0  0  0  0
   -1.3498   -2.2206    0.5184 C   0  0  0  0  0  0  0  0  0  0  0  0
   -0.4997   -2.9426    1.0194 O   0  0  0  0  0  0  0  0  0  0  0  0
   -1.1198   -0.9926    0.0674 N   0  0  0  0  0  0  0  0  0  0  0  0
   -1.8978   -0.4486   -0.2716 H   0  0  0  0  0  0  0  0  0  0  0  0
    0.1693   -0.2866    0.0854 C   0  0  1  0  0  0  0  0  0  0  0  0
    0.9043   -0.8713   -0.4705 H   0  0  0  0  0  0  0  0  0  0  0  0
    0.0106    1.0816   -0.6124 C   0  0  0  0  0  0  0  0  0  0  0  0
    0.6848    1.1178   -1.4699 H   0  0  0  0  0  0  0  0  0  0  0  0
   -1.0112    1.1685   -0.9883 H   0  0  0  0  0  0  0  0  0  0  0  0
    0.3272    2.2926    0.2790 C   0  0  0  0  0  0  0  0  0  0  0  0
   -0.6257    2.9790    0.7177 O   0  5  0  0  0  0  0  0  0  0  0  0
    1.5334    2.5344    0.5000 O   0  0  0  0  0  0  0  0  0  0  0  0
    0.6664   -0.1450    1.5428 C   0  0  0  0  0  0  0  0  0  0  0  0
    1.8485   -0.3724    1.8265 O   0  0  0  0  0  0  0  0  0  0  0  0
   -0.2161    0.2434    2.4686 N   0  0  0  0  0  0  0  0  0  0  0  0
   -1.1850    0.3219    2.1537 H   0  0  0  0  0  0  0  0  0  0  0  0
    0.0735    0.4128    3.8885 C   0  0  0  0  0  0  0  0  0  0  0  0
    1.0159    0.9483    4.0105 H   0  0  0  0  0  0  0  0  0  0  0  0
   -0.7315    0.9748    4.3613 H   0  0  0  0  0  0  0  0  0  0  0  0
    0.1564   -0.5677    4.3577 H   0  0  0  0  0  0  0  0  0  0  0  0
  5  6  2  0  0  0  0
  5  7  1  0  0  0  0
  2  3  1  0  0  0  0
  2  4  1  0  0  0  0
  2  5  1  0  0  0  0
  1  2  1  0  0  0  0
 17 18  2  0  0  0  0
 17 19  1  0  0  0  0
 14 15  1  0  0  0  0
 14 16  2  0  0  0  0
 11 12  1  0  0  0  0
 11 13  1  0  0  0  0
 11 14  1  0  0  0  0
  9 10  1  0  0  0  0
  9 11  1  0  0  0  0
  9 17  1  0  0  0  0
  7  8  1  0  0  0  0
  7  9  1  0  0  0  0
 21 22  1  0  0  0  0
 21 23  1  0  0  0  0
 21 24  1  0  0  0  0
 19 20  1  0  0  0  0
 19 21  1  0  0  0  0
M  CHG  1  15  -1
M  END
$$$$
default_name
  -OEChem-02102213163D

 24 23  0     1  0  0  0  0  0999 V2000
   -2.8347   -3.7166    0.8034 H   0  0  0  0  0  0  0  0  0  0  0  0
   -2.7728   -2.7096    0.3954 C   0  0  0  0  0  0  0  0  0  0  0  0
   -3.4267   -2.0426    0.9524 H   0  0  0  0  0  0  0  0  0  0  0  0
   -3.0538   -2.7186   -0.6556 H   0  0  0  0  0  0  0  0  0  0  0  0
   -1.3498   -2.2206    0.5184 C   0  0  0  0  0  0  0  0  0  0  0  0
   -0.4997   -2.9426    1.0194 O   0  0  0  0  0  0  0  0  0  0  0  0
   -1.1198   -0.9926    0.0674 N   0  0  0  0  0  0  0  0  0  0  0  0
   -1.8978   -0.4486   -0.2716 H   0  0  0  0  0  0  0  0  0  0  0  0
    0.1693   -0.2866    0.0854 C   0  0  1  0  0  0  0  0  0  0  0  0
    0.9043   -0.8713   -0.4705 H   0  0  0  0  0  0  0  0  0  0  0  0
    0.0106    1.0816   -0.6124 C   0  0  0  0  0  0  0  0  0  0  0  0
    0.6848    1.1178   -1.4699 H   0  0  0  0  0  0  0  0  0  0  0  0
   -1.0112    1.1685   -0.9883 H   0  0  0  0  0  0  0  0  0  0  0  0
    0.3272    2.2926    0.2790 C   0  0  0  0  0  0  0  0  0  0  0  0
   -0.6026    2.8053    0.9456 O   0  5  0  0  0  0  0  0  0  0  0  0
    1.5051    2.7107    0.2706 O   0  0  0  0  0  0  0  0  0  0  0  0
    0.6664   -0.1450    1.5428 C   0  0  0  0  0  0  0  0  0  0  0  0
    1.8485   -0.3724    1.8265 O   0  0  0  0  0  0  0  0  0  0  0  0
   -0.2161    0.2434    2.4686 N   0  0  0  0  0  0  0  0  0  0  0  0
   -1.1850    0.3219    2.1537 H   0  0  0  0  0  0  0  0  0  0  0  0
    0.0735    0.4128    3.8885 C   0  0  0  0  0  0  0  0  0  0  0  0
    1.0159    0.9483    4.0105 H   0  0  0  0  0  0  0  0  0  0  0  0
   -0.7315    0.9748    4.3613 H   0  0  0  0  0  0  0  0  0  0  0  0
    0.1564   -0.5677    4.3577 H   0  0  0  0  0  0  0  0  0  0  0  0
  5  6  2  0  0  0  0
  5  7  1  0  0  0  0
  2  3  1  0  0  0  0
  2  4  1  0  0  0  0
  2  5  1  0  0  0  0
  1  2  1  0  0  0  0
 17 18  2  0  0  0  0
 17 19  1  0  0  0  0
 14 15  1  0  0  0  0
 14 16  2  0  0  0  0
 11 12  1  0  0  0  0
 11 13  1  0  0  0  0
 11 14  1  0  0  0  0
  9 10  1  0  0  0  0
  9 11  1  0  0  0  0
  9 17  1  0  0  0  0
  7  8  1  0  0  0  0
  7  9  1  0  0  0  0
 21 22  1  0  0  0  0
 21 23  1  0  0  0  0
 21 24  1  0  0  0  0
 19 20  1  0  0  0  0
 19 21  1  0  0  0  0
M  CHG  1  15  -1
M  END
$$$$
default_name
  -OEChem-02102213163D

 24 23  0     1  0  0  0  0  0999 V2000
   -2.8347   -3.7166    0.8034 H   0  0  0  0  0  0  0  0  0  0  0  0
   -2.7728   -2.7096    0.3954 C   0  0  0  0  0  0  0  0  0  0  0  0
   -3.4267   -2.0426    0.9524 H   0  0  0  0  0  0  0  0  0  0  0  0
   -3.0538   -2.7186   -0.6556 H   0  0  0  0  0  0  0  0  0  0  0  0
   -1.3498   -2.2206    0.5184 C   0  0  0  0  0  0  0  0  0  0  0  0
   -0.4997   -2.9426    1.0194 O   0  0  0  0  0  0  0  0  0  0  0  0
   -1.1198   -0.9926    0.0674 N   0  0  0  0  0  0  0  0  0  0  0  0
   -1.8978   -0.4486   -0.2716 H   0  0  0  0  0  0  0  0  0  0  0  0
    0.1693   -0.2866    0.0854 C   0  0  1  0  0  0  0  0  0  0  0  0
    0.9043   -0.8713   -0.4705 H   0  0  0  0  0  0  0  0  0  0  0  0
    0.0106    1.0816   -0.6124 C   0  0  0  0  0  0  0  0  0  0  0  0
    0.6848    1.1178   -1.4699 H   0  0  0  0  0  0  0  0  0  0  0  0
   -1.0112    1.1685   -0.9883 H   0  0  0  0  0  0  0  0  0  0  0  0
    0.3272    2.2926    0.2790 C   0  0  0  0  0  0  0  0  0  0  0  0
   -0.5077    2.6287    1.1517 O   0  5  0  0  0  0  0  0  0  0  0  0
    1.4044    2.8890    0.0642 O   0  0  0  0  0  0  0  0  0  0  0  0
    0.6664   -0.1450    1.5428 C   0  0  0  0  0  0  0  0  0  0  0  0
    1.8485   -0.3724    1.8265 O   0  0  0  0  0  0  0  0  0  0  0  0
   -0.2161    0.2434    2.4686 N   0  0  0  0  0  0  0  0  0  0  0  0
   -1.1850    0.3219    2.1537 H   0  0  0  0  0  0  0  0  0  0  0  0
    0.0735    0.4128    3.8885 C   0  0  0  0  0  0  0  0  0  0  0  0
    1.0159    0.9483    4.0105 H   0  0  0  0  0  0  0  0  0  0  0  0
   -0.7315    0.9748    4.3613 H   0  0  0  0  0  0  0  0  0  0  0  0
    0.1564   -0.5677    4.3577 H   0  0  0  0  0  0  0  0  0  0  0  0
  5  6  2  0  0  0  0
  5  7  1  0  0  0  0
  2  3  1  0  0  0  0
  2  4  1  0  0  0  0
  2  5  1  0  0  0  0
  1  2  1  0  0  0  0
 17 18  2  0  0  0  0
 17 19  1  0  0  0  0
 14 15  1  0  0  0  0
 14 16  2  0  0  0  0
 11 12  1  0  0  0  0
 11 13  1  0  0  0  0
 11 14  1  0  0  0  0
  9 10  1  0  0  0  0
  9 11  1  0  0  0  0
  9 17  1  0  0  0  0
  7  8  1  0  0  0  0
  7  9  1  0  0  0  0
 21 22  1  0  0  0  0
 21 23  1  0  0  0  0
 21 24  1  0  0  0  0
 19 20  1  0  0  0  0
 19 21  1  0  0  0  0
M  CHG  1  15  -1
M  END
$$$$
default_name
  -OEChem-02102213163D

 24 23  0     1  0  0  0  0  0999 V2000
   -2.8347   -3.7166    0.8034 H   0  0  0  0  0  0  0  0  0  0  0  0
   -2.7728   -2.7096    0.3954 C   0  0  0  0  0  0  0  0  0  0  0  0
   -3.4267   -2.0426    0.9524 H   0  0  0  0  0  0  0  0  0  0  0  0
   -3.0538   -2.7186   -0.6556 H   0  0  0  0  0  0  0  0  0  0  0  0
   -1.3498   -2.2206    0.5184 C   0  0  0  0  0  0  0  0  0  0  0  0
   -0.4997   -2.9426    1.0194 O   0  0  0  0  0  0  0  0  0  0  0  0
   -1.1198   -0.9926    0.0674 N   0  0  0  0  0  0  0  0  0  0  0  0
   -1.8978   -0.4486   -0.2716 H   0  0  0  0  0  0  0  0  0  0  0  0
    0.1693   -0.2866    0.0854 C   0  0  1  0  0  0  0  0  0  0  0  0
    0.9043   -0.8713   -0.4705 H   0  0  0  0  0  0  0  0  0  0  0  0
    0.0106    1.0816   -0.6124 C   0  0  0  0  0  0  0  0  0  0  0  0
    0.6848    1.1178   -1.4699 H   0  0  0  0  0  0  0  0  0  0  0  0
   -1.0112    1.1685   -0.9883 H   0  0  0  0  0  0  0  0  0  0  0  0
    0.3272    2.2926    0.2790 C   0  0  0  0  0  0  0  0  0  0  0  0
   -0.3475    2.4615    1.3220 O   0  5  0  0  0  0  0  0  0  0  0  0
    1.2383    3.0571   -0.1052 O   0  0  0  0  0  0  0  0  0  0  0  0
    0.6664   -0.1450    1.5428 C   0  0  0  0  0  0  0  0  0  0  0  0
    1.8485   -0.3724    1.8265 O   0  0  0  0  0  0  0  0  0  0  0  0
   -0.2161    0.2434    2.4686 N   0  0  0  0  0  0  0  0  0  0  0  0
   -1.1850    0.3219    2.1537 H   0  0  0  0  0  0  0  0  0  0  0  0
    0.0735    0.4128    3.8885 C   0  0  0  0  0  0  0  0  0  0  0  0
    1.0159    0.9483    4.0105 H   0  0  0  0  0  0  0  0  0  0  0  0
   -0.7315    0.9748    4.3613 H   0  0  0  0  0  0  0  0  0  0  0  0
    0.1564   -0.5677    4.3577 H   0  0  0  0  0  0  0  0  0  0  0  0
  5  6  2  0  0  0  0
  5  7  1  0  0  0  0
  2  3  1  0  0  0  0
  2  4  1  0  0  0  0
  2  5  1  0  0  0  0
  1  2  1  0  0  0  0
 17 18  2  0  0  0  0
 17 19  1  0  0  0  0
 14 15  1  0  0  0  0
 14 16  2  0  0  0  0
 11 12  1  0  0  0  0
 11 13  1  0  0  0  0
 11 14  1  0  0  0  0
  9 10  1  0  0  0  0
  9 11  1  0  0  0  0
  9 17  1  0  0  0  0
  7  8  1  0  0  0  0
  7  9  1  0  0  0  0
 21 22  1  0  0  0  0
 21 23  1  0  0  0  0
 21 24  1  0  0  0  0
 19 20  1  0  0  0  0
 19 21  1  0  0  0  0
M  CHG  1  15  -1
M  END
$$$$
default_name
  -OEChem-02102213163D

 24 23  0     1  0  0  0  0  0999 V2000
   -2.8347   -3.7166    0.8034 H   0  0  0  0  0  0  0  0  0  0  0  0
   -2.7728   -2.7096    0.3954 C   0  0  0  0  0  0  0  0  0  0  0  0
   -3.4267   -2.0426    0.9524 H   0  0  0  0  0  0  0  0  0  0  0  0
   -3.0538   -2.7186   -0.6556 H   0  0  0  0  0  0  0  0  0  0  0  0
   -1.3498   -2.2206    0.5184 C   0  0  0  0  0  0  0  0  0  0  0  0
   -0.4997   -2.9426    1.0194 O   0  0  0  0  0  0  0  0  0  0  0  0
   -1.1198   -0.9926    0.0674 N   0  0  0  0  0  0  0  0  0  0  0  0
   -1.8978   -0.4486   -0.2716 H   0  0  0  0  0  0  0  0  0  0  0  0
    0.1693   -0.2866    0.0854 C   0  0  1  0  0  0  0  0  0  0  0  0
    0.9043   -0.8713   -0.4705 H   0  0  0  0  0  0  0  0  0  0  0  0
    0.0106    1.0816   -0.6124 C   0  0  0  0  0  0  0  0  0  0  0  0
    0.6848    1.1178   -1.4699 H   0  0  0  0  0  0  0  0  0  0  0  0
   -1.0112    1.1685   -0.9883 H   0  0  0  0  0  0  0  0  0  0  0  0
    0.3272    2.2926    0.2790 C   0  0  0  0  0  0  0  0  0  0  0  0
   -0.1329    2.3149    1.4450 O   0  5  0  0  0  0  0  0  0  0  0  0
    1.0181    3.2036   -0.2259 O   0  0  0  0  0  0  0  0  0  0  0  0
    0.6664   -0.1450    1.5428 C   0  0  0  0  0  0  0  0  0  0  0  0
    1.8485   -0.3724    1.8265 O   0  0  0  0  0  0  0  0  0  0  0  0
   -0.2161    0.2434    2.4686 N   0  0  0  0  0  0  0  0  0  0  0  0
   -1.1850    0.3219    2.1537 H   0  0  0  0  0  0  0  0  0  0  0  0
    0.0735    0.4128    3.8885 C   0  0  0  0  0  0  0  0  0  0  0  0
    1.0159    0.9483    4.0105 H   0  0  0  0  0  0  0  0  0  0  0  0
   -0.7315    0.9748    4.3613 H   0  0  0  0  0  0  0  0  0  0  0  0
    0.1564   -0.5677    4.3577 H   0  0  0  0  0  0  0  0  0  0  0  0
  5  6  2  0  0  0  0
  5  7  1  0  0  0  0
  2  3  1  0  0  0  0
  2  4  1  0  0  0  0
  2  5  1  0  0  0  0
  1  2  1  0  0  0  0
 17 18  2  0  0  0  0
 17 19  1  0  0  0  0
 14 15  1  0  0  0  0
 14 16  2  0  0  0  0
 11 12  1  0  0  0  0
 11 13  1  0  0  0  0
 11 14  1  0  0  0  0
  9 10  1  0  0  0  0
  9 11  1  0  0  0  0
  9 17  1  0  0  0  0
  7  8  1  0  0  0  0
  7  9  1  0  0  0  0
 21 22  1  0  0  0  0
 21 23  1  0  0  0  0
 21 24  1  0  0  0  0
 19 20  1  0  0  0  0
 19 21  1  0  0  0  0
M  CHG  1  15  -1
M  END
$$$$
default_name
  -OEChem-02102213163D

 24 23  0     1  0  0  0  0  0999 V2000
   -2.8347   -3.7166    0.8034 H   0  0  0  0  0  0  0  0  0  0  0  0
   -2.7728   -2.7096    0.3954 C   0  0  0  0  0  0  0  0  0  0  0  0
   -3.4267   -2.0426    0.9524 H   0  0  0  0  0  0  0  0  0  0  0  0
   -3.0538   -2.7186   -0.6556 H   0  0  0  0  0  0  0  0  0  0  0  0
   -1.3498   -2.2206    0.5184 C   0  0  0  0  0  0  0  0  0  0  0  0
   -0.4997   -2.9426    1.0194 O   0  0  0  0  0  0  0  0  0  0  0  0
   -1.1198   -0.9926    0.0674 N   0  0  0  0  0  0  0  0  0  0  0  0
   -1.8978   -0.4486   -0.2716 H   0  0  0  0  0  0  0  0  0  0  0  0
    0.1693   -0.2866    0.0854 C   0  0  1  0  0  0  0  0  0  0  0  0
    0.9043   -0.8713   -0.4705 H   0  0  0  0  0  0  0  0  0  0  0  0
    0.0106    1.0816   -0.6124 C   0  0  0  0  0  0  0  0  0  0  0  0
    0.6848    1.1178   -1.4699 H   0  0  0  0  0  0  0  0  0  0  0  0
   -1.0112    1.1685   -0.9883 H   0  0  0  0  0  0  0  0  0  0  0  0
    0.3272    2.2926    0.2790 C   0  0  0  0  0  0  0  0  0  0  0  0
    0.1214    2.1989    1.5121 O   0  5  0  0  0  0  0  0  0  0  0  0
    0.7588    3.3184   -0.2899 O   0  0  0  0  0  0  0  0  0  0  0  0
    0.6664   -0.1450    1.5428 C   0  0  0  0  0  0  0  0  0  0  0  0
    1.8485   -0.3724    1.8265 O   0  0  0  0  0  0  0  0  0  0  0  0
   -0.2161    0.2434    2.4686 N   0  0  0  0  0  0  0  0  0  0  0  0
   -1.1850    0.3219    2.1537 H   0  0  0  0  0  0  0  0  0  0  0  0
    0.0735    0.4128    3.8885 C   0  0  0  0  0  0  0  0  0  0  0  0
    1.0159    0.9483    4.0105 H   0  0  0  0  0  0  0  0  0  0  0  0
   -0.7315    0.9748    4.3613 H   0  0  0  0  0  0  0  0  0  0  0  0
    0.1564   -0.5677    4.3577 H   0  0  0  0  0  0  0  0  0  0  0  0
  5  6  2  0  0  0  0
  5  7  1  0  0  0  0
  2  3  1  0  0  0  0
  2  4  1  0  0  0  0
  2  5  1  0  0  0  0
  1  2  1  0  0  0  0
 17 18  2  0  0  0  0
 17 19  1  0  0  0  0
 14 15  1  0  0  0  0
 14 16  2  0  0  0  0
 11 12  1  0  0  0  0
 11 13  1  0  0  0  0
 11 14  1  0  0  0  0
  9 10  1  0  0  0  0
  9 11  1  0  0  0  0
  9 17  1  0  0  0  0
  7  8  1  0  0  0  0
  7  9  1  0  0  0  0
 21 22  1  0  0  0  0
 21 23  1  0  0  0  0
 21 24  1  0  0  0  0
 19 20  1  0  0  0  0
 19 21  1  0  0  0  0
M  CHG  1  15  -1
M  END
$$$$
default_name
  -OEChem-02102213163D

 24 23  0     1  0  0  0  0  0999 V2000
   -2.8347   -3.7166    0.8034 H   0  0  0  0  0  0  0  0  0  0  0  0
   -2.7728   -2.7096    0.3954 C   0  0  0  0  0  0  0  0  0  0  0  0
   -3.4267   -2.0426    0.9524 H   0  0  0  0  0  0  0  0  0  0  0  0
   -3.0538   -2.7186   -0.6556 H   0  0  0  0  0  0  0  0  0  0  0  0
   -1.3498   -2.2206    0.5184 C   0  0  0  0  0  0  0  0  0  0  0  0
   -0.4997   -2.9426    1.0194 O   0  0  0  0  0  0  0  0  0  0  0  0
   -1.1198   -0.9926    0.0674 N   0  0  0  0  0  0  0  0  0  0  0  0
   -1.8978   -0.4486   -0.2716 H   0  0  0  0  0  0  0  0  0  0  0  0
    0.1693   -0.2866    0.0854 C   0  0  1  0  0  0  0  0  0  0  0  0
    0.9043   -0.8713   -0.4705 H   0  0  0  0  0  0  0  0  0  0  0  0
    0.0106    1.0816   -0.6124 C   0  0  0  0  0  0  0  0  0  0  0  0
    0.6848    1.1178   -1.4699 H   0  0  0  0  0  0  0  0  0  0  0  0
   -1.0112    1.1685   -0.9883 H   0  0  0  0  0  0  0  0  0  0  0  0
    0.3272    2.2926    0.2790 C   0  0  0  0  0  0  0  0  0  0  0  0
    0.3982    2.1215    1.5189 O   0  5  0  0  0  0  0  0  0  0  0  0
    0.4780    3.3939   -0.2926 O   0  0  0  0  0  0  0  0  0  0  0  0
    0.6664   -0.1450    1.5428 C   0  0  0  0  0  0  0  0  0  0  0  0
    1.8485   -0.3724    1.8265 O   0  0  0  0  0  0  0  0  0  0  0  0
   -0.2161    0.2434    2.4686 N   0  0  0  0  0  0  0  0  0  0  0  0
   -1.1850    0.3219    2.1537 H   0  0  0  0  0  0  0  0  0  0  0  0
    0.0735    0.4128    3.8885 C   0  0  0  0  0  0  0  0  0  0  0  0
    1.0159    0.9483    4.0105 H   0  0  0  0  0  0  0  0  0  0  0  0
   -0.7315    0.9748    4.3613 H   0  0  0  0  0  0  0  0  0  0  0  0
    0.1564   -0.5677    4.3577 H   0  0  0  0  0  0  0  0  0  0  0  0
  5  6  2  0  0  0  0
  5  7  1  0  0  0  0
  2  3  1  0  0  0  0
  2  4  1  0  0  0  0
  2  5  1  0  0  0  0
  1  2  1  0  0  0  0
 17 18  2  0  0  0  0
 17 19  1  0  0  0  0
 14 15  1  0  0  0  0
 14 16  2  0  0  0  0
 11 12  1  0  0  0  0
 11 13  1  0  0  0  0
 11 14  1  0  0  0  0
  9 10  1  0  0  0  0
  9 11  1  0  0  0  0
  9 17  1  0  0  0  0
  7  8  1  0  0  0  0
  7  9  1  0  0  0  0
 21 22  1  0  0  0  0
 21 23  1  0  0  0  0
 21 24  1  0  0  0  0
 19 20  1  0  0  0  0
 19 21  1  0  0  0  0
M  CHG  1  15  -1
M  END
$$$$
default_name
  -OEChem-02102213163D

 24 23  0     1  0  0  0  0  0999 V2000
   -2.8347   -3.7166    0.8034 H   0  0  0  0  0  0  0  0  0  0  0  0
   -2.7728   -2.7096    0.3954 C   0  0  0  0  0  0  0  0  0  0  0  0
   -3.4267   -2.0426    0.9524 H   0  0  0  0  0  0  0  0  0  0  0  0
   -3.0538   -2.7186   -0.6556 H   0  0  0  0  0  0  0  0  0  0  0  0
   -1.3498   -2.2206    0.5184 C   0  0  0  0  0  0  0  0  0  0  0  0
   -0.4997   -2.9426    1.0194 O   0  0  0  0  0  0  0  0  0  0  0  0
   -1.1198   -0.9926    0.0674 N   0  0  0  0  0  0  0  0  0  0  0  0
   -1.8978   -0.4486   -0.2716 H   0  0  0  0  0  0  0  0  0  0  0  0
    0.1693   -0.2866    0.0854 C   0  0  1  0  0  0  0  0  0  0  0  0
    0.9043   -0.8713   -0.4705 H   0  0  0  0  0  0  0  0  0  0  0  0
    0.0106    1.0816   -0.6124 C   0  0  0  0  0  0  0  0  0  0  0  0
    0.6848    1.1178   -1.4699 H   0  0  0  0  0  0  0  0  0  0  0  0
   -1.0112    1.1685   -0.9883 H   0  0  0  0  0  0  0  0  0  0  0  0
    0.3272    2.2926    0.2790 C   0  0  0  0  0  0  0  0  0  0  0  0
    0.6786    2.0880    1.4649 O   0  5  0  0  0  0  0  0  0  0  0  0
    0.1949    3.4247   -0.2339 O   0  0  0  0  0  0  0  0  0  0  0  0
    0.6664   -0.1450    1.5428 C   0  0  0  0  0  0  0  0  0  0  0  0
    1.8485   -0.3724    1.8265 O   0  0  0  0  0  0  0  0  0  0  0  0
   -0.2161    0.2434    2.4686 N   0  0  0  0  0  0  0  0  0  0  0  0
   -1.1850    0.3219    2.1537 H   0  0  0  0  0  0  0  0  0  0  0  0
    0.0735    0.4128    3.8885 C   0  0  0  0  0  0  0  0  0  0  0  0
    1.0159    0.9483    4.0105 H   0  0  0  0  0  0  0  0  0  0  0  0
   -0.7315    0.9748    4.3613 H   0  0  0  0  0  0  0  0  0  0  0  0
    0.1564   -0.5677    4.3577 H   0  0  0  0  0  0  0  0  0  0  0  0
  5  6  2  0  0  0  0
  5  7  1  0  0  0  0
  2  3  1  0  0  0  0
  2  4  1  0  0  0  0
  2  5  1  0  0  0  0
  1  2  1  0  0  0  0
 17 18  2  0  0  0  0
 17 19  1  0  0  0  0
 14 15  1  0  0  0  0
 14 16  2  0  0  0  0
 11 12  1  0  0  0  0
 11 13  1  0  0  0  0
 11 14  1  0  0  0  0
  9 10  1  0  0  0  0
  9 11  1  0  0  0  0
  9 17  1  0  0  0  0
  7  8  1  0  0  0  0
  7  9  1  0  0  0  0
 21 22  1  0  0  0  0
 21 23  1  0  0  0  0
 21 24  1  0  0  0  0
 19 20  1  0  0  0  0
 19 21  1  0  0  0  0
M  CHG  1  15  -1
M  END
$$$$
default_name
  -OEChem-02102213163D

 24 23  0     1  0  0  0  0  0999 V2000
   -2.8347   -3.7166    0.8034 H   0  0  0  0  0  0  0  0  0  0  0  0
   -2.7728   -2.7096    0.3954 C   0  0  0  0  0  0  0  0  0  0  0  0
   -3.4267   -2.0426    0.9524 H   0  0  0  0  0  0  0  0  0  0  0  0
   -3.0538   -2.7186   -0.6556 H   0  0  0  0  0  0  0  0  0  0  0  0
   -1.3498   -2.2206    0.5184 C   0  0  0  0  0  0  0  0  0  0  0  0
   -0.4997   -2.9426    1.0194 O   0  0  0  0  0  0  0  0  0  0  0  0
   -1.1198   -0.9926    0.0674 N   0  0  0  0  0  0  0  0  0  0  0  0
   -1.8978   -0.4486   -0.2716 H   0  0  0  0  0  0  0  0  0  0  0  0
    0.1693   -0.2866    0.0854 C   0  0  1  0  0  0  0  0  0  0  0  0
    0.9043   -0.8713   -0.4705 H   0  0  0  0  0  0  0  0  0  0  0  0
    0.0106    1.0816   -0.6124 C   0  0  0  0  0  0  0  0  0  0  0  0
    0.6848    1.1178   -1.4699 H   0  0  0  0  0  0  0  0  0  0  0  0
   -1.0112    1.1685   -0.9883 H   0  0  0  0  0  0  0  0  0  0  0  0
    0.3272    2.2926    0.2790 C   0  0  0  0  0  0  0  0  0  0  0  0
    0.9434    2.1005    1.3538 O   0  5  0  0  0  0  0  0  0  0  0  0
   -0.0711    3.4088   -0.1178 O   0  0  0  0  0  0  0  0  0  0  0  0
    0.6664   -0.1450    1.5428 C   0  0  0  0  0  0  0  0  0  0  0  0
    1.8485   -0.3724    1.8265 O   0  0  0  0  0  0  0  0  0  0  0  0
   -0.2161    0.2434    2.4686 N   0  0  0  0  0  0  0  0  0  0  0  0
   -1.1850    0.3219    2.1537 H   0  0  0  0  0  0  0  0  0  0  0  0
    0.0735    0.4128    3.8885 C   0  0  0  0  0  0  0  0  0  0  0  0
    1.0159    0.9483    4.0105 H   0  0  0  0  0  0  0  0  0  0  0  0
   -0.7315    0.9748    4.3613 H   0  0  0  0  0  0  0  0  0  0  0  0
    0.1564   -0.5677    4.3577 H   0  0  0  0  0  0  0  0  0  0  0  0
  5  6  2  0  0  0  0
  5  7  1  0  0  0  0
  2  3  1  0  0  0  0
  2  4  1  0  0  0  0
  2  5  1  0  0  0  0
  1  2  1  0  0  0  0
 17 18  2  0  0  0  0
 17 19  1  0  0  0  0
 14 15  1  0  0  0  0
 14 16  2  0  0  0  0
 11 12  1  0  0  0  0
 11 13  1  0  0  0  0
 11 14  1  0  0  0  0
  9 10  1  0  0  0  0
  9 11  1  0  0  0  0
  9 17  1  0  0  0  0
  7  8  1  0  0  0  0
  7  9  1  0  0  0  0
 21 22  1  0  0  0  0
 21 23  1  0  0  0  0
 21 24  1  0  0  0  0
 19 20  1  0  0  0  0
 19 21  1  0  0  0  0
M  CHG  1  15  -1
M  END
$$$$
default_name
  -OEChem-02102213163D

 24 23  0     1  0  0  0  0  0999 V2000
   -2.8347   -3.7166    0.8034 H   0  0  0  0  0  0  0  0  0  0  0  0
   -2.7728   -2.7096    0.3954 C   0  0  0  0  0  0  0  0  0  0  0  0
   -3.4267   -2.0426    0.9524 H   0  0  0  0  0  0  0  0  0  0  0  0
   -3.0538   -2.7186   -0.6556 H   0  0  0  0  0  0  0  0  0  0  0  0
   -1.3498   -2.2206    0.5184 C   0  0  0  0  0  0  0  0  0  0  0  0
   -0.4997   -2.9426    1.0194 O   0  0  0  0  0  0  0  0  0  0  0  0
   -1.1198   -0.9926    0.0674 N   0  0  0  0  0  0  0  0  0  0  0  0
   -1.8978   -0.4486   -0.2716 H   0  0  0  0  0  0  0  0  0  0  0  0
    0.1693   -0.2866    0.0854 C   0  0  1  0  0  0  0  0  0  0  0  0
    0.9043   -0.8713   -0.4705 H   0  0  0  0  0  0  0  0  0  0  0  0
    0.0106    1.0816   -0.6124 C   0  0  0  0  0  0  0  0  0  0  0  0
    0.6848    1.1178   -1.4699 H   0  0  0  0  0  0  0  0  0  0  0  0
   -1.0112    1.1685   -0.9883 H   0  0  0  0  0  0  0  0  0  0  0  0
    0.3272    2.2926    0.2790 C   0  0  0  0  0  0  0  0  0  0  0  0
    1.1747    2.1584    1.1931 O   0  5  0  0  0  0  0  0  0  0  0  0
   -0.3021    3.3474    0.0477 O   0  0  0  0  0  0  0  0  0  0  0  0
    0.6664   -0.1450    1.5428 C   0  0  0  0  0  0  0  0  0  0  0  0
    1.8485   -0.3724    1.8265 O   0  0  0  0  0  0  0  0  0  0  0  0
   -0.2161    0.2434    2.4686 N   0  0  0  0  0  0  0  0  0  0  0  0
   -1.1850    0.3219    2.1537 H   0  0  0  0  0  0  0  0  0  0  0  0
    0.0735    0.4128    3.8885 C   0  0  0  0  0  0  0  0  0  0  0  0
    1.0159    0.9483    4.0105 H   0  0  0  0  0  0  0  0  0  0  0  0
   -0.7315    0.9748    4.3613 H   0  0  0  0  0  0  0  0  0  0  0  0
    0.1564   -0.5677    4.3577 H   0  0  0  0  0  0  0  0  0  0  0  0
  5  6  2  0  0  0  0
  5  7  1  0  0  0  0
  2  3  1  0  0  0  0
  2  4  1  0  0  0  0
  2  5  1  0  0  0  0
  1  2  1  0  0  0  0
 17 18  2  0  0  0  0
 17 19  1  0  0  0  0
 14 15  1  0  0  0  0
 14 16  2  0  0  0  0
 11 12  1  0  0  0  0
 11 13  1  0  0  0  0
 11 14  1  0  0  0  0
  9 10  1  0  0  0  0
  9 11  1  0  0  0  0
  9 17  1  0  0  0  0
  7  8  1  0  0  0  0
  7  9  1  0  0  0  0
 21 22  1  0  0  0  0
 21 23  1  0  0  0  0
 21 24  1  0  0  0  0
 19 20  1  0  0  0  0
 19 21  1  0  0  0  0
M  CHG  1  15  -1
M  END
$$$$
default_name
  -OEChem-02102213163D

 24 23  0     1  0  0  0  0  0999 V2000
   -2.8347   -3.7166    0.8034 H   0  0  0  0  0  0  0  0  0  0  0  0
   -2.7728   -2.7096    0.3954 C   0  0  0  0  0  0  0  0  0  0  0  0
   -3.4267   -2.0426    0.9524 H   0  0  0  0  0  0  0  0  0  0  0  0
   -3.0538   -2.7186   -0.6556 H   0  0  0  0  0  0  0  0  0  0  0  0
   -1.3498   -2.2206    0.5184 C   0  0  0  0  0  0  0  0  0  0  0  0
   -0.4997   -2.9426    1.0194 O   0  0  0  0  0  0  0  0  0  0  0  0
   -1.1198   -0.9926    0.0674 N   0  0  0  0  0  0  0  0  0  0  0  0
   -1.8978   -0.4486   -0.2716 H   0  0  0  0  0  0  0  0  0  0  0  0
    0.1693   -0.2866    0.0854 C   0  0  1  0  0  0  0  0  0  0  0  0
    0.9043   -0.8713   -0.4705 H   0  0  0  0  0  0  0  0  0  0  0  0
    0.0106    1.0816   -0.6124 C   0  0  0  0  0  0  0  0  0  0  0  0
    0.6848    1.1178   -1.4699 H   0  0  0  0  0  0  0  0  0  0  0  0
   -1.0112    1.1685   -0.9883 H   0  0  0  0  0  0  0  0  0  0  0  0
    0.3272    2.2926    0.2790 C   0  0  0  0  0  0  0  0  0  0  0  0
    1.3566    2.2575    0.9937 O   0  5  0  0  0  0  0  0  0  0  0  0
   -0.4822    3.2445    0.2514 O   0  0  0  0  0  0  0  0  0  0  0  0
    0.6664   -0.1450    1.5428 C   0  0  0  0  0  0  0  0  0  0  0  0
    1.8485   -0.3724    1.8265 O   0  0  0  0  0  0  0  0  0  0  0  0
   -0.2161    0.2434    2.4686 N   0  0  0  0  0  0  0  0  0  0  0  0
   -1.1850    0.3219    2.1537 H   0  0  0  0  0  0  0  0  0  0  0  0
    0.0735    0.4128    3.8885 C   0  0  0  0  0  0  0  0  0  0  0  0
    1.0159    0.9483    4.0105 H   0  0  0  0  0  0  0  0  0  0  0  0
   -0.7315    0.9748    4.3613 H   0  0  0  0  0  0  0  0  0  0  0  0
    0.1564   -0.5677    4.3577 H   0  0  0  0  0  0  0  0  0  0  0  0
  5  6  2  0  0  0  0
  5  7  1  0  0  0  0
  2  3  1  0  0  0  0
  2  4  1  0  0  0  0
  2  5  1  0  0  0  0
  1  2  1  0  0  0  0
 17 18  2  0  0  0  0
 17 19  1  0  0  0  0
 14 15  1  0  0  0  0
 14 16  2  0  0  0  0
 11 12  1  0  0  0  0
 11 13  1  0  0  0  0
 11 14  1  0  0  0  0
  9 10  1  0  0  0  0
  9 11  1  0  0  0  0
  9 17  1  0  0  0  0
  7  8  1  0  0  0  0
  7  9  1  0  0  0  0
 21 22  1  0  0  0  0
 21 23  1  0  0  0  0
 21 24  1  0  0  0  0
 19 20  1  0  0  0  0
 19 21  1  0  0  0  0
M  CHG  1  15  -1
M  END
$$$$
default_name
  -OEChem-02102213163D

 24 23  0     1  0  0  0  0  0999 V2000
   -2.8347   -3.7166    0.8034 H   0  0  0  0  0  0  0  0  0  0  0  0
   -2.7728   -2.7096    0.3954 C   0  0  0  0  0  0  0  0  0  0  0  0
   -3.4267   -2.0426    0.9524 H   0  0  0  0  0  0  0  0  0  0  0  0
   -3.0538   -2.7186   -0.6556 H   0  0  0  0  0  0  0  0  0  0  0  0
   -1.3498   -2.2206    0.5184 C   0  0  0  0  0  0  0  0  0  0  0  0
   -0.4997   -2.9426    1.0194 O   0  0  0  0  0  0  0  0  0  0  0  0
   -1.1198   -0.9926    0.0674 N   0  0  0  0  0  0  0  0  0  0  0  0
   -1.8978   -0.4486   -0.2716 H   0  0  0  0  0  0  0  0  0  0  0  0
    0.1693   -0.2866    0.0854 C   0  0  1  0  0  0  0  0  0  0  0  0
    0.9043   -0.8713   -0.4705 H   0  0  0  0  0  0  0  0  0  0  0  0
    0.0106    1.0816   -0.6124 C   0  0  0  0  0  0  0  0  0  0  0  0
    0.6848    1.1178   -1.4699 H   0  0  0  0  0  0  0  0  0  0  0  0
   -1.0112    1.1685   -0.9883 H   0  0  0  0  0  0  0  0  0  0  0  0
    0.3272    2.2926    0.2790 C   0  0  0  0  0  0  0  0  0  0  0  0
    1.4768    2.3912    0.7694 O   0  5  0  0  0  0  0  0  0  0  0  0
   -0.5992    3.1073    0.4794 O   0  0  0  0  0  0  0  0  0  0  0  0
    0.6664   -0.1450    1.5428 C   0  0  0  0  0  0  0  0  0  0  0  0
    1.8485   -0.3724    1.8265 O   0  0  0  0  0  0  0  0  0  0  0  0
   -0.2161    0.2434    2.4686 N   0  0  0  0  0  0  0  0  0  0  0  0
   -1.1850    0.3219    2.1537 H   0  0  0  0  0  0  0  0  0  0  0  0
    0.0735    0.4128    3.8885 C   0  0  0  0  0  0  0  0  0  0  0  0
    1.0159    0.9483    4.0105 H   0  0  0  0  0  0  0  0  0  0  0  0
   -0.7315    0.9748    4.3613 H   0  0  0  0  0  0  0  0  0  0  0  0
    0.1564   -0.5677    4.3577 H   0  0  0  0  0  0  0  0  0  0  0  0
  5  6  2  0  0  0  0
  5  7  1  0  0  0  0
  2  3  1  0  0  0  0
  2  4  1  0  0  0  0
  2  5  1  0  0  0  0
  1  2  1  0  0  0  0
 17 18  2  0  0  0  0
 17 19  1  0  0  0  0
 14 15  1  0  0  0  0
 14 16  2  0  0  0  0
 11 12  1  0  0  0  0
 11 13  1  0  0  0  0
 11 14  1  0  0  0  0
  9 10  1  0  0  0  0
  9 11  1  0  0  0  0
  9 17  1  0  0  0  0
  7  8  1  0  0  0  0
  7  9  1  0  0  0  0
 21 22  1  0  0  0  0
 21 23  1  0  0  0  0
 21 24  1  0  0  0  0
 19 20  1  0  0  0  0
 19 21  1  0  0  0  0
M  CHG  1  15  -1
M  END
$$$$
default_name
  -OEChem-02102213163D

 24 23  0     1  0  0  0  0  0999 V2000
   -2.8347   -3.7166    0.8034 H   0  0  0  0  0  0  0  0  0  0  0  0
   -2.7728   -2.7096    0.3954 C   0  0  0  0  0  0  0  0  0  0  0  0
   -3.4267   -2.0426    0.9524 H   0  0  0  0  0  0  0  0  0  0  0  0
   -3.0538   -2.7186   -0.6556 H   0  0  0  0  0  0  0  0  0  0  0  0
   -1.3498   -2.2206    0.5184 C   0  0  0  0  0  0  0  0  0  0  0  0
   -0.4997   -2.9426    1.0194 O   0  0  0  0  0  0  0  0  0  0  0  0
   -1.1198   -0.9926    0.0674 N   0  0  0  0  0  0  0  0  0  0  0  0
   -1.8978   -0.4486   -0.2716 H   0  0  0  0  0  0  0  0  0  0  0  0
    0.1693   -0.2866    0.0854 C   0  0  1  0  0  0  0  0  0  0  0  0
    0.9043   -0.8713   -0.4705 H   0  0  0  0  0  0  0  0  0  0  0  0
    0.0106    1.0816   -0.6124 C   0  0  0  0  0  0  0  0  0  0  0  0
    0.6848    1.1178   -1.4699 H   0  0  0  0  0  0  0  0  0  0  0  0
   -1.0112    1.1685   -0.9883 H   0  0  0  0  0  0  0  0  0  0  0  0
    0.3272    2.2926    0.2790 C   0  0  0  0  0  0  0  0  0  0  0  0
    1.5270    2.5504    0.5353 O   0  5  0  0  0  0  0  0  0  0  0  0
   -0.6451    2.9450    0.7162 O   0  0  0  0  0  0  0  0  0  0  0  0
    0.6664   -0.1450    1.5428 C   0  0  0  0  0  0  0  0  0  0  0  0
    1.8485   -0.3724    1.8265 O   0  0  0  0  0  0  0  0  0  0  0  0
   -0.2161    0.2434    2.4686 N   0  0  0  0  0  0  0  0  0  0  0  0
   -1.1850    0.3219    2.1537 H   0  0  0  0  0  0  0  0  0  0  0  0
    0.0735    0.4128    3.8885 C   0  0  0  0  0  0  0  0  0  0  0  0
    1.0159    0.9483    4.0105 H   0  0  0  0  0  0  0  0  0  0  0  0
   -0.7315    0.9748    4.3613 H   0  0  0  0  0  0  0  0  0  0  0  0
    0.1564   -0.5677    4.3577 H   0  0  0  0  0  0  0  0  0  0  0  0
  5  6  2  0  0  0  0
  5  7  1  0  0  0  0
  2  3  1  0  0  0  0
  2  4  1  0  0  0  0
  2  5  1  0  0  0  0
  1  2  1  0  0  0  0
 17 18  2  0  0  0  0
 17 19  1  0  0  0  0
 14 15  1  0  0  0  0
 14 16  2  0  0  0  0
 11 12  1  0  0  0  0
 11 13  1  0  0  0  0
 11 14  1  0  0  0  0
  9 10  1  0  0  0  0
  9 11  1  0  0  0  0
  9 17  1  0  0  0  0
  7  8  1  0  0  0  0
  7  9  1  0  0  0  0
 21 22  1  0  0  0  0
 21 23  1  0  0  0  0
 21 24  1  0  0  0  0
 19 20  1  0  0  0  0
 19 21  1  0  0  0  0
M  CHG  1  15  -1
M  END
$$$$
default_name
  -OEChem-02102213163D

 24 23  0     1  0  0  0  0  0999 V2000
   -2.8347   -3.7166    0.8034 H   0  0  0  0  0  0  0  0  0  0  0  0
   -2.7728   -2.7096    0.3954 C   0  0  0  0  0  0  0  0  0  0  0  0
   -3.4267   -2.0426    0.9524 H   0  0  0  0  0  0  0  0  0  0  0  0
   -3.0538   -2.7186   -0.6556 H   0  0  0  0  0  0  0  0  0  0  0  0
   -1.3498   -2.2206    0.5184 C   0  0  0  0  0  0  0  0  0  0  0  0
   -0.4997   -2.9426    1.0194 O   0  0  0  0  0  0  0  0  0  0  0  0
   -1.1198   -0.9926    0.0674 N   0  0  0  0  0  0  0  0  0  0  0  0
   -1.8978   -0.4486   -0.2716 H   0  0  0  0  0  0  0  0  0  0  0  0
    0.1693   -0.2866    0.0854 C   0  0  1  0  0  0  0  0  0  0  0  0
    0.9043   -0.8713   -0.4705 H   0  0  0  0  0  0  0  0  0  0  0  0
    0.0106    1.0816   -0.6124 C   0  0  0  0  0  0  0  0  0  0  0  0
    0.6848    1.1178   -1.4699 H   0  0  0  0  0  0  0  0  0  0  0  0
   -1.0112    1.1685   -0.9883 H   0  0  0  0  0  0  0  0  0  0  0  0
    0.3272    2.2926    0.2790 C   0  0  0  0  0  0  0  0  0  0  0  0
    1.5039    2.7241    0.3075 O   0  5  0  0  0  0  0  0  0  0  0  0
   -0.6168    2.7687    0.9457 O   0  0  0  0  0  0  0  0  0  0  0  0
    0.6664   -0.1450    1.5428 C   0  0  0  0  0  0  0  0  0  0  0  0
    1.8485   -0.3724    1.8265 O   0  0  0  0  0  0  0  0  0  0  0  0
   -0.2161    0.2434    2.4686 N   0  0  0  0  0  0  0  0  0  0  0  0
   -1.1850    0.3219    2.1537 H   0  0  0  0  0  0  0  0  0  0  0  0
    0.0735    0.4128    3.8885 C   0  0  0  0  0  0  0  0  0  0  0  0
    1.0159    0.9483    4.0105 H   0  0  0  0  0  0  0  0  0  0  0  0
   -0.7315    0.9748    4.3613 H   0  0  0  0  0  0  0  0  0  0  0  0
    0.1564   -0.5677    4.3577 H   0  0  0  0  0  0  0  0  0  0  0  0
  5  6  2  0  0  0  0
  5  7  1  0  0  0  0
  2  3  1  0  0  0  0
  2  4  1  0  0  0  0
  2  5  1  0  0  0  0
  1  2  1  0  0  0  0
 17 18  2  0  0  0  0
 17 19  1  0  0  0  0
 14 15  1  0  0  0  0
 14 16  2  0  0  0  0
 11 12  1  0  0  0  0
 11 13  1  0  0  0  0
 11 14  1  0  0  0  0
  9 10  1  0  0  0  0
  9 11  1  0  0  0  0
  9 17  1  0  0  0  0
  7  8  1  0  0  0  0
  7  9  1  0  0  0  0
 21 22  1  0  0  0  0
 21 23  1  0  0  0  0
 21 24  1  0  0  0  0
 19 20  1  0  0  0  0
 19 21  1  0  0  0  0
M  CHG  1  15  -1
M  END
$$$$
default_name
  -OEChem-02102213163D

 24 23  0     1  0  0  0  0  0999 V2000
   -2.8347   -3.7166    0.8034 H   0  0  0  0  0  0  0  0  0  0  0  0
   -2.7728   -2.7096    0.3954 C   0  0  0  0  0  0  0  0  0  0  0  0
   -3.4267   -2.0426    0.9524 H   0  0  0  0  0  0  0  0  0  0  0  0
   -3.0538   -2.7186   -0.6556 H   0  0  0  0  0  0  0  0  0  0  0  0
   -1.3498   -2.2206    0.5184 C   0  0  0  0  0  0  0  0  0  0  0  0
   -0.4997   -2.9426    1.0194 O   0  0  0  0  0  0  0  0  0  0  0  0
   -1.1198   -0.9926    0.0674 N   0  0  0  0  0  0  0  0  0  0  0  0
   -1.8978   -0.4486   -0.2716 H   0  0  0  0  0  0  0  0  0  0  0  0
    0.1693   -0.2866    0.0854 C   0  0  1  0  0  0  0  0  0  0  0  0
    0.9043   -0.8713   -0.4705 H   0  0  0  0  0  0  0  0  0  0  0  0
    0.0106    1.0816   -0.6124 C   0  0  0  0  0  0  0  0  0  0  0  0
    0.6848    1.1178   -1.4699 H   0  0  0  0  0  0  0  0  0  0  0  0
   -1.0112    1.1685   -0.9883 H   0  0  0  0  0  0  0  0  0  0  0  0
    0.3272    2.2926    0.2790 C   0  0  0  0  0  0  0  0  0  0  0  0
    1.4091    2.9007    0.1014 O   0  5  0  0  0  0  0  0  0  0  0  0
   -0.5161    2.5904    1.1521 O   0  0  0  0  0  0  0  0  0  0  0  0
    0.6664   -0.1450    1.5428 C   0  0  0  0  0  0  0  0  0  0  0  0
    1.8485   -0.3724    1.8265 O   0  0  0  0  0  0  0  0  0  0  0  0
   -0.2161    0.2434    2.4686 N   0  0  0  0  0  0  0  0  0  0  0  0
   -1.1850    0.3219    2.1537 H   0  0  0  0  0  0  0  0  0  0  0  0
    0.0735    0.4128    3.8885 C   0  0  0  0  0  0  0  0  0  0  0  0
    1.0159    0.9483    4.0105 H   0  0  0  0  0  0  0  0  0  0  0  0
   -0.7315    0.9748    4.3613 H   0  0  0  0  0  0  0  0  0  0  0  0
    0.1564   -0.5677    4.3577 H   0  0  0  0  0  0  0  0  0  0  0  0
  5  6  2  0  0  0  0
  5  7  1  0  0  0  0
  2  3  1  0  0  0  0
  2  4  1  0  0  0  0
  2  5  1  0  0  0  0
  1  2  1  0  0  0  0
 17 18  2  0  0  0  0
 17 19  1  0  0  0  0
 14 15  1  0  0  0  0
 14 16  2  0  0  0  0
 11 12  1  0  0  0  0
 11 13  1  0  0  0  0
 11 14  1  0  0  0  0
  9 10  1  0  0  0  0
  9 11  1  0  0  0  0
  9 17  1  0  0  0  0
  7  8  1  0  0  0  0
  7  9  1  0  0  0  0
 21 22  1  0  0  0  0
 21 23  1  0  0  0  0
 21 24  1  0  0  0  0
 19 20  1  0  0  0  0
 19 21  1  0  0  0  0
M  CHG  1  15  -1
M  END
$$$$
default_name
  -OEChem-02102213163D

 24 23  0     1  0  0  0  0  0999 V2000
   -2.8347   -3.7166    0.8034 H   0  0  0  0  0  0  0  0  0  0  0  0
   -2.7728   -2.7096    0.3954 C   0  0  0  0  0  0  0  0  0  0  0  0
   -3.4267   -2.0426    0.9524 H   0  0  0  0  0  0  0  0  0  0  0  0
   -3.0538   -2.7186   -0.6556 H   0  0  0  0  0  0  0  0  0  0  0  0
   -1.3498   -2.2206    0.5184 C   0  0  0  0  0  0  0  0  0  0  0  0
   -0.4997   -2.9426    1.0194 O   0  0  0  0  0  0  0  0  0  0  0  0
   -1.1198   -0.9926    0.0674 N   0  0  0  0  0  0  0  0  0  0  0  0
   -1.8978   -0.4486   -0.2716 H   0  0  0  0  0  0  0  0  0  0  0  0
    0.1693   -0.2866    0.0854 C   0  0  1  0  0  0  0  0  0  0  0  0
    0.9043   -0.8713   -0.4705 H   0  0  0  0  0  0  0  0  0  0  0  0
    0.0106    1.0816   -0.6124 C   0  0  0  0  0  0  0  0  0  0  0  0
    0.6848    1.1178   -1.4699 H   0  0  0  0  0  0  0  0  0  0  0  0
   -1.0112    1.1685   -0.9883 H   0  0  0  0  0  0  0  0  0  0  0  0
    0.3272    2.2926    0.2790 C   0  0  0  0  0  0  0  0  0  0  0  0
    1.2489    3.0680   -0.0690 O   0  5  0  0  0  0  0  0  0  0  0  0
   -0.3500    2.4223    1.3214 O   0  0  0  0  0  0  0  0  0  0  0  0
    0.6664   -0.1450    1.5428 C   0  0  0  0  0  0  0  0  0  0  0  0
    1.8485   -0.3724    1.8265 O   0  0  0  0  0  0  0  0  0  0  0  0
   -0.2161    0.2434    2.4686 N   0  0  0  0  0  0  0  0  0  0  0  0
   -1.1850    0.3219    2.1537 H   0  0  0  0  0  0  0  0  0  0  0  0
    0.0735    0.4128    3.8885 C   0  0  0  0  0  0  0  0  0  0  0  0
    1.0159    0.9483    4.0105 H   0  0  0  0  0  0  0  0  0  0  0  0
   -0.7315    0.9748    4.3613 H   0  0  0  0  0  0  0  0  0  0  0  0
    0.1564   -0.5677    4.3577 H   0  0  0  0  0  0  0  0  0  0  0  0
  5  6  2  0  0  0  0
  5  7  1  0  0  0  0
  2  3  1  0  0  0  0
  2  4  1  0  0  0  0
  2  5  1  0  0  0  0
  1  2  1  0  0  0  0
 17 18  2  0  0  0  0
 17 19  1  0  0  0  0
 14 15  1  0  0  0  0
 14 16  2  0  0  0  0
 11 12  1  0  0  0  0
 11 13  1  0  0  0  0
 11 14  1  0  0  0  0
  9 10  1  0  0  0  0
  9 11  1  0  0  0  0
  9 17  1  0  0  0  0
  7  8  1  0  0  0  0
  7  9  1  0  0  0  0
 21 22  1  0  0  0  0
 21 23  1  0  0  0  0
 21 24  1  0  0  0  0
 19 20  1  0  0  0  0
 19 21  1  0  0  0  0
M  CHG  1  15  -1
M  END
$$$$
default_name
  -OEChem-02102213163D

 24 23  0     1  0  0  0  0  0999 V2000
   -2.8347   -3.7166    0.8034 H   0  0  0  0  0  0  0  0  0  0  0  0
   -2.7728   -2.7096    0.3954 C   0  0  0  0  0  0  0  0  0  0  0  0
   -3.4267   -2.0426    0.9524 H   0  0  0  0  0  0  0  0  0  0  0  0
   -3.0538   -2.7186   -0.6556 H   0  0  0  0  0  0  0  0  0  0  0  0
   -1.3498   -2.2206    0.5184 C   0  0  0  0  0  0  0  0  0  0  0  0
   -0.4997   -2.9426    1.0194 O   0  0  0  0  0  0  0  0  0  0  0  0
   -1.1198   -0.9926    0.0674 N   0  0  0  0  0  0  0  0  0  0  0  0
   -1.8978   -0.4486   -0.2716 H   0  0  0  0  0  0  0  0  0  0  0  0
    0.1693   -0.2866    0.0854 C   0  0  1  0  0  0  0  0  0  0  0  0
    0.9043   -0.8713   -0.4705 H   0  0  0  0  0  0  0  0  0  0  0  0
    0.0106    1.0816   -0.6124 C   0  0  0  0  0  0  0  0  0  0  0  0
    0.6848    1.1178   -1.4699 H   0  0  0  0  0  0  0  0  0  0  0  0
   -1.0112    1.1685   -0.9883 H   0  0  0  0  0  0  0  0  0  0  0  0
    0.3272    2.2926    0.2790 C   0  0  0  0  0  0  0  0  0  0  0  0
    1.0343    3.2146   -0.1919 O   0  5  0  0  0  0  0  0  0  0  0  0
   -0.1298    2.2758    1.4422 O   0  0  0  0  0  0  0  0  0  0  0  0
    0.6664   -0.1450    1.5428 C   0  0  0  0  0  0  0  0  0  0  0  0
    1.8485   -0.3724    1.8265 O   0  0  0  0  0  0  0  0  0  0  0  0
   -0.2161    0.2434    2.4686 N   0  0  0  0  0  0  0  0  0  0  0  0
   -1.1850    0.3219    2.1537 H   0  0  0  0  0  0  0  0  0  0  0  0
    0.0735    0.4128    3.8885 C   0  0  0  0  0  0  0  0  0  0  0  0
    1.0159    0.9483    4.0105 H   0  0  0  0  0  0  0  0  0  0  0  0
   -0.7315    0.9748    4.3613 H   0  0  0  0  0  0  0  0  0  0  0  0
    0.1564   -0.5677    4.3577 H   0  0  0  0  0  0  0  0  0  0  0  0
  5  6  2  0  0  0  0
  5  7  1  0  0  0  0
  2  3  1  0  0  0  0
  2  4  1  0  0  0  0
  2  5  1  0  0  0  0
  1  2  1  0  0  0  0
 17 18  2  0  0  0  0
 17 19  1  0  0  0  0
 14 15  1  0  0  0  0
 14 16  2  0  0  0  0
 11 12  1  0  0  0  0
 11 13  1  0  0  0  0
 11 14  1  0  0  0  0
  9 10  1  0  0  0  0
  9 11  1  0  0  0  0
  9 17  1  0  0  0  0
  7  8  1  0  0  0  0
  7  9  1  0  0  0  0
 21 22  1  0  0  0  0
 21 23  1  0  0  0  0
 21 24  1  0  0  0  0
 19 20  1  0  0  0  0
 19 21  1  0  0  0  0
M  CHG  1  15  -1
M  END
$$$$
default_name
  -OEChem-02102213163D

 24 23  0     1  0  0  0  0  0999 V2000
   -2.8347   -3.7166    0.8034 H   0  0  0  0  0  0  0  0  0  0  0  0
   -2.7728   -2.7096    0.3954 C   0  0  0  0  0  0  0  0  0  0  0  0
   -3.4267   -2.0426    0.9524 H   0  0  0  0  0  0  0  0  0  0  0  0
   -3.0538   -2.7186   -0.6556 H   0  0  0  0  0  0  0  0  0  0  0  0
   -1.3498   -2.2206    0.5184 C   0  0  0  0  0  0  0  0  0  0  0  0
   -0.4997   -2.9426    1.0194 O   0  0  0  0  0  0  0  0  0  0  0  0
   -1.1198   -0.9926    0.0674 N   0  0  0  0  0  0  0  0  0  0  0  0
   -1.8978   -0.4486   -0.2716 H   0  0  0  0  0  0  0  0  0  0  0  0
    0.1693   -0.2866    0.0854 C   0  0  1  0  0  0  0  0  0  0  0  0
    0.9043   -0.8713   -0.4705 H   0  0  0  0  0  0  0  0  0  0  0  0
    0.0106    1.0816   -0.6124 C   0  0  0  0  0  0  0  0  0  0  0  0
    0.6848    1.1178   -1.4699 H   0  0  0  0  0  0  0  0  0  0  0  0
   -1.0112    1.1685   -0.9883 H   0  0  0  0  0  0  0  0  0  0  0  0
    0.3272    2.2926    0.2790 C   0  0  0  0  0  0  0  0  0  0  0  0
    0.7799    3.3305   -0.2590 O   0  5  0  0  0  0  0  0  0  0  0  0
    0.1295    2.1610    1.5061 O   0  0  0  0  0  0  0  0  0  0  0  0
    0.6664   -0.1450    1.5428 C   0  0  0  0  0  0  0  0  0  0  0  0
    1.8485   -0.3724    1.8265 O   0  0  0  0  0  0  0  0  0  0  0  0
   -0.2161    0.2434    2.4686 N   0  0  0  0  0  0  0  0  0  0  0  0
   -1.1850    0.3219    2.1537 H   0  0  0  0  0  0  0  0  0  0  0  0
    0.0735    0.4128    3.8885 C   0  0  0  0  0  0  0  0  0  0  0  0
    1.0159    0.9483    4.0105 H   0  0  0  0  0  0  0  0  0  0  0  0
   -0.7315    0.9748    4.3613 H   0  0  0  0  0  0  0  0  0  0  0  0
    0.1564   -0.5677    4.3577 H   0  0  0  0  0  0  0  0  0  0  0  0
  5  6  2  0  0  0  0
  5  7  1  0  0  0  0
  2  3  1  0  0  0  0
  2  4  1  0  0  0  0
  2  5  1  0  0  0  0
  1  2  1  0  0  0  0
 17 18  2  0  0  0  0
 17 19  1  0  0  0  0
 14 15  1  0  0  0  0
 14 16  2  0  0  0  0
 11 12  1  0  0  0  0
 11 13  1  0  0  0  0
 11 14  1  0  0  0  0
  9 10  1  0  0  0  0
  9 11  1  0  0  0  0
  9 17  1  0  0  0  0
  7  8  1  0  0  0  0
  7  9  1  0  0  0  0
 21 22  1  0  0  0  0
 21 23  1  0  0  0  0
 21 24  1  0  0  0  0
 19 20  1  0  0  0  0
 19 21  1  0  0  0  0
M  CHG  1  15  -1
M  END
$$$$
default_name
  -OEChem-02102213163D

 24 23  0     1  0  0  0  0  0999 V2000
   -2.8347   -3.7166    0.8034 H   0  0  0  0  0  0  0  0  0  0  0  0
   -2.7728   -2.7096    0.3954 C   0  0  0  0  0  0  0  0  0  0  0  0
   -3.4267   -2.0426    0.9524 H   0  0  0  0  0  0  0  0  0  0  0  0
   -3.0538   -2.7186   -0.6556 H   0  0  0  0  0  0  0  0  0  0  0  0
   -1.3498   -2.2206    0.5184 C   0  0  0  0  0  0  0  0  0  0  0  0
   -0.4997   -2.9426    1.0194 O   0  0  0  0  0  0  0  0  0  0  0  0
   -1.1198   -0.9926    0.0674 N   0  0  0  0  0  0  0  0  0  0  0  0
   -1.8978   -0.4486   -0.2716 H   0  0  0  0  0  0  0  0  0  0  0  0
    0.1693   -0.2866    0.0854 C   0  0  1  0  0  0  0  0  0  0  0  0
    0.9043   -0.8713   -0.4705 H   0  0  0  0  0  0  0  0  0  0  0  0
    0.0106    1.0816   -0.6124 C   0  0  0  0  0  0  0  0  0  0  0  0
    0.6848    1.1178   -1.4699 H   0  0  0  0  0  0  0  0  0  0  0  0
   -1.0112    1.1685   -0.9883 H   0  0  0  0  0  0  0  0  0  0  0  0
    0.3272    2.2926    0.2790 C   0  0  0  0  0  0  0  0  0  0  0  0
    0.5032    3.4079   -0.2658 O   0  5  0  0  0  0  0  0  0  0  0  0
    0.4103    2.0855    1.5088 O   0  0  0  0  0  0  0  0  0  0  0  0
    0.6664   -0.1450    1.5428 C   0  0  0  0  0  0  0  0  0  0  0  0
    1.8485   -0.3724    1.8265 O   0  0  0  0  0  0  0  0  0  0  0  0
   -0.2161    0.2434    2.4686 N   0  0  0  0  0  0  0  0  0  0  0  0
   -1.1850    0.3219    2.1537 H   0  0  0  0  0  0  0  0  0  0  0  0
    0.0735    0.4128    3.8885 C   0  0  0  0  0  0  0  0  0  0  0  0
    1.0159    0.9483    4.0105 H   0  0  0  0  0  0  0  0  0  0  0  0
   -0.7315    0.9748    4.3613 H   0  0  0  0  0  0  0  0  0  0  0  0
    0.1564   -0.5677    4.3577 H   0  0  0  0  0  0  0  0  0  0  0  0
  5  6  2  0  0  0  0
  5  7  1  0  0  0  0
  2  3  1  0  0  0  0
  2  4  1  0  0  0  0
  2  5  1  0  0  0  0
  1  2  1  0  0  0  0
 17 18  2  0  0  0  0
 17 19  1  0  0  0  0
 14 15  1  0  0  0  0
 14 16  2  0  0  0  0
 11 12  1  0  0  0  0
 11 13  1  0  0  0  0
 11 14  1  0  0  0  0
  9 10  1  0  0  0  0
  9 11  1  0  0  0  0
  9 17  1  0  0  0  0
  7  8  1  0  0  0  0
  7  9  1  0  0  0  0
 21 22  1  0  0  0  0
 21 23  1  0  0  0  0
 21 24  1  0  0  0  0
 19 20  1  0  0  0  0
 19 21  1  0  0  0  0
M  CHG  1  15  -1
M  END
$$$$
default_name
  -OEChem-02102213163D

 24 23  0     1  0  0  0  0  0999 V2000
   -2.8347   -3.7166    0.8034 H   0  0  0  0  0  0  0  0  0  0  0  0
   -2.7728   -2.7096    0.3954 C   0  0  0  0  0  0  0  0  0  0  0  0
   -3.4267   -2.0426    0.9524 H   0  0  0  0  0  0  0  0  0  0  0  0
   -3.0538   -2.7186   -0.6556 H   0  0  0  0  0  0  0  0  0  0  0  0
   -1.3498   -2.2206    0.5184 C   0  0  0  0  0  0  0  0  0  0  0  0
   -0.4997   -2.9426    1.0194 O   0  0  0  0  0  0  0  0  0  0  0  0
   -1.1198   -0.9926    0.0674 N   0  0  0  0  0  0  0  0  0  0  0  0
   -1.8978   -0.4486   -0.2716 H   0  0  0  0  0  0  0  0  0  0  0  0
    0.1693   -0.2866    0.0854 C   0  0  1  0  0  0  0  0  0  0  0  0
    0.9043   -0.8713   -0.4705 H   0  0  0  0  0  0  0  0  0  0  0  0
    0.0106    1.0816   -0.6124 C   0  0  0  0  0  0  0  0  0  0  0  0
    0.4681    1.0255   -1.6017 H   0  0  0  0  0  0  0  0  0  0  0  0
   -1.0537    1.2857   -0.7489 H   0  0  0  0  0  0  0  0  0  0  0  0
    0.6603    2.2573    0.1340 C   0  0  0  0  0  0  0  0  0  0  0  0
    0.5768    3.4039   -0.3660 O   0  5  0  0  0  0  0  0  0  0  0  0
    1.2574    1.9923    1.1995 O   0  0  0  0  0  0  0  0  0  0  0  0
    0.6664   -0.1450    1.5428 C   0  0  0  0  0  0  0  0  0  0  0  0
    1.8485   -0.3724    1.8265 O   0  0  0  0  0  0  0  0  0  0  0  0
   -0.2161    0.2434    2.4686 N   0  0  0  0  0  0  0  0  0  0  0  0
   -1.1850    0.3219    2.1537 H   0  0  0  0  0  0  0  0  0  0  0  0
    0.0735    0.4128    3.8885 C   0  0  0  0  0  0  0  0  0  0  0  0
    1.0159    0.9483    4.0105 H   0  0  0  0  0  0  0  0  0  0  0  0
   -0.7315    0.9748    4.3613 H   0  0  0  0  0  0  0  0  0  0  0  0
    0.1564   -0.5677    4.3577 H   0  0  0  0  0  0  0  0  0  0  0  0
  5  6  2  0  0  0  0
  5  7  1  0  0  0  0
  2  3  1  0  0  0  0
  2  4  1  0  0  0  0
  2  5  1  0  0  0  0
  1  2  1  0  0  0  0
 17 18  2  0  0  0  0
 17 19  1  0  0  0  0
 14 15  1  0  0  0  0
 14 16  2  0  0  0  0
 11 12  1  0  0  0  0
 11 13  1  0  0  0  0
 11 14  1  0  0  0  0
  9 10  1  0  0  0  0
  9 11  1  0  0  0  0
  9 17  1  0  0  0  0
  7  8  1  0  0  0  0
  7  9  1  0  0  0  0
 21 22  1  0  0  0  0
 21 23  1  0  0  0  0
 21 24  1  0  0  0  0
 19 20  1  0  0  0  0
 19 21  1  0  0  0  0
M  CHG  1  15  -1
M  END
$$$$
default_name
  -OEChem-02102213163D

 24 23  0     1  0  0  0  0  0999 V2000
   -2.8347   -3.7166    0.8034 H   0  0  0  0  0  0  0  0  0  0  0  0
   -2.7728   -2.7096    0.3954 C   0  0  0  0  0  0  0  0  0  0  0  0
   -3.4267   -2.0426    0.9524 H   0  0  0  0  0  0  0  0  0  0  0  0
   -3.0538   -2.7186   -0.6556 H   0  0  0  0  0  0  0  0  0  0  0  0
   -1.3498   -2.2206    0.5184 C   0  0  0  0  0  0  0  0  0  0  0  0
   -0.4997   -2.9426    1.0194 O   0  0  0  0  0  0  0  0  0  0  0  0
   -1.1198   -0.9926    0.0674 N   0  0  0  0  0  0  0  0  0  0  0  0
   -1.8978   -0.4486   -0.2716 H   0  0  0  0  0  0  0  0  0  0  0  0
    0.1693   -0.2866    0.0854 C   0  0  1  0  0  0  0  0  0  0  0  0
    0.9043   -0.8713   -0.4705 H   0  0  0  0  0  0  0  0  0  0  0  0
    0.0106    1.0816   -0.6124 C   0  0  0  0  0  0  0  0  0  0  0  0
    0.4681    1.0255   -1.6017 H   0  0  0  0  0  0  0  0  0  0  0  0
   -1.0537    1.2857   -0.7489 H   0  0  0  0  0  0  0  0  0  0  0  0
    0.6603    2.2573    0.1340 C   0  0  0  0  0  0  0  0  0  0  0  0
    0.3452    3.4247   -0.1970 O   0  5  0  0  0  0  0  0  0  0  0  0
    1.4895    1.9746    1.0254 O   0  0  0  0  0  0  0  0  0  0  0  0
    0.6664   -0.1450    1.5428 C   0  0  0  0  0  0  0  0  0  0  0  0
    1.8485   -0.3724    1.8265 O   0  0  0  0  0  0  0  0  0  0  0  0
   -0.2161    0.2434    2.4686 N   0  0  0  0  0  0  0  0  0  0  0  0
   -1.1850    0.3219    2.1537 H   0  0  0  0  0  0  0  0  0  0  0  0
    0.0735    0.4128    3.8885 C   0  0  0  0  0  0  0  0  0  0  0  0
    1.0159    0.9483    4.0105 H   0  0  0  0  0  0  0  0  0  0  0  0
   -0.7315    0.9748    4.3613 H   0  0  0  0  0  0  0  0  0  0  0  0
    0.1564   -0.5677    4.3577 H   0  0  0  0  0  0  0  0  0  0  0  0
  5  6  2  0  0  0  0
  5  7  1  0  0  0  0
  2  3  1  0  0  0  0
  2  4  1  0  0  0  0
  2  5  1  0  0  0  0
  1  2  1  0  0  0  0
 17 18  2  0  0  0  0
 17 19  1  0  0  0  0
 14 15  1  0  0  0  0
 14 16  2  0  0  0  0
 11 12  1  0  0  0  0
 11 13  1  0  0  0  0
 11 14  1  0  0  0  0
  9 10  1  0  0  0  0
  9 11  1  0  0  0  0
  9 17  1  0  0  0  0
  7  8  1  0  0  0  0
  7  9  1  0  0  0  0
 21 22  1  0  0  0  0
 21 23  1  0  0  0  0
 21 24  1  0  0  0  0
 19 20  1  0  0  0  0
 19 21  1  0  0  0  0
M  CHG  1  15  -1
M  END
$$$$
default_name
  -OEChem-02102213163D

 24 23  0     1  0  0  0  0  0999 V2000
   -2.8347   -3.7166    0.8034 H   0  0  0  0  0  0  0  0  0  0  0  0
   -2.7728   -2.7096    0.3954 C   0  0  0  0  0  0  0  0  0  0  0  0
   -3.4267   -2.0426    0.9524 H   0  0  0  0  0  0  0  0  0  0  0  0
   -3.0538   -2.7186   -0.6556 H   0  0  0  0  0  0  0  0  0  0  0  0
   -1.3498   -2.2206    0.5184 C   0  0  0  0  0  0  0  0  0  0  0  0
   -0.4997   -2.9426    1.0194 O   0  0  0  0  0  0  0  0  0  0  0  0
   -1.1198   -0.9926    0.0674 N   0  0  0  0  0  0  0  0  0  0  0  0
   -1.8978   -0.4486   -0.2716 H   0  0  0  0  0  0  0  0  0  0  0  0
    0.1693   -0.2866    0.0854 C   0  0  1  0  0  0  0  0  0  0  0  0
    0.9043   -0.8713   -0.4705 H   0  0  0  0  0  0  0  0  0  0  0  0
    0.0106    1.0816   -0.6124 C   0  0  0  0  0  0  0  0  0  0  0  0
    0.4681    1.0255   -1.6017 H   0  0  0  0  0  0  0  0  0  0  0  0
   -1.0537    1.2857   -0.7489 H   0  0  0  0  0  0  0  0  0  0  0  0
    0.6603    2.2573    0.1340 C   0  0  0  0  0  0  0  0  0  0  0  0
    0.1522    3.3971    0.0143 O   0  5  0  0  0  0  0  0  0  0  0  0
    1.6815    2.0057    0.8093 O   0  0  0  0  0  0  0  0  0  0  0  0
    0.6664   -0.1450    1.5428 C   0  0  0  0  0  0  0  0  0  0  0  0
    1.8485   -0.3724    1.8265 O   0  0  0  0  0  0  0  0  0  0  0  0
   -0.2161    0.2434    2.4686 N   0  0  0  0  0  0  0  0  0  0  0  0
   -1.1850    0.3219    2.1537 H   0  0  0  0  0  0  0  0  0  0  0  0
    0.0735    0.4128    3.8885 C   0  0  0  0  0  0  0  0  0  0  0  0
    1.0159    0.9483    4.0105 H   0  0  0  0  0  0  0  0  0  0  0  0
   -0.7315    0.9748    4.3613 H   0  0  0  0  0  0  0  0  0  0  0  0
    0.1564   -0.5677    4.3577 H   0  0  0  0  0  0  0  0  0  0  0  0
  5  6  2  0  0  0  0
  5  7  1  0  0  0  0
  2  3  1  0  0  0  0
  2  4  1  0  0  0  0
  2  5  1  0  0  0  0
  1  2  1  0  0  0  0
 17 18  2  0  0  0  0
 17 19  1  0  0  0  0
 14 15  1  0  0  0  0
 14 16  2  0  0  0  0
 11 12  1  0  0  0  0
 11 13  1  0  0  0  0
 11 14  1  0  0  0  0
  9 10  1  0  0  0  0
  9 11  1  0  0  0  0
  9 17  1  0  0  0  0
  7  8  1  0  0  0  0
  7  9  1  0  0  0  0
 21 22  1  0  0  0  0
 21 23  1  0  0  0  0
 21 24  1  0  0  0  0
 19 20  1  0  0  0  0
 19 21  1  0  0  0  0
M  CHG  1  15  -1
M  END
$$$$
default_name
  -OEChem-02102213163D

 24 23  0     1  0  0  0  0  0999 V2000
   -2.8347   -3.7166    0.8034 H   0  0  0  0  0  0  0  0  0  0  0  0
   -2.7728   -2.7096    0.3954 C   0  0  0  0  0  0  0  0  0  0  0  0
   -3.4267   -2.0426    0.9524 H   0  0  0  0  0  0  0  0  0  0  0  0
   -3.0538   -2.7186   -0.6556 H   0  0  0  0  0  0  0  0  0  0  0  0
   -1.3498   -2.2206    0.5184 C   0  0  0  0  0  0  0  0  0  0  0  0
   -0.4997   -2.9426    1.0194 O   0  0  0  0  0  0  0  0  0  0  0  0
   -1.1198   -0.9926    0.0674 N   0  0  0  0  0  0  0  0  0  0  0  0
   -1.8978   -0.4486   -0.2716 H   0  0  0  0  0  0  0  0  0  0  0  0
    0.1693   -0.2866    0.0854 C   0  0  1  0  0  0  0  0  0  0  0  0
    0.9043   -0.8713   -0.4705 H   0  0  0  0  0  0  0  0  0  0  0  0
    0.0106    1.0816   -0.6124 C   0  0  0  0  0  0  0  0  0  0  0  0
    0.4681    1.0255   -1.6017 H   0  0  0  0  0  0  0  0  0  0  0  0
   -1.0537    1.2857   -0.7489 H   0  0  0  0  0  0  0  0  0  0  0  0
    0.6603    2.2573    0.1340 C   0  0  0  0  0  0  0  0  0  0  0  0
    0.0112    3.3231    0.2536 O   0  5  0  0  0  0  0  0  0  0  0  0
    1.8202    2.0835    0.5659 O   0  0  0  0  0  0  0  0  0  0  0  0
    0.6664   -0.1450    1.5428 C   0  0  0  0  0  0  0  0  0  0  0  0
    1.8485   -0.3724    1.8265 O   0  0  0  0  0  0  0  0  0  0  0  0
   -0.2161    0.2434    2.4686 N   0  0  0  0  0  0  0  0  0  0  0  0
   -1.1850    0.3219    2.1537 H   0  0  0  0  0  0  0  0  0  0  0  0
    0.0735    0.4128    3.8885 C   0  0  0  0  0  0  0  0  0  0  0  0
    1.0159    0.9483    4.0105 H   0  0  0  0  0  0  0  0  0  0  0  0
   -0.7315    0.9748    4.3613 H   0  0  0  0  0  0  0  0  0  0  0  0
    0.1564   -0.5677    4.3577 H   0  0  0  0  0  0  0  0  0  0  0  0
  5  6  2  0  0  0  0
  5  7  1  0  0  0  0
  2  3  1  0  0  0  0
  2  4  1  0  0  0  0
  2  5  1  0  0  0  0
  1  2  1  0  0  0  0
 17 18  2  0  0  0  0
 17 19  1  0  0  0  0
 14 15  1  0  0  0  0
 14 16  2  0  0  0  0
 11 12  1  0  0  0  0
 11 13  1  0  0  0  0
 11 14  1  0  0  0  0
  9 10  1  0  0  0  0
  9 11  1  0  0  0  0
  9 17  1  0  0  0  0
  7  8  1  0  0  0  0
  7  9  1  0  0  0  0
 21 22  1  0  0  0  0
 21 23  1  0  0  0  0
 21 24  1  0  0  0  0
 19 20  1  0  0  0  0
 19 21  1  0  0  0  0
M  CHG  1  15  -1
M  END
$$$$
default_name
  -OEChem-02102213163D

 24 23  0     1  0  0  0  0  0999 V2000
   -2.8347   -3.7166    0.8034 H   0  0  0  0  0  0  0  0  0  0  0  0
   -2.7728   -2.7096    0.3954 C   0  0  0  0  0  0  0  0  0  0  0  0
   -3.4267   -2.0426    0.9524 H   0  0  0  0  0  0  0  0  0  0  0  0
   -3.0538   -2.7186   -0.6556 H   0  0  0  0  0  0  0  0  0  0  0  0
   -1.3498   -2.2206    0.5184 C   0  0  0  0  0  0  0  0  0  0  0  0
   -0.4997   -2.9426    1.0194 O   0  0  0  0  0  0  0  0  0  0  0  0
   -1.1198   -0.9926    0.0674 N   0  0  0  0  0  0  0  0  0  0  0  0
   -1.8978   -0.4486   -0.2716 H   0  0  0  0  0  0  0  0  0  0  0  0
    0.1693   -0.2866    0.0854 C   0  0  1  0  0  0  0  0  0  0  0  0
    0.9043   -0.8713   -0.4705 H   0  0  0  0  0  0  0  0  0  0  0  0
    0.0106    1.0816   -0.6124 C   0  0  0  0  0  0  0  0  0  0  0  0
    0.4681    1.0255   -1.6017 H   0  0  0  0  0  0  0  0  0  0  0  0
   -1.0537    1.2857   -0.7489 H   0  0  0  0  0  0  0  0  0  0  0  0
    0.6603    2.2573    0.1340 C   0  0  0  0  0  0  0  0  0  0  0  0
   -0.0684    3.2077    0.5046 O   0  5  0  0  0  0  0  0  0  0  0  0
    1.8962    2.2028    0.3119 O   0  0  0  0  0  0  0  0  0  0  0  0
    0.6664   -0.1450    1.5428 C   0  0  0  0  0  0  0  0  0  0  0  0
    1.8485   -0.3724    1.8265 O   0  0  0  0  0  0  0  0  0  0  0  0
   -0.2161    0.2434    2.4686 N   0  0  0  0  0  0  0  0  0  0  0  0
   -1.1850    0.3219    2.1537 H   0  0  0  0  0  0  0  0  0  0  0  0
    0.0735    0.4128    3.8885 C   0  0  0  0  0  0  0  0  0  0  0  0
    1.0159    0.9483    4.0105 H   0  0  0  0  0  0  0  0  0  0  0  0
   -0.7315    0.9748    4.3613 H   0  0  0  0  0  0  0  0  0  0  0  0
    0.1564   -0.5677    4.3577 H   0  0  0  0  0  0  0  0  0  0  0  0
  5  6  2  0  0  0  0
  5  7  1  0  0  0  0
  2  3  1  0  0  0  0
  2  4  1  0  0  0  0
  2  5  1  0  0  0  0
  1  2  1  0  0  0  0
 17 18  2  0  0  0  0
 17 19  1  0  0  0  0
 14 15  1  0  0  0  0
 14 16  2  0  0  0  0
 11 12  1  0  0  0  0
 11 13  1  0  0  0  0
 11 14  1  0  0  0  0
  9 10  1  0  0  0  0
  9 11  1  0  0  0  0
  9 17  1  0  0  0  0
  7  8  1  0  0  0  0
  7  9  1  0  0  0  0
 21 22  1  0  0  0  0
 21 23  1  0  0  0  0
 21 24  1  0  0  0  0
 19 20  1  0  0  0  0
 19 21  1  0  0  0  0
M  CHG  1  15  -1
M  END
$$$$
default_name
  -OEChem-02102213163D

 24 23  0     1  0  0  0  0  0999 V2000
   -2.8347   -3.7166    0.8034 H   0  0  0  0  0  0  0  0  0  0  0  0
   -2.7728   -2.7096    0.3954 C   0  0  0  0  0  0  0  0  0  0  0  0
   -3.4267   -2.0426    0.9524 H   0  0  0  0  0  0  0  0  0  0  0  0
   -3.0538   -2.7186   -0.6556 H   0  0  0  0  0  0  0  0  0  0  0  0
   -1.3498   -2.2206    0.5184 C   0  0  0  0  0  0  0  0  0  0  0  0
   -0.4997   -2.9426    1.0194 O   0  0  0  0  0  0  0  0  0  0  0  0
   -1.1198   -0.9926    0.0674 N   0  0  0  0  0  0  0  0  0  0  0  0
   -1.8978   -0.4486   -0.2716 H   0  0  0  0  0  0  0  0  0  0  0  0
    0.1693   -0.2866    0.0854 C   0  0  1  0  0  0  0  0  0  0  0  0
    0.9043   -0.8713   -0.4705 H   0  0  0  0  0  0  0  0  0  0  0  0
    0.0106    1.0816   -0.6124 C   0  0  0  0  0  0  0  0  0  0  0  0
    0.4681    1.0255   -1.6017 H   0  0  0  0  0  0  0  0  0  0  0  0
   -1.0537    1.2857   -0.7489 H   0  0  0  0  0  0  0  0  0  0  0  0
    0.6603    2.2573    0.1340 C   0  0  0  0  0  0  0  0  0  0  0  0
   -0.0810    3.0588    0.7502 O   0  5  0  0  0  0  0  0  0  0  0  0
    1.9044    2.3554    0.0645 O   0  0  0  0  0  0  0  0  0  0  0  0
    0.6664   -0.1450    1.5428 C   0  0  0  0  0  0  0  0  0  0  0  0
    1.8485   -0.3724    1.8265 O   0  0  0  0  0  0  0  0  0  0  0  0
   -0.2161    0.2434    2.4686 N   0  0  0  0  0  0  0  0  0  0  0  0
   -1.1850    0.3219    2.1537 H   0  0  0  0  0  0  0  0  0  0  0  0
    0.0735    0.4128    3.8885 C   0  0  0  0  0  0  0  0  0  0  0  0
    1.0159    0.9483    4.0105 H   0  0  0  0  0  0  0  0  0  0  0  0
   -0.7315    0.9748    4.3613 H   0  0  0  0  0  0  0  0  0  0  0  0
    0.1564   -0.5677    4.3577 H   0  0  0  0  0  0  0  0  0  0  0  0
  5  6  2  0  0  0  0
  5  7  1  0  0  0  0
  2  3  1  0  0  0  0
  2  4  1  0  0  0  0
  2  5  1  0  0  0  0
  1  2  1  0  0  0  0
 17 18  2  0  0  0  0
 17 19  1  0  0  0  0
 14 15  1  0  0  0  0
 14 16  2  0  0  0  0
 11 12  1  0  0  0  0
 11 13  1  0  0  0  0
 11 14  1  0  0  0  0
  9 10  1  0  0  0  0
  9 11  1  0  0  0  0
  9 17  1  0  0  0  0
  7  8  1  0  0  0  0
  7  9  1  0  0  0  0
 21 22  1  0  0  0  0
 21 23  1  0  0  0  0
 21 24  1  0  0  0  0
 19 20  1  0  0  0  0
 19 21  1  0  0  0  0
M  CHG  1  15  -1
M  END
$$$$
default_name
  -OEChem-02102213163D

 24 23  0     1  0  0  0  0  0999 V2000
   -2.8347   -3.7166    0.8034 H   0  0  0  0  0  0  0  0  0  0  0  0
   -2.7728   -2.7096    0.3954 C   0  0  0  0  0  0  0  0  0  0  0  0
   -3.4267   -2.0426    0.9524 H   0  0  0  0  0  0  0  0  0  0  0  0
   -3.0538   -2.7186   -0.6556 H   0  0  0  0  0  0  0  0  0  0  0  0
   -1.3498   -2.2206    0.5184 C   0  0  0  0  0  0  0  0  0  0  0  0
   -0.4997   -2.9426    1.0194 O   0  0  0  0  0  0  0  0  0  0  0  0
   -1.1198   -0.9926    0.0674 N   0  0  0  0  0  0  0  0  0  0  0  0
   -1.8978   -0.4486   -0.2716 H   0  0  0  0  0  0  0  0  0  0  0  0
    0.1693   -0.2866    0.0854 C   0  0  1  0  0  0  0  0  0  0  0  0
    0.9043   -0.8713   -0.4705 H   0  0  0  0  0  0  0  0  0  0  0  0
    0.0106    1.0816   -0.6124 C   0  0  0  0  0  0  0  0  0  0  0  0
    0.4681    1.0255   -1.6017 H   0  0  0  0  0  0  0  0  0  0  0  0
   -1.0537    1.2857   -0.7489 H   0  0  0  0  0  0  0  0  0  0  0  0
    0.6603    2.2573    0.1340 C   0  0  0  0  0  0  0  0  0  0  0  0
   -0.0258    2.8865    0.9736 O   0  5  0  0  0  0  0  0  0  0  0  0
    1.8441    2.5308   -0.1593 O   0  0  0  0  0  0  0  0  0  0  0  0
    0.6664   -0.1450    1.5428 C   0  0  0  0  0  0  0  0  0  0  0  0
    1.8485   -0.3724    1.8265 O   0  0  0  0  0  0  0  0  0  0  0  0
   -0.2161    0.2434    2.4686 N   0  0  0  0  0  0  0  0  0  0  0  0
   -1.1850    0.3219    2.1537 H   0  0  0  0  0  0  0  0  0  0  0  0
    0.0735    0.4128    3.8885 C   0  0  0  0  0  0  0  0  0  0  0  0
    1.0159    0.9483    4.0105 H   0  0  0  0  0  0  0  0  0  0  0  0
   -0.7315    0.9748    4.3613 H   0  0  0  0  0  0  0  0  0  0  0  0
    0.1564   -0.5677    4.3577 H   0  0  0  0  0  0  0  0  0  0  0  0
  5  6  2  0  0  0  0
  5  7  1  0  0  0  0
  2  3  1  0  0  0  0
  2  4  1  0  0  0  0
  2  5  1  0  0  0  0
  1  2  1  0  0  0  0
 17 18  2  0  0  0  0
 17 19  1  0  0  0  0
 14 15  1  0  0  0  0
 14 16  2  0  0  0  0
 11 12  1  0  0  0  0
 11 13  1  0  0  0  0
 11 14  1  0  0  0  0
  9 10  1  0  0  0  0
  9 11  1  0  0  0  0
  9 17  1  0  0  0  0
  7  8  1  0  0  0  0
  7  9  1  0  0  0  0
 21 22  1  0  0  0  0
 21 23  1  0  0  0  0
 21 24  1  0  0  0  0
 19 20  1  0  0  0  0
 19 21  1  0  0  0  0
M  CHG  1  15  -1
M  END
$$$$
default_name
  -OEChem-02102213163D

 24 23  0     1  0  0  0  0  0999 V2000
   -2.8347   -3.7166    0.8034 H   0  0  0  0  0  0  0  0  0  0  0  0
   -2.7728   -2.7096    0.3954 C   0  0  0  0  0  0  0  0  0  0  0  0
   -3.4267   -2.0426    0.9524 H   0  0  0  0  0  0  0  0  0  0  0  0
   -3.0538   -2.7186   -0.6556 H   0  0  0  0  0  0  0  0  0  0  0  0
   -1.3498   -2.2206    0.5184 C   0  0  0  0  0  0  0  0  0  0  0  0
   -0.4997   -2.9426    1.0194 O   0  0  0  0  0  0  0  0  0  0  0  0
   -1.1198   -0.9926    0.0674 N   0  0  0  0  0  0  0  0  0  0  0  0
   -1.8978   -0.4486   -0.2716 H   0  0  0  0  0  0  0  0  0  0  0  0
    0.1693   -0.2866    0.0854 C   0  0  1  0  0  0  0  0  0  0  0  0
    0.9043   -0.8713   -0.4705 H   0  0  0  0  0  0  0  0  0  0  0  0
    0.0106    1.0816   -0.6124 C   0  0  0  0  0  0  0  0  0  0  0  0
    0.4681    1.0255   -1.6017 H   0  0  0  0  0  0  0  0  0  0  0  0
   -1.0537    1.2857   -0.7489 H   0  0  0  0  0  0  0  0  0  0  0  0
    0.6603    2.2573    0.1340 C   0  0  0  0  0  0  0  0  0  0  0  0
    0.0933    2.7025    1.1596 O   0  5  0  0  0  0  0  0  0  0  0  0
    1.7195    2.7172   -0.3444 O   0  0  0  0  0  0  0  0  0  0  0  0
    0.6664   -0.1450    1.5428 C   0  0  0  0  0  0  0  0  0  0  0  0
    1.8485   -0.3724    1.8265 O   0  0  0  0  0  0  0  0  0  0  0  0
   -0.2161    0.2434    2.4686 N   0  0  0  0  0  0  0  0  0  0  0  0
   -1.1850    0.3219    2.1537 H   0  0  0  0  0  0  0  0  0  0  0  0
    0.0735    0.4128    3.8885 C   0  0  0  0  0  0  0  0  0  0  0  0
    1.0159    0.9483    4.0105 H   0  0  0  0  0  0  0  0  0  0  0  0
   -0.7315    0.9748    4.3613 H   0  0  0  0  0  0  0  0  0  0  0  0
    0.1564   -0.5677    4.3577 H   0  0  0  0  0  0  0  0  0  0  0  0
  5  6  2  0  0  0  0
  5  7  1  0  0  0  0
  2  3  1  0  0  0  0
  2  4  1  0  0  0  0
  2  5  1  0  0  0  0
  1  2  1  0  0  0  0
 17 18  2  0  0  0  0
 17 19  1  0  0  0  0
 14 15  1  0  0  0  0
 14 16  2  0  0  0  0
 11 12  1  0  0  0  0
 11 13  1  0  0  0  0
 11 14  1  0  0  0  0
  9 10  1  0  0  0  0
  9 11  1  0  0  0  0
  9 17  1  0  0  0  0
  7  8  1  0  0  0  0
  7  9  1  0  0  0  0
 21 22  1  0  0  0  0
 21 23  1  0  0  0  0
 21 24  1  0  0  0  0
 19 20  1  0  0  0  0
 19 21  1  0  0  0  0
M  CHG  1  15  -1
M  END
$$$$
default_name
  -OEChem-02102213163D

 24 23  0     1  0  0  0  0  0999 V2000
   -2.8347   -3.7166    0.8034 H   0  0  0  0  0  0  0  0  0  0  0  0
   -2.7728   -2.7096    0.3954 C   0  0  0  0  0  0  0  0  0  0  0  0
   -3.4267   -2.0426    0.9524 H   0  0  0  0  0  0  0  0  0  0  0  0
   -3.0538   -2.7186   -0.6556 H   0  0  0  0  0  0  0  0  0  0  0  0
   -1.3498   -2.2206    0.5184 C   0  0  0  0  0  0  0  0  0  0  0  0
   -0.4997   -2.9426    1.0194 O   0  0  0  0  0  0  0  0  0  0  0  0
   -1.1198   -0.9926    0.0674 N   0  0  0  0  0  0  0  0  0  0  0  0
   -1.8978   -0.4486   -0.2716 H   0  0  0  0  0  0  0  0  0  0  0  0
    0.1693   -0.2866    0.0854 C   0  0  1  0  0  0  0  0  0  0  0  0
    0.9043   -0.8713   -0.4705 H   0  0  0  0  0  0  0  0  0  0  0  0
    0.0106    1.0816   -0.6124 C   0  0  0  0  0  0  0  0  0  0  0  0
    0.4681    1.0255   -1.6017 H   0  0  0  0  0  0  0  0  0  0  0  0
   -1.0537    1.2857   -0.7489 H   0  0  0  0  0  0  0  0  0  0  0  0
    0.6603    2.2573    0.1340 C   0  0  0  0  0  0  0  0  0  0  0  0
    0.2684    2.5194    1.2956 O   0  5  0  0  0  0  0  0  0  0  0  0
    1.5390    2.9018   -0.4781 O   0  0  0  0  0  0  0  0  0  0  0  0
    0.6664   -0.1450    1.5428 C   0  0  0  0  0  0  0  0  0  0  0  0
    1.8485   -0.3724    1.8265 O   0  0  0  0  0  0  0  0  0  0  0  0
   -0.2161    0.2434    2.4686 N   0  0  0  0  0  0  0  0  0  0  0  0
   -1.1850    0.3219    2.1537 H   0  0  0  0  0  0  0  0  0  0  0  0
    0.0735    0.4128    3.8885 C   0  0  0  0  0  0  0  0  0  0  0  0
    1.0159    0.9483    4.0105 H   0  0  0  0  0  0  0  0  0  0  0  0
   -0.7315    0.9748    4.3613 H   0  0  0  0  0  0  0  0  0  0  0  0
    0.1564   -0.5677    4.3577 H   0  0  0  0  0  0  0  0  0  0  0  0
  5  6  2  0  0  0  0
  5  7  1  0  0  0  0
  2  3  1  0  0  0  0
  2  4  1  0  0  0  0
  2  5  1  0  0  0  0
  1  2  1  0  0  0  0
 17 18  2  0  0  0  0
 17 19  1  0  0  0  0
 14 15  1  0  0  0  0
 14 16  2  0  0  0  0
 11 12  1  0  0  0  0
 11 13  1  0  0  0  0
 11 14  1  0  0  0  0
  9 10  1  0  0  0  0
  9 11  1  0  0  0  0
  9 17  1  0  0  0  0
  7  8  1  0  0  0  0
  7  9  1  0  0  0  0
 21 22  1  0  0  0  0
 21 23  1  0  0  0  0
 21 24  1  0  0  0  0
 19 20  1  0  0  0  0
 19 21  1  0  0  0  0
M  CHG  1  15  -1
M  END
$$$$
default_name
  -OEChem-02102213163D

 24 23  0     1  0  0  0  0  0999 V2000
   -2.8347   -3.7166    0.8034 H   0  0  0  0  0  0  0  0  0  0  0  0
   -2.7728   -2.7096    0.3954 C   0  0  0  0  0  0  0  0  0  0  0  0
   -3.4267   -2.0426    0.9524 H   0  0  0  0  0  0  0  0  0  0  0  0
   -3.0538   -2.7186   -0.6556 H   0  0  0  0  0  0  0  0  0  0  0  0
   -1.3498   -2.2206    0.5184 C   0  0  0  0  0  0  0  0  0  0  0  0
   -0.4997   -2.9426    1.0194 O   0  0  0  0  0  0  0  0  0  0  0  0
   -1.1198   -0.9926    0.0674 N   0  0  0  0  0  0  0  0  0  0  0  0
   -1.8978   -0.4486   -0.2716 H   0  0  0  0  0  0  0  0  0  0  0  0
    0.1693   -0.2866    0.0854 C   0  0  1  0  0  0  0  0  0  0  0  0
    0.9043   -0.8713   -0.4705 H   0  0  0  0  0  0  0  0  0  0  0  0
    0.0106    1.0816   -0.6124 C   0  0  0  0  0  0  0  0  0  0  0  0
    0.4681    1.0255   -1.6017 H   0  0  0  0  0  0  0  0  0  0  0  0
   -1.0537    1.2857   -0.7489 H   0  0  0  0  0  0  0  0  0  0  0  0
    0.6603    2.2573    0.1340 C   0  0  0  0  0  0  0  0  0  0  0  0
    0.4874    2.3497    1.3722 O   0  5  0  0  0  0  0  0  0  0  0  0
    1.3150    3.0721   -0.5513 O   0  0  0  0  0  0  0  0  0  0  0  0
    0.6664   -0.1450    1.5428 C   0  0  0  0  0  0  0  0  0  0  0  0
    1.8485   -0.3724    1.8265 O   0  0  0  0  0  0  0  0  0  0  0  0
   -0.2161    0.2434    2.4686 N   0  0  0  0  0  0  0  0  0  0  0  0
   -1.1850    0.3219    2.1537 H   0  0  0  0  0  0  0  0  0  0  0  0
    0.0735    0.4128    3.8885 C   0  0  0  0  0  0  0  0  0  0  0  0
    1.0159    0.9483    4.0105 H   0  0  0  0  0  0  0  0  0  0  0  0
   -0.7315    0.9748    4.3613 H   0  0  0  0  0  0  0  0  0  0  0  0
    0.1564   -0.5677    4.3577 H   0  0  0  0  0  0  0  0  0  0  0  0
  5  6  2  0  0  0  0
  5  7  1  0  0  0  0
  2  3  1  0  0  0  0
  2  4  1  0  0  0  0
  2  5  1  0  0  0  0
  1  2  1  0  0  0  0
 17 18  2  0  0  0  0
 17 19  1  0  0  0  0
 14 15  1  0  0  0  0
 14 16  2  0  0  0  0
 11 12  1  0  0  0  0
 11 13  1  0  0  0  0
 11 14  1  0  0  0  0
  9 10  1  0  0  0  0
  9 11  1  0  0  0  0
  9 17  1  0  0  0  0
  7  8  1  0  0  0  0
  7  9  1  0  0  0  0
 21 22  1  0  0  0  0
 21 23  1  0  0  0  0
 21 24  1  0  0  0  0
 19 20  1  0  0  0  0
 19 21  1  0  0  0  0
M  CHG  1  15  -1
M  END
$$$$
default_name
  -OEChem-02102213163D

 24 23  0     1  0  0  0  0  0999 V2000
   -2.8347   -3.7166    0.8034 H   0  0  0  0  0  0  0  0  0  0  0  0
   -2.7728   -2.7096    0.3954 C   0  0  0  0  0  0  0  0  0  0  0  0
   -3.4267   -2.0426    0.9524 H   0  0  0  0  0  0  0  0  0  0  0  0
   -3.0538   -2.7186   -0.6556 H   0  0  0  0  0  0  0  0  0  0  0  0
   -1.3498   -2.2206    0.5184 C   0  0  0  0  0  0  0  0  0  0  0  0
   -0.4997   -2.9426    1.0194 O   0  0  0  0  0  0  0  0  0  0  0  0
   -1.1198   -0.9926    0.0674 N   0  0  0  0  0  0  0  0  0  0  0  0
   -1.8978   -0.4486   -0.2716 H   0  0  0  0  0  0  0  0  0  0  0  0
    0.1693   -0.2866    0.0854 C   0  0  1  0  0  0  0  0  0  0  0  0
    0.9043   -0.8713   -0.4705 H   0  0  0  0  0  0  0  0  0  0  0  0
    0.0106    1.0816   -0.6124 C   0  0  0  0  0  0  0  0  0  0  0  0
    0.4681    1.0255   -1.6017 H   0  0  0  0  0  0  0  0  0  0  0  0
   -1.0537    1.2857   -0.7489 H   0  0  0  0  0  0  0  0  0  0  0  0
    0.6603    2.2573    0.1340 C   0  0  0  0  0  0  0  0  0  0  0  0
    0.7355    2.2050    1.3843 O   0  5  0  0  0  0  0  0  0  0  0  0
    1.0627    3.2164   -0.5590 O   0  0  0  0  0  0  0  0  0  0  0  0
    0.6664   -0.1450    1.5428 C   0  0  0  0  0  0  0  0  0  0  0  0
    1.8485   -0.3724    1.8265 O   0  0  0  0  0  0  0  0  0  0  0  0
   -0.2161    0.2434    2.4686 N   0  0  0  0  0  0  0  0  0  0  0  0
   -1.1850    0.3219    2.1537 H   0  0  0  0  0  0  0  0  0  0  0  0
    0.0735    0.4128    3.8885 C   0  0  0  0  0  0  0  0  0  0  0  0
    1.0159    0.9483    4.0105 H   0  0  0  0  0  0  0  0  0  0  0  0
   -0.7315    0.9748    4.3613 H   0  0  0  0  0  0  0  0  0  0  0  0
    0.1564   -0.5677    4.3577 H   0  0  0  0  0  0  0  0  0  0  0  0
  5  6  2  0  0  0  0
  5  7  1  0  0  0  0
  2  3  1  0  0  0  0
  2  4  1  0  0  0  0
  2  5  1  0  0  0  0
  1  2  1  0  0  0  0
 17 18  2  0  0  0  0
 17 19  1  0  0  0  0
 14 15  1  0  0  0  0
 14 16  2  0  0  0  0
 11 12  1  0  0  0  0
 11 13  1  0  0  0  0
 11 14  1  0  0  0  0
  9 10  1  0  0  0  0
  9 11  1  0  0  0  0
  9 17  1  0  0  0  0
  7  8  1  0  0  0  0
  7  9  1  0  0  0  0
 21 22  1  0  0  0  0
 21 23  1  0  0  0  0
 21 24  1  0  0  0  0
 19 20  1  0  0  0  0
 19 21  1  0  0  0  0
M  CHG  1  15  -1
M  END
$$$$
default_name
  -OEChem-02102213163D

 24 23  0     1  0  0  0  0  0999 V2000
   -2.8347   -3.7166    0.8034 H   0  0  0  0  0  0  0  0  0  0  0  0
   -2.7728   -2.7096    0.3954 C   0  0  0  0  0  0  0  0  0  0  0  0
   -3.4267   -2.0426    0.9524 H   0  0  0  0  0  0  0  0  0  0  0  0
   -3.0538   -2.7186   -0.6556 H   0  0  0  0  0  0  0  0  0  0  0  0
   -1.3498   -2.2206    0.5184 C   0  0  0  0  0  0  0  0  0  0  0  0
   -0.4997   -2.9426    1.0194 O   0  0  0  0  0  0  0  0  0  0  0  0
   -1.1198   -0.9926    0.0674 N   0  0  0  0  0  0  0  0  0  0  0  0
   -1.8978   -0.4486   -0.2716 H   0  0  0  0  0  0  0  0  0  0  0  0
    0.1693   -0.2866    0.0854 C   0  0  1  0  0  0  0  0  0  0  0  0
    0.9043   -0.8713   -0.4705 H   0  0  0  0  0  0  0  0  0  0  0  0
    0.0106    1.0816   -0.6124 C   0  0  0  0  0  0  0  0  0  0  0  0
    0.4681    1.0255   -1.6017 H   0  0  0  0  0  0  0  0  0  0  0  0
   -1.0537    1.2857   -0.7489 H   0  0  0  0  0  0  0  0  0  0  0  0
    0.6603    2.2573    0.1340 C   0  0  0  0  0  0  0  0  0  0  0  0
    0.9957    2.0950    1.3310 O   0  5  0  0  0  0  0  0  0  0  0  0
    0.7994    3.3249   -0.5008 O   0  0  0  0  0  0  0  0  0  0  0  0
    0.6664   -0.1450    1.5428 C   0  0  0  0  0  0  0  0  0  0  0  0
    1.8485   -0.3724    1.8265 O   0  0  0  0  0  0  0  0  0  0  0  0
   -0.2161    0.2434    2.4686 N   0  0  0  0  0  0  0  0  0  0  0  0
   -1.1850    0.3219    2.1537 H   0  0  0  0  0  0  0  0  0  0  0  0
    0.0735    0.4128    3.8885 C   0  0  0  0  0  0  0  0  0  0  0  0
    1.0159    0.9483    4.0105 H   0  0  0  0  0  0  0  0  0  0  0  0
   -0.7315    0.9748    4.3613 H   0  0  0  0  0  0  0  0  0  0  0  0
    0.1564   -0.5677    4.3577 H   0  0  0  0  0  0  0  0  0  0  0  0
  5  6  2  0  0  0  0
  5  7  1  0  0  0  0
  2  3  1  0  0  0  0
  2  4  1  0  0  0  0
  2  5  1  0  0  0  0
  1  2  1  0  0  0  0
 17 18  2  0  0  0  0
 17 19  1  0  0  0  0
 14 15  1  0  0  0  0
 14 16  2  0  0  0  0
 11 12  1  0  0  0  0
 11 13  1  0  0  0  0
 11 14  1  0  0  0  0
  9 10  1  0  0  0  0
  9 11  1  0  0  0  0
  9 17  1  0  0  0  0
  7  8  1  0  0  0  0
  7  9  1  0  0  0  0
 21 22  1  0  0  0  0
 21 23  1  0  0  0  0
 21 24  1  0  0  0  0
 19 20  1  0  0  0  0
 19 21  1  0  0  0  0
M  CHG  1  15  -1
M  END
$$$$
default_name
  -OEChem-02102213163D

 24 23  0     1  0  0  0  0  0999 V2000
   -2.8347   -3.7166    0.8034 H   0  0  0  0  0  0  0  0  0  0  0  0
   -2.7728   -2.7096    0.3954 C   0  0  0  0  0  0  0  0  0  0  0  0
   -3.4267   -2.0426    0.9524 H   0  0  0  0  0  0  0  0  0  0  0  0
   -3.0538   -2.7186   -0.6556 H   0  0  0  0  0  0  0  0  0  0  0  0
   -1.3498   -2.2206    0.5184 C   0  0  0  0  0  0  0  0  0  0  0  0
   -0.4997   -2.9426    1.0194 O   0  0  0  0  0  0  0  0  0  0  0  0
   -1.1198   -0.9926    0.0674 N   0  0  0  0  0  0  0  0  0  0  0  0
   -1.8978   -0.4486   -0.2716 H   0  0  0  0  0  0  0  0  0  0  0  0
    0.1693   -0.2866    0.0854 C   0  0  1  0  0  0  0  0  0  0  0  0
    0.9043   -0.8713   -0.4705 H   0  0  0  0  0  0  0  0  0  0  0  0
    0.0106    1.0816   -0.6124 C   0  0  0  0  0  0  0  0  0  0  0  0
    0.4681    1.0255   -1.6017 H   0  0  0  0  0  0  0  0  0  0  0  0
   -1.0537    1.2857   -0.7489 H   0  0  0  0  0  0  0  0  0  0  0  0
    0.6603    2.2573    0.1340 C   0  0  0  0  0  0  0  0  0  0  0  0
    1.2504    2.0273    1.2159 O   0  5  0  0  0  0  0  0  0  0  0  0
    0.5429    3.3903   -0.3804 O   0  0  0  0  0  0  0  0  0  0  0  0
    0.6664   -0.1450    1.5428 C   0  0  0  0  0  0  0  0  0  0  0  0
    1.8485   -0.3724    1.8265 O   0  0  0  0  0  0  0  0  0  0  0  0
   -0.2161    0.2434    2.4686 N   0  0  0  0  0  0  0  0  0  0  0  0
   -1.1850    0.3219    2.1537 H   0  0  0  0  0  0  0  0  0  0  0  0
    0.0735    0.4128    3.8885 C   0  0  0  0  0  0  0  0  0  0  0  0
    1.0159    0.9483    4.0105 H   0  0  0  0  0  0  0  0  0  0  0  0
   -0.7315    0.9748    4.3613 H   0  0  0  0  0  0  0  0  0  0  0  0
    0.1564   -0.5677    4.3577 H   0  0  0  0  0  0  0  0  0  0  0  0
  5  6  2  0  0  0  0
  5  7  1  0  0  0  0
  2  3  1  0  0  0  0
  2  4  1  0  0  0  0
  2  5  1  0  0  0  0
  1  2  1  0  0  0  0
 17 18  2  0  0  0  0
 17 19  1  0  0  0  0
 14 15  1  0  0  0  0
 14 16  2  0  0  0  0
 11 12  1  0  0  0  0
 11 13  1  0  0  0  0
 11 14  1  0  0  0  0
  9 10  1  0  0  0  0
  9 11  1  0  0  0  0
  9 17  1  0  0  0  0
  7  8  1  0  0  0  0
  7  9  1  0  0  0  0
 21 22  1  0  0  0  0
 21 23  1  0  0  0  0
 21 24  1  0  0  0  0
 19 20  1  0  0  0  0
 19 21  1  0  0  0  0
M  CHG  1  15  -1
M  END
$$$$
default_name
  -OEChem-02102213163D

 24 23  0     1  0  0  0  0  0999 V2000
   -2.8347   -3.7166    0.8034 H   0  0  0  0  0  0  0  0  0  0  0  0
   -2.7728   -2.7096    0.3954 C   0  0  0  0  0  0  0  0  0  0  0  0
   -3.4267   -2.0426    0.9524 H   0  0  0  0  0  0  0  0  0  0  0  0
   -3.0538   -2.7186   -0.6556 H   0  0  0  0  0  0  0  0  0  0  0  0
   -1.3498   -2.2206    0.5184 C   0  0  0  0  0  0  0  0  0  0  0  0
   -0.4997   -2.9426    1.0194 O   0  0  0  0  0  0  0  0  0  0  0  0
   -1.1198   -0.9926    0.0674 N   0  0  0  0  0  0  0  0  0  0  0  0
   -1.8978   -0.4486   -0.2716 H   0  0  0  0  0  0  0  0  0  0  0  0
    0.1693   -0.2866    0.0854 C   0  0  1  0  0  0  0  0  0  0  0  0
    0.9043   -0.8713   -0.4705 H   0  0  0  0  0  0  0  0  0  0  0  0
    0.0106    1.0816   -0.6124 C   0  0  0  0  0  0  0  0  0  0  0  0
    0.4681    1.0255   -1.6017 H   0  0  0  0  0  0  0  0  0  0  0  0
   -1.0537    1.2857   -0.7489 H   0  0  0  0  0  0  0  0  0  0  0  0
    0.6603    2.2573    0.1340 C   0  0  0  0  0  0  0  0  0  0  0  0
    1.4820    2.0065    1.0470 O   0  5  0  0  0  0  0  0  0  0  0  0
    0.3108    3.4080   -0.2063 O   0  0  0  0  0  0  0  0  0  0  0  0
    0.6664   -0.1450    1.5428 C   0  0  0  0  0  0  0  0  0  0  0  0
    1.8485   -0.3724    1.8265 O   0  0  0  0  0  0  0  0  0  0  0  0
   -0.2161    0.2434    2.4686 N   0  0  0  0  0  0  0  0  0  0  0  0
   -1.1850    0.3219    2.1537 H   0  0  0  0  0  0  0  0  0  0  0  0
    0.0735    0.4128    3.8885 C   0  0  0  0  0  0  0  0  0  0  0  0
    1.0159    0.9483    4.0105 H   0  0  0  0  0  0  0  0  0  0  0  0
   -0.7315    0.9748    4.3613 H   0  0  0  0  0  0  0  0  0  0  0  0
    0.1564   -0.5677    4.3577 H   0  0  0  0  0  0  0  0  0  0  0  0
  5  6  2  0  0  0  0
  5  7  1  0  0  0  0
  2  3  1  0  0  0  0
  2  4  1  0  0  0  0
  2  5  1  0  0  0  0
  1  2  1  0  0  0  0
 17 18  2  0  0  0  0
 17 19  1  0  0  0  0
 14 15  1  0  0  0  0
 14 16  2  0  0  0  0
 11 12  1  0  0  0  0
 11 13  1  0  0  0  0
 11 14  1  0  0  0  0
  9 10  1  0  0  0  0
  9 11  1  0  0  0  0
  9 17  1  0  0  0  0
  7  8  1  0  0  0  0
  7  9  1  0  0  0  0
 21 22  1  0  0  0  0
 21 23  1  0  0  0  0
 21 24  1  0  0  0  0
 19 20  1  0  0  0  0
 19 21  1  0  0  0  0
M  CHG  1  15  -1
M  END
$$$$
default_name
  -OEChem-02102213163D

 24 23  0     1  0  0  0  0  0999 V2000
   -2.8347   -3.7166    0.8034 H   0  0  0  0  0  0  0  0  0  0  0  0
   -2.7728   -2.7096    0.3954 C   0  0  0  0  0  0  0  0  0  0  0  0
   -3.4267   -2.0426    0.9524 H   0  0  0  0  0  0  0  0  0  0  0  0
   -3.0538   -2.7186   -0.6556 H   0  0  0  0  0  0  0  0  0  0  0  0
   -1.3498   -2.2206    0.5184 C   0  0  0  0  0  0  0  0  0  0  0  0
   -0.4997   -2.9426    1.0194 O   0  0  0  0  0  0  0  0  0  0  0  0
   -1.1198   -0.9926    0.0674 N   0  0  0  0  0  0  0  0  0  0  0  0
   -1.8978   -0.4486   -0.2716 H   0  0  0  0  0  0  0  0  0  0  0  0
    0.1693   -0.2866    0.0854 C   0  0  1  0  0  0  0  0  0  0  0  0
    0.9043   -0.8713   -0.4705 H   0  0  0  0  0  0  0  0  0  0  0  0
    0.0106    1.0816   -0.6124 C   0  0  0  0  0  0  0  0  0  0  0  0
    0.4681    1.0255   -1.6017 H   0  0  0  0  0  0  0  0  0  0  0  0
   -1.0537    1.2857   -0.7489 H   0  0  0  0  0  0  0  0  0  0  0  0
    0.6603    2.2573    0.1340 C   0  0  0  0  0  0  0  0  0  0  0  0
    1.6750    2.0341    0.8356 O   0  5  0  0  0  0  0  0  0  0  0  0
    0.1188    3.3769    0.0098 O   0  0  0  0  0  0  0  0  0  0  0  0
    0.6664   -0.1450    1.5428 C   0  0  0  0  0  0  0  0  0  0  0  0
    1.8485   -0.3724    1.8265 O   0  0  0  0  0  0  0  0  0  0  0  0
   -0.2161    0.2434    2.4686 N   0  0  0  0  0  0  0  0  0  0  0  0
   -1.1850    0.3219    2.1537 H   0  0  0  0  0  0  0  0  0  0  0  0
    0.0735    0.4128    3.8885 C   0  0  0  0  0  0  0  0  0  0  0  0
    1.0159    0.9483    4.0105 H   0  0  0  0  0  0  0  0  0  0  0  0
   -0.7315    0.9748    4.3613 H   0  0  0  0  0  0  0  0  0  0  0  0
    0.1564   -0.5677    4.3577 H   0  0  0  0  0  0  0  0  0  0  0  0
  5  6  2  0  0  0  0
  5  7  1  0  0  0  0
  2  3  1  0  0  0  0
  2  4  1  0  0  0  0
  2  5  1  0  0  0  0
  1  2  1  0  0  0  0
 17 18  2  0  0  0  0
 17 19  1  0  0  0  0
 14 15  1  0  0  0  0
 14 16  2  0  0  0  0
 11 12  1  0  0  0  0
 11 13  1  0  0  0  0
 11 14  1  0  0  0  0
  9 10  1  0  0  0  0
  9 11  1  0  0  0  0
  9 17  1  0  0  0  0
  7  8  1  0  0  0  0
  7  9  1  0  0  0  0
 21 22  1  0  0  0  0
 21 23  1  0  0  0  0
 21 24  1  0  0  0  0
 19 20  1  0  0  0  0
 19 21  1  0  0  0  0
M  CHG  1  15  -1
M  END
$$$$
default_name
  -OEChem-02102213163D

 24 23  0     1  0  0  0  0  0999 V2000
   -2.8347   -3.7166    0.8034 H   0  0  0  0  0  0  0  0  0  0  0  0
   -2.7728   -2.7096    0.3954 C   0  0  0  0  0  0  0  0  0  0  0  0
   -3.4267   -2.0426    0.9524 H   0  0  0  0  0  0  0  0  0  0  0  0
   -3.0538   -2.7186   -0.6556 H   0  0  0  0  0  0  0  0  0  0  0  0
   -1.3498   -2.2206    0.5184 C   0  0  0  0  0  0  0  0  0  0  0  0
   -0.4997   -2.9426    1.0194 O   0  0  0  0  0  0  0  0  0  0  0  0
   -1.1198   -0.9926    0.0674 N   0  0  0  0  0  0  0  0  0  0  0  0
   -1.8978   -0.4486   -0.2716 H   0  0  0  0  0  0  0  0  0  0  0  0
    0.1693   -0.2866    0.0854 C   0  0  1  0  0  0  0  0  0  0  0  0
    0.9043   -0.8713   -0.4705 H   0  0  0  0  0  0  0  0  0  0  0  0
    0.0106    1.0816   -0.6124 C   0  0  0  0  0  0  0  0  0  0  0  0
    0.4681    1.0255   -1.6017 H   0  0  0  0  0  0  0  0  0  0  0  0
   -1.0537    1.2857   -0.7489 H   0  0  0  0  0  0  0  0  0  0  0  0
    0.6603    2.2573    0.1340 C   0  0  0  0  0  0  0  0  0  0  0  0
    1.8160    2.1081    0.5963 O   0  5  0  0  0  0  0  0  0  0  0  0
   -0.0199    3.2991    0.2532 O   0  0  0  0  0  0  0  0  0  0  0  0
    0.6664   -0.1450    1.5428 C   0  0  0  0  0  0  0  0  0  0  0  0
    1.8485   -0.3724    1.8265 O   0  0  0  0  0  0  0  0  0  0  0  0
   -0.2161    0.2434    2.4686 N   0  0  0  0  0  0  0  0  0  0  0  0
   -1.1850    0.3219    2.1537 H   0  0  0  0  0  0  0  0  0  0  0  0
    0.0735    0.4128    3.8885 C   0  0  0  0  0  0  0  0  0  0  0  0
    1.0159    0.9483    4.0105 H   0  0  0  0  0  0  0  0  0  0  0  0
   -0.7315    0.9748    4.3613 H   0  0  0  0  0  0  0  0  0  0  0  0
    0.1564   -0.5677    4.3577 H   0  0  0  0  0  0  0  0  0  0  0  0
  5  6  2  0  0  0  0
  5  7  1  0  0  0  0
  2  3  1  0  0  0  0
  2  4  1  0  0  0  0
  2  5  1  0  0  0  0
  1  2  1  0  0  0  0
 17 18  2  0  0  0  0
 17 19  1  0  0  0  0
 14 15  1  0  0  0  0
 14 16  2  0  0  0  0
 11 12  1  0  0  0  0
 11 13  1  0  0  0  0
 11 14  1  0  0  0  0
  9 10  1  0  0  0  0
  9 11  1  0  0  0  0
  9 17  1  0  0  0  0
  7  8  1  0  0  0  0
  7  9  1  0  0  0  0
 21 22  1  0  0  0  0
 21 23  1  0  0  0  0
 21 24  1  0  0  0  0
 19 20  1  0  0  0  0
 19 21  1  0  0  0  0
M  CHG  1  15  -1
M  END
$$$$
default_name
  -OEChem-02102213163D

 24 23  0     1  0  0  0  0  0999 V2000
   -2.8347   -3.7166    0.8034 H   0  0  0  0  0  0  0  0  0  0  0  0
   -2.7728   -2.7096    0.3954 C   0  0  0  0  0  0  0  0  0  0  0  0
   -3.4267   -2.0426    0.9524 H   0  0  0  0  0  0  0  0  0  0  0  0
   -3.0538   -2.7186   -0.6556 H   0  0  0  0  0  0  0  0  0  0  0  0
   -1.3498   -2.2206    0.5184 C   0  0  0  0  0  0  0  0  0  0  0  0
   -0.4997   -2.9426    1.0194 O   0  0  0  0  0  0  0  0  0  0  0  0
   -1.1198   -0.9926    0.0674 N   0  0  0  0  0  0  0  0  0  0  0  0
   -1.8978   -0.4486   -0.2716 H   0  0  0  0  0  0  0  0  0  0  0  0
    0.1693   -0.2866    0.0854 C   0  0  1  0  0  0  0  0  0  0  0  0
    0.9043   -0.8713   -0.4705 H   0  0  0  0  0  0  0  0  0  0  0  0
    0.0106    1.0816   -0.6124 C   0  0  0  0  0  0  0  0  0  0  0  0
    0.4681    1.0255   -1.6017 H   0  0  0  0  0  0  0  0  0  0  0  0
   -1.0537    1.2857   -0.7489 H   0  0  0  0  0  0  0  0  0  0  0  0
    0.6603    2.2573    0.1340 C   0  0  0  0  0  0  0  0  0  0  0  0
    1.8956    2.2235    0.3453 O   0  5  0  0  0  0  0  0  0  0  0  0
   -0.0959    3.1798    0.5072 O   0  0  0  0  0  0  0  0  0  0  0  0
    0.6664   -0.1450    1.5428 C   0  0  0  0  0  0  0  0  0  0  0  0
    1.8485   -0.3724    1.8265 O   0  0  0  0  0  0  0  0  0  0  0  0
   -0.2161    0.2434    2.4686 N   0  0  0  0  0  0  0  0  0  0  0  0
   -1.1850    0.3219    2.1537 H   0  0  0  0  0  0  0  0  0  0  0  0
    0.0735    0.4128    3.8885 C   0  0  0  0  0  0  0  0  0  0  0  0
    1.0159    0.9483    4.0105 H   0  0  0  0  0  0  0  0  0  0  0  0
   -0.7315    0.9748    4.3613 H   0  0  0  0  0  0  0  0  0  0  0  0
    0.1564   -0.5677    4.3577 H   0  0  0  0  0  0  0  0  0  0  0  0
  5  6  2  0  0  0  0
  5  7  1  0  0  0  0
  2  3  1  0  0  0  0
  2  4  1  0  0  0  0
  2  5  1  0  0  0  0
  1  2  1  0  0  0  0
 17 18  2  0  0  0  0
 17 19  1  0  0  0  0
 14 15  1  0  0  0  0
 14 16  2  0  0  0  0
 11 12  1  0  0  0  0
 11 13  1  0  0  0  0
 11 14  1  0  0  0  0
  9 10  1  0  0  0  0
  9 11  1  0  0  0  0
  9 17  1  0  0  0  0
  7  8  1  0  0  0  0
  7  9  1  0  0  0  0
 21 22  1  0  0  0  0
 21 23  1  0  0  0  0
 21 24  1  0  0  0  0
 19 20  1  0  0  0  0
 19 21  1  0  0  0  0
M  CHG  1  15  -1
M  END
$$$$
default_name
  -OEChem-02102213163D

 24 23  0     1  0  0  0  0  0999 V2000
   -2.8347   -3.7166    0.8034 H   0  0  0  0  0  0  0  0  0  0  0  0
   -2.7728   -2.7096    0.3954 C   0  0  0  0  0  0  0  0  0  0  0  0
   -3.4267   -2.0426    0.9524 H   0  0  0  0  0  0  0  0  0  0  0  0
   -3.0538   -2.7186   -0.6556 H   0  0  0  0  0  0  0  0  0  0  0  0
   -1.3498   -2.2206    0.5184 C   0  0  0  0  0  0  0  0  0  0  0  0
   -0.4997   -2.9426    1.0194 O   0  0  0  0  0  0  0  0  0  0  0  0
   -1.1198   -0.9926    0.0674 N   0  0  0  0  0  0  0  0  0  0  0  0
   -1.8978   -0.4486   -0.2716 H   0  0  0  0  0  0  0  0  0  0  0  0
    0.1693   -0.2866    0.0854 C   0  0  1  0  0  0  0  0  0  0  0  0
    0.9043   -0.8713   -0.4705 H   0  0  0  0  0  0  0  0  0  0  0  0
    0.0106    1.0816   -0.6124 C   0  0  0  0  0  0  0  0  0  0  0  0
    0.4681    1.0255   -1.6017 H   0  0  0  0  0  0  0  0  0  0  0  0
   -1.0537    1.2857   -0.7489 H   0  0  0  0  0  0  0  0  0  0  0  0
    0.6603    2.2573    0.1340 C   0  0  0  0  0  0  0  0  0  0  0  0
    1.9082    2.3724    0.0997 O   0  5  0  0  0  0  0  0  0  0  0  0
   -0.1040    3.0273    0.7546 O   0  0  0  0  0  0  0  0  0  0  0  0
    0.6664   -0.1450    1.5428 C   0  0  0  0  0  0  0  0  0  0  0  0
    1.8485   -0.3724    1.8265 O   0  0  0  0  0  0  0  0  0  0  0  0
   -0.2161    0.2434    2.4686 N   0  0  0  0  0  0  0  0  0  0  0  0
   -1.1850    0.3219    2.1537 H   0  0  0  0  0  0  0  0  0  0  0  0
    0.0735    0.4128    3.8885 C   0  0  0  0  0  0  0  0  0  0  0  0
    1.0159    0.9483    4.0105 H   0  0  0  0  0  0  0  0  0  0  0  0
   -0.7315    0.9748    4.3613 H   0  0  0  0  0  0  0  0  0  0  0  0
    0.1564   -0.5677    4.3577 H   0  0  0  0  0  0  0  0  0  0  0  0
  5  6  2  0  0  0  0
  5  7  1  0  0  0  0
  2  3  1  0  0  0  0
  2  4  1  0  0  0  0
  2  5  1  0  0  0  0
  1  2  1  0  0  0  0
 17 18  2  0  0  0  0
 17 19  1  0  0  0  0
 14 15  1  0  0  0  0
 14 16  2  0  0  0  0
 11 12  1  0  0  0  0
 11 13  1  0  0  0  0
 11 14  1  0  0  0  0
  9 10  1  0  0  0  0
  9 11  1  0  0  0  0
  9 17  1  0  0  0  0
  7  8  1  0  0  0  0
  7  9  1  0  0  0  0
 21 22  1  0  0  0  0
 21 23  1  0  0  0  0
 21 24  1  0  0  0  0
 19 20  1  0  0  0  0
 19 21  1  0  0  0  0
M  CHG  1  15  -1
M  END
$$$$
default_name
  -OEChem-02102213163D

 24 23  0     1  0  0  0  0  0999 V2000
   -2.8347   -3.7166    0.8034 H   0  0  0  0  0  0  0  0  0  0  0  0
   -2.7728   -2.7096    0.3954 C   0  0  0  0  0  0  0  0  0  0  0  0
   -3.4267   -2.0426    0.9524 H   0  0  0  0  0  0  0  0  0  0  0  0
   -3.0538   -2.7186   -0.6556 H   0  0  0  0  0  0  0  0  0  0  0  0
   -1.3498   -2.2206    0.5184 C   0  0  0  0  0  0  0  0  0  0  0  0
   -0.4997   -2.9426    1.0194 O   0  0  0  0  0  0  0  0  0  0  0  0
   -1.1198   -0.9926    0.0674 N   0  0  0  0  0  0  0  0  0  0  0  0
   -1.8978   -0.4486   -0.2716 H   0  0  0  0  0  0  0  0  0  0  0  0
    0.1693   -0.2866    0.0854 C   0  0  1  0  0  0  0  0  0  0  0  0
    0.9043   -0.8713   -0.4705 H   0  0  0  0  0  0  0  0  0  0  0  0
    0.0106    1.0816   -0.6124 C   0  0  0  0  0  0  0  0  0  0  0  0
    0.4681    1.0255   -1.6017 H   0  0  0  0  0  0  0  0  0  0  0  0
   -1.0537    1.2857   -0.7489 H   0  0  0  0  0  0  0  0  0  0  0  0
    0.6603    2.2573    0.1340 C   0  0  0  0  0  0  0  0  0  0  0  0
    1.8530    2.5447   -0.1237 O   0  5  0  0  0  0  0  0  0  0  0  0
   -0.0437    2.8518    0.9784 O   0  0  0  0  0  0  0  0  0  0  0  0
    0.6664   -0.1450    1.5428 C   0  0  0  0  0  0  0  0  0  0  0  0
    1.8485   -0.3724    1.8265 O   0  0  0  0  0  0  0  0  0  0  0  0
   -0.2161    0.2434    2.4686 N   0  0  0  0  0  0  0  0  0  0  0  0
   -1.1850    0.3219    2.1537 H   0  0  0  0  0  0  0  0  0  0  0  0
    0.0735    0.4128    3.8885 C   0  0  0  0  0  0  0  0  0  0  0  0
    1.0159    0.9483    4.0105 H   0  0  0  0  0  0  0  0  0  0  0  0
   -0.7315    0.9748    4.3613 H   0  0  0  0  0  0  0  0  0  0  0  0
    0.1564   -0.5677    4.3577 H   0  0  0  0  0  0  0  0  0  0  0  0
  5  6  2  0  0  0  0
  5  7  1  0  0  0  0
  2  3  1  0  0  0  0
  2  4  1  0  0  0  0
  2  5  1  0  0  0  0
  1  2  1  0  0  0  0
 17 18  2  0  0  0  0
 17 19  1  0  0  0  0
 14 15  1  0  0  0  0
 14 16  2  0  0  0  0
 11 12  1  0  0  0  0
 11 13  1  0  0  0  0
 11 14  1  0  0  0  0
  9 10  1  0  0  0  0
  9 11  1  0  0  0  0
  9 17  1  0  0  0  0
  7  8  1  0  0  0  0
  7  9  1  0  0  0  0
 21 22  1  0  0  0  0
 21 23  1  0  0  0  0
 21 24  1  0  0  0  0
 19 20  1  0  0  0  0
 19 21  1  0  0  0  0
M  CHG  1  15  -1
M  END
$$$$
default_name
  -OEChem-02102213163D

 24 23  0     1  0  0  0  0  0999 V2000
   -2.8347   -3.7166    0.8034 H   0  0  0  0  0  0  0  0  0  0  0  0
   -2.7728   -2.7096    0.3954 C   0  0  0  0  0  0  0  0  0  0  0  0
   -3.4267   -2.0426    0.9524 H   0  0  0  0  0  0  0  0  0  0  0  0
   -3.0538   -2.7186   -0.6556 H   0  0  0  0  0  0  0  0  0  0  0  0
   -1.3498   -2.2206    0.5184 C   0  0  0  0  0  0  0  0  0  0  0  0
   -0.4997   -2.9426    1.0194 O   0  0  0  0  0  0  0  0  0  0  0  0
   -1.1198   -0.9926    0.0674 N   0  0  0  0  0  0  0  0  0  0  0  0
   -1.8978   -0.4486   -0.2716 H   0  0  0  0  0  0  0  0  0  0  0  0
    0.1693   -0.2866    0.0854 C   0  0  1  0  0  0  0  0  0  0  0  0
    0.9043   -0.8713   -0.4705 H   0  0  0  0  0  0  0  0  0  0  0  0
    0.0106    1.0816   -0.6124 C   0  0  0  0  0  0  0  0  0  0  0  0
    0.4681    1.0255   -1.6017 H   0  0  0  0  0  0  0  0  0  0  0  0
   -1.0537    1.2857   -0.7489 H   0  0  0  0  0  0  0  0  0  0  0  0
    0.6603    2.2573    0.1340 C   0  0  0  0  0  0  0  0  0  0  0  0
    1.7339    2.7287   -0.3097 O   0  5  0  0  0  0  0  0  0  0  0  0
    0.0809    2.6654    1.1635 O   0  0  0  0  0  0  0  0  0  0  0  0
    0.6664   -0.1450    1.5428 C   0  0  0  0  0  0  0  0  0  0  0  0
    1.8485   -0.3724    1.8265 O   0  0  0  0  0  0  0  0  0  0  0  0
   -0.2161    0.2434    2.4686 N   0  0  0  0  0  0  0  0  0  0  0  0
   -1.1850    0.3219    2.1537 H   0  0  0  0  0  0  0  0  0  0  0  0
    0.0735    0.4128    3.8885 C   0  0  0  0  0  0  0  0  0  0  0  0
    1.0159    0.9483    4.0105 H   0  0  0  0  0  0  0  0  0  0  0  0
   -0.7315    0.9748    4.3613 H   0  0  0  0  0  0  0  0  0  0  0  0
    0.1564   -0.5677    4.3577 H   0  0  0  0  0  0  0  0  0  0  0  0
  5  6  2  0  0  0  0
  5  7  1  0  0  0  0
  2  3  1  0  0  0  0
  2  4  1  0  0  0  0
  2  5  1  0  0  0  0
  1  2  1  0  0  0  0
 17 18  2  0  0  0  0
 17 19  1  0  0  0  0
 14 15  1  0  0  0  0
 14 16  2  0  0  0  0
 11 12  1  0  0  0  0
 11 13  1  0  0  0  0
 11 14  1  0  0  0  0
  9 10  1  0  0  0  0
  9 11  1  0  0  0  0
  9 17  1  0  0  0  0
  7  8  1  0  0  0  0
  7  9  1  0  0  0  0
 21 22  1  0  0  0  0
 21 23  1  0  0  0  0
 21 24  1  0  0  0  0
 19 20  1  0  0  0  0
 19 21  1  0  0  0  0
M  CHG  1  15  -1
M  END
$$$$
default_name
  -OEChem-02102213163D

 24 23  0     1  0  0  0  0  0999 V2000
   -2.8347   -3.7166    0.8034 H   0  0  0  0  0  0  0  0  0  0  0  0
   -2.7728   -2.7096    0.3954 C   0  0  0  0  0  0  0  0  0  0  0  0
   -3.4267   -2.0426    0.9524 H   0  0  0  0  0  0  0  0  0  0  0  0
   -3.0538   -2.7186   -0.6556 H   0  0  0  0  0  0  0  0  0  0  0  0
   -1.3498   -2.2206    0.5184 C   0  0  0  0  0  0  0  0  0  0  0  0
   -0.4997   -2.9426    1.0194 O   0  0  0  0  0  0  0  0  0  0  0  0
   -1.1198   -0.9926    0.0674 N   0  0  0  0  0  0  0  0  0  0  0  0
   -1.8978   -0.4486   -0.2716 H   0  0  0  0  0  0  0  0  0  0  0  0
    0.1693   -0.2866    0.0854 C   0  0  1  0  0  0  0  0  0  0  0  0
    0.9043   -0.8713   -0.4705 H   0  0  0  0  0  0  0  0  0  0  0  0
    0.0106    1.0816   -0.6124 C   0  0  0  0  0  0  0  0  0  0  0  0
    0.4681    1.0255   -1.6017 H   0  0  0  0  0  0  0  0  0  0  0  0
   -1.0537    1.2857   -0.7489 H   0  0  0  0  0  0  0  0  0  0  0  0
    0.6603    2.2573    0.1340 C   0  0  0  0  0  0  0  0  0  0  0  0
    1.5588    2.9118   -0.4457 O   0  5  0  0  0  0  0  0  0  0  0  0
    0.2614    2.4808    1.2972 O   0  0  0  0  0  0  0  0  0  0  0  0
    0.6664   -0.1450    1.5428 C   0  0  0  0  0  0  0  0  0  0  0  0
    1.8485   -0.3724    1.8265 O   0  0  0  0  0  0  0  0  0  0  0  0
   -0.2161    0.2434    2.4686 N   0  0  0  0  0  0  0  0  0  0  0  0
   -1.1850    0.3219    2.1537 H   0  0  0  0  0  0  0  0  0  0  0  0
    0.0735    0.4128    3.8885 C   0  0  0  0  0  0  0  0  0  0  0  0
    1.0159    0.9483    4.0105 H   0  0  0  0  0  0  0  0  0  0  0  0
   -0.7315    0.9748    4.3613 H   0  0  0  0  0  0  0  0  0  0  0  0
    0.1564   -0.5677    4.3577 H   0  0  0  0  0  0  0  0  0  0  0  0
  5  6  2  0  0  0  0
  5  7  1  0  0  0  0
  2  3  1  0  0  0  0
  2  4  1  0  0  0  0
  2  5  1  0  0  0  0
  1  2  1  0  0  0  0
 17 18  2  0  0  0  0
 17 19  1  0  0  0  0
 14 15  1  0  0  0  0
 14 16  2  0  0  0  0
 11 12  1  0  0  0  0
 11 13  1  0  0  0  0
 11 14  1  0  0  0  0
  9 10  1  0  0  0  0
  9 11  1  0  0  0  0
  9 17  1  0  0  0  0
  7  8  1  0  0  0  0
  7  9  1  0  0  0  0
 21 22  1  0  0  0  0
 21 23  1  0  0  0  0
 21 24  1  0  0  0  0
 19 20  1  0  0  0  0
 19 21  1  0  0  0  0
M  CHG  1  15  -1
M  END
$$$$
default_name
  -OEChem-02102213163D

 24 23  0     1  0  0  0  0  0999 V2000
   -2.8347   -3.7166    0.8034 H   0  0  0  0  0  0  0  0  0  0  0  0
   -2.7728   -2.7096    0.3954 C   0  0  0  0  0  0  0  0  0  0  0  0
   -3.4267   -2.0426    0.9524 H   0  0  0  0  0  0  0  0  0  0  0  0
   -3.0538   -2.7186   -0.6556 H   0  0  0  0  0  0  0  0  0  0  0  0
   -1.3498   -2.2206    0.5184 C   0  0  0  0  0  0  0  0  0  0  0  0
   -0.4997   -2.9426    1.0194 O   0  0  0  0  0  0  0  0  0  0  0  0
   -1.1198   -0.9926    0.0674 N   0  0  0  0  0  0  0  0  0  0  0  0
   -1.8978   -0.4486   -0.2716 H   0  0  0  0  0  0  0  0  0  0  0  0
    0.1693   -0.2866    0.0854 C   0  0  1  0  0  0  0  0  0  0  0  0
    0.9043   -0.8713   -0.4705 H   0  0  0  0  0  0  0  0  0  0  0  0
    0.0106    1.0816   -0.6124 C   0  0  0  0  0  0  0  0  0  0  0  0
    0.4681    1.0255   -1.6017 H   0  0  0  0  0  0  0  0  0  0  0  0
   -1.0537    1.2857   -0.7489 H   0  0  0  0  0  0  0  0  0  0  0  0
    0.6603    2.2573    0.1340 C   0  0  0  0  0  0  0  0  0  0  0  0
    1.3398    3.0815   -0.5223 O   0  5  0  0  0  0  0  0  0  0  0  0
    0.4853    2.3105    1.3704 O   0  0  0  0  0  0  0  0  0  0  0  0
    0.6664   -0.1450    1.5428 C   0  0  0  0  0  0  0  0  0  0  0  0
    1.8485   -0.3724    1.8265 O   0  0  0  0  0  0  0  0  0  0  0  0
   -0.2161    0.2434    2.4686 N   0  0  0  0  0  0  0  0  0  0  0  0
   -1.1850    0.3219    2.1537 H   0  0  0  0  0  0  0  0  0  0  0  0
    0.0735    0.4128    3.8885 C   0  0  0  0  0  0  0  0  0  0  0  0
    1.0159    0.9483    4.0105 H   0  0  0  0  0  0  0  0  0  0  0  0
   -0.7315    0.9748    4.3613 H   0  0  0  0  0  0  0  0  0  0  0  0
    0.1564   -0.5677    4.3577 H   0  0  0  0  0  0  0  0  0  0  0  0
  5  6  2  0  0  0  0
  5  7  1  0  0  0  0
  2  3  1  0  0  0  0
  2  4  1  0  0  0  0
  2  5  1  0  0  0  0
  1  2  1  0  0  0  0
 17 18  2  0  0  0  0
 17 19  1  0  0  0  0
 14 15  1  0  0  0  0
 14 16  2  0  0  0  0
 11 12  1  0  0  0  0
 11 13  1  0  0  0  0
 11 14  1  0  0  0  0
  9 10  1  0  0  0  0
  9 11  1  0  0  0  0
  9 17  1  0  0  0  0
  7  8  1  0  0  0  0
  7  9  1  0  0  0  0
 21 22  1  0  0  0  0
 21 23  1  0  0  0  0
 21 24  1  0  0  0  0
 19 20  1  0  0  0  0
 19 21  1  0  0  0  0
M  CHG  1  15  -1
M  END
$$$$
default_name
  -OEChem-02102213163D

 24 23  0     1  0  0  0  0  0999 V2000
   -2.8347   -3.7166    0.8034 H   0  0  0  0  0  0  0  0  0  0  0  0
   -2.7728   -2.7096    0.3954 C   0  0  0  0  0  0  0  0  0  0  0  0
   -3.4267   -2.0426    0.9524 H   0  0  0  0  0  0  0  0  0  0  0  0
   -3.0538   -2.7186   -0.6556 H   0  0  0  0  0  0  0  0  0  0  0  0
   -1.3498   -2.2206    0.5184 C   0  0  0  0  0  0  0  0  0  0  0  0
   -0.4997   -2.9426    1.0194 O   0  0  0  0  0  0  0  0  0  0  0  0
   -1.1198   -0.9926    0.0674 N   0  0  0  0  0  0  0  0  0  0  0  0
   -1.8978   -0.4486   -0.2716 H   0  0  0  0  0  0  0  0  0  0  0  0
    0.1693   -0.2866    0.0854 C   0  0  1  0  0  0  0  0  0  0  0  0
    0.9043   -0.8713   -0.4705 H   0  0  0  0  0  0  0  0  0  0  0  0
    0.0106    1.0816   -0.6124 C   0  0  0  0  0  0  0  0  0  0  0  0
    0.4681    1.0255   -1.6017 H   0  0  0  0  0  0  0  0  0  0  0  0
   -1.0537    1.2857   -0.7489 H   0  0  0  0  0  0  0  0  0  0  0  0
    0.6603    2.2573    0.1340 C   0  0  0  0  0  0  0  0  0  0  0  0
    1.0917    3.2262   -0.5344 O   0  5  0  0  0  0  0  0  0  0  0  0
    0.7376    2.1662    1.3781 O   0  0  0  0  0  0  0  0  0  0  0  0
    0.6664   -0.1450    1.5428 C   0  0  0  0  0  0  0  0  0  0  0  0
    1.8485   -0.3724    1.8265 O   0  0  0  0  0  0  0  0  0  0  0  0
   -0.2161    0.2434    2.4686 N   0  0  0  0  0  0  0  0  0  0  0  0
   -1.1850    0.3219    2.1537 H   0  0  0  0  0  0  0  0  0  0  0  0
    0.0735    0.4128    3.8885 C   0  0  0  0  0  0  0  0  0  0  0  0
    1.0159    0.9483    4.0105 H   0  0  0  0  0  0  0  0  0  0  0  0
   -0.7315    0.9748    4.3613 H   0  0  0  0  0  0  0  0  0  0  0  0
    0.1564   -0.5677    4.3577 H   0  0  0  0  0  0  0  0  0  0  0  0
  5  6  2  0  0  0  0
  5  7  1  0  0  0  0
  2  3  1  0  0  0  0
  2  4  1  0  0  0  0
  2  5  1  0  0  0  0
  1  2  1  0  0  0  0
 17 18  2  0  0  0  0
 17 19  1  0  0  0  0
 14 15  1  0  0  0  0
 14 16  2  0  0  0  0
 11 12  1  0  0  0  0
 11 13  1  0  0  0  0
 11 14  1  0  0  0  0
  9 10  1  0  0  0  0
  9 11  1  0  0  0  0
  9 17  1  0  0  0  0
  7  8  1  0  0  0  0
  7  9  1  0  0  0  0
 21 22  1  0  0  0  0
 21 23  1  0  0  0  0
 21 24  1  0  0  0  0
 19 20  1  0  0  0  0
 19 21  1  0  0  0  0
M  CHG  1  15  -1
M  END
$$$$
default_name
  -OEChem-02102213163D

 24 23  0     1  0  0  0  0  0999 V2000
   -2.8347   -3.7166    0.8034 H   0  0  0  0  0  0  0  0  0  0  0  0
   -2.7728   -2.7096    0.3954 C   0  0  0  0  0  0  0  0  0  0  0  0
   -3.4267   -2.0426    0.9524 H   0  0  0  0  0  0  0  0  0  0  0  0
   -3.0538   -2.7186   -0.6556 H   0  0  0  0  0  0  0  0  0  0  0  0
   -1.3498   -2.2206    0.5184 C   0  0  0  0  0  0  0  0  0  0  0  0
   -0.4997   -2.9426    1.0194 O   0  0  0  0  0  0  0  0  0  0  0  0
   -1.1198   -0.9926    0.0674 N   0  0  0  0  0  0  0  0  0  0  0  0
   -1.8978   -0.4486   -0.2716 H   0  0  0  0  0  0  0  0  0  0  0  0
    0.1693   -0.2866    0.0854 C   0  0  1  0  0  0  0  0  0  0  0  0
    0.9043   -0.8713   -0.4705 H   0  0  0  0  0  0  0  0  0  0  0  0
    0.0106    1.0816   -0.6124 C   0  0  0  0  0  0  0  0  0  0  0  0
    0.4681    1.0255   -1.6017 H   0  0  0  0  0  0  0  0  0  0  0  0
   -1.0537    1.2857   -0.7489 H   0  0  0  0  0  0  0  0  0  0  0  0
    0.6603    2.2573    0.1340 C   0  0  0  0  0  0  0  0  0  0  0  0
    0.8315    3.3362   -0.4810 O   0  5  0  0  0  0  0  0  0  0  0  0
    1.0009    2.0577    1.3199 O   0  0  0  0  0  0  0  0  0  0  0  0
    0.6664   -0.1450    1.5428 C   0  0  0  0  0  0  0  0  0  0  0  0
    1.8485   -0.3724    1.8265 O   0  0  0  0  0  0  0  0  0  0  0  0
   -0.2161    0.2434    2.4686 N   0  0  0  0  0  0  0  0  0  0  0  0
   -1.1850    0.3219    2.1537 H   0  0  0  0  0  0  0  0  0  0  0  0
    0.0735    0.4128    3.8885 C   0  0  0  0  0  0  0  0  0  0  0  0
    1.0159    0.9483    4.0105 H   0  0  0  0  0  0  0  0  0  0  0  0
   -0.7315    0.9748    4.3613 H   0  0  0  0  0  0  0  0  0  0  0  0
    0.1564   -0.5677    4.3577 H   0  0  0  0  0  0  0  0  0  0  0  0
  5  6  2  0  0  0  0
  5  7  1  0  0  0  0
  2  3  1  0  0  0  0
  2  4  1  0  0  0  0
  2  5  1  0  0  0  0
  1  2  1  0  0  0  0
 17 18  2  0  0  0  0
 17 19  1  0  0  0  0
 14 15  1  0  0  0  0
 14 16  2  0  0  0  0
 11 12  1  0  0  0  0
 11 13  1  0  0  0  0
 11 14  1  0  0  0  0
  9 10  1  0  0  0  0
  9 11  1  0  0  0  0
  9 17  1  0  0  0  0
  7  8  1  0  0  0  0
  7  9  1  0  0  0  0
 21 22  1  0  0  0  0
 21 23  1  0  0  0  0
 21 24  1  0  0  0  0
 19 20  1  0  0  0  0
 19 21  1  0  0  0  0
M  CHG  1  15  -1
M  END
$$$$
default_name
  -OEChem-02102213163D

 24 23  0     1  0  0  0  0  0999 V2000
   -2.8347   -3.7166    0.8034 H   0  0  0  0  0  0  0  0  0  0  0  0
   -2.7728   -2.7096    0.3954 C   0  0  0  0  0  0  0  0  0  0  0  0
   -3.4267   -2.0426    0.9524 H   0  0  0  0  0  0  0  0  0  0  0  0
   -3.0538   -2.7186   -0.6556 H   0  0  0  0  0  0  0  0  0  0  0  0
   -1.3498   -2.2206    0.5184 C   0  0  0  0  0  0  0  0  0  0  0  0
   -0.4997   -2.9426    1.0194 O   0  0  0  0  0  0  0  0  0  0  0  0
   -1.1198   -0.9926    0.0674 N   0  0  0  0  0  0  0  0  0  0  0  0
   -1.8978   -0.4486   -0.2716 H   0  0  0  0  0  0  0  0  0  0  0  0
    0.1693   -0.2866    0.0854 C   0  0  1  0  0  0  0  0  0  0  0  0
    0.9043   -0.8713   -0.4705 H   0  0  0  0  0  0  0  0  0  0  0  0
    0.0106    1.0816   -0.6124 C   0  0  0  0  0  0  0  0  0  0  0  0
    0.2179    0.9581   -1.6768 H   0  0  0  0  0  0  0  0  0  0  0  0
   -1.0261    1.4102   -0.5110 H   0  0  0  0  0  0  0  0  0  0  0  0
    0.9446    2.1803   -0.0816 C   0  0  0  0  0  0  0  0  0  0  0  0
    0.8791    3.3221   -0.5951 O   0  5  0  0  0  0  0  0  0  0  0  0
    1.7375    1.8594    0.8298 O   0  0  0  0  0  0  0  0  0  0  0  0
    0.6664   -0.1450    1.5428 C   0  0  0  0  0  0  0  0  0  0  0  0
    1.8485   -0.3724    1.8265 O   0  0  0  0  0  0  0  0  0  0  0  0
   -0.2161    0.2434    2.4686 N   0  0  0  0  0  0  0  0  0  0  0  0
   -1.1850    0.3219    2.1537 H   0  0  0  0  0  0  0  0  0  0  0  0
    0.0735    0.4128    3.8885 C   0  0  0  0  0  0  0  0  0  0  0  0
    1.0159    0.9483    4.0105 H   0  0  0  0  0  0  0  0  0  0  0  0
   -0.7315    0.9748    4.3613 H   0  0  0  0  0  0  0  0  0  0  0  0
    0.1564   -0.5677    4.3577 H   0  0  0  0  0  0  0  0  0  0  0  0
  5  6  2  0  0  0  0
  5  7  1  0  0  0  0
  2  3  1  0  0  0  0
  2  4  1  0  0  0  0
  2  5  1  0  0  0  0
  1  2  1  0  0  0  0
 17 18  2  0  0  0  0
 17 19  1  0  0  0  0
 14 15  1  0  0  0  0
 14 16  2  0  0  0  0
 11 12  1  0  0  0  0
 11 13  1  0  0  0  0
 11 14  1  0  0  0  0
  9 10  1  0  0  0  0
  9 11  1  0  0  0  0
  9 17  1  0  0  0  0
  7  8  1  0  0  0  0
  7  9  1  0  0  0  0
 21 22  1  0  0  0  0
 21 23  1  0  0  0  0
 21 24  1  0  0  0  0
 19 20  1  0  0  0  0
 19 21  1  0  0  0  0
M  CHG  1  15  -1
M  END
$$$$
default_name
  -OEChem-02102213163D

 24 23  0     1  0  0  0  0  0999 V2000
   -2.8347   -3.7166    0.8034 H   0  0  0  0  0  0  0  0  0  0  0  0
   -2.7728   -2.7096    0.3954 C   0  0  0  0  0  0  0  0  0  0  0  0
   -3.4267   -2.0426    0.9524 H   0  0  0  0  0  0  0  0  0  0  0  0
   -3.0538   -2.7186   -0.6556 H   0  0  0  0  0  0  0  0  0  0  0  0
   -1.3498   -2.2206    0.5184 C   0  0  0  0  0  0  0  0  0  0  0  0
   -0.4997   -2.9426    1.0194 O   0  0  0  0  0  0  0  0  0  0  0  0
   -1.1198   -0.9926    0.0674 N   0  0  0  0  0  0  0  0  0  0  0  0
   -1.8978   -0.4486   -0.2716 H   0  0  0  0  0  0  0  0  0  0  0  0
    0.1693   -0.2866    0.0854 C   0  0  1  0  0  0  0  0  0  0  0  0
    0.9043   -0.8713   -0.4705 H   0  0  0  0  0  0  0  0  0  0  0  0
    0.0106    1.0816   -0.6124 C   0  0  0  0  0  0  0  0  0  0  0  0
    0.2179    0.9581   -1.6768 H   0  0  0  0  0  0  0  0  0  0  0  0
   -1.0261    1.4102   -0.5110 H   0  0  0  0  0  0  0  0  0  0  0  0
    0.9446    2.1803   -0.0816 C   0  0  0  0  0  0  0  0  0  0  0  0
    0.6966    3.3727   -0.3788 O   0  5  0  0  0  0  0  0  0  0  0  0
    1.9196    1.8117    0.6082 O   0  0  0  0  0  0  0  0  0  0  0  0
    0.6664   -0.1450    1.5428 C   0  0  0  0  0  0  0  0  0  0  0  0
    1.8485   -0.3724    1.8265 O   0  0  0  0  0  0  0  0  0  0  0  0
   -0.2161    0.2434    2.4686 N   0  0  0  0  0  0  0  0  0  0  0  0
   -1.1850    0.3219    2.1537 H   0  0  0  0  0  0  0  0  0  0  0  0
    0.0735    0.4128    3.8885 C   0  0  0  0  0  0  0  0  0  0  0  0
    1.0159    0.9483    4.0105 H   0  0  0  0  0  0  0  0  0  0  0  0
   -0.7315    0.9748    4.3613 H   0  0  0  0  0  0  0  0  0  0  0  0
    0.1564   -0.5677    4.3577 H   0  0  0  0  0  0  0  0  0  0  0  0
  5  6  2  0  0  0  0
  5  7  1  0  0  0  0
  2  3  1  0  0  0  0
  2  4  1  0  0  0  0
  2  5  1  0  0  0  0
  1  2  1  0  0  0  0
 17 18  2  0  0  0  0
 17 19  1  0  0  0  0
 14 15  1  0  0  0  0
 14 16  2  0  0  0  0
 11 12  1  0  0  0  0
 11 13  1  0  0  0  0
 11 14  1  0  0  0  0
  9 10  1  0  0  0  0
  9 11  1  0  0  0  0
  9 17  1  0  0  0  0
  7  8  1  0  0  0  0
  7  9  1  0  0  0  0
 21 22  1  0  0  0  0
 21 23  1  0  0  0  0
 21 24  1  0  0  0  0
 19 20  1  0  0  0  0
 19 21  1  0  0  0  0
M  CHG  1  15  -1
M  END
$$$$
default_name
  -OEChem-02102213163D

 24 23  0     1  0  0  0  0  0999 V2000
   -2.8347   -3.7166    0.8034 H   0  0  0  0  0  0  0  0  0  0  0  0
   -2.7728   -2.7096    0.3954 C   0  0  0  0  0  0  0  0  0  0  0  0
   -3.4267   -2.0426    0.9524 H   0  0  0  0  0  0  0  0  0  0  0  0
   -3.0538   -2.7186   -0.6556 H   0  0  0  0  0  0  0  0  0  0  0  0
   -1.3498   -2.2206    0.5184 C   0  0  0  0  0  0  0  0  0  0  0  0
   -0.4997   -2.9426    1.0194 O   0  0  0  0  0  0  0  0  0  0  0  0
   -1.1198   -0.9926    0.0674 N   0  0  0  0  0  0  0  0  0  0  0  0
   -1.8978   -0.4486   -0.2716 H   0  0  0  0  0  0  0  0  0  0  0  0
    0.1693   -0.2866    0.0854 C   0  0  1  0  0  0  0  0  0  0  0  0
    0.9043   -0.8713   -0.4705 H   0  0  0  0  0  0  0  0  0  0  0  0
    0.0106    1.0816   -0.6124 C   0  0  0  0  0  0  0  0  0  0  0  0
    0.2179    0.9581   -1.6768 H   0  0  0  0  0  0  0  0  0  0  0  0
   -1.0261    1.4102   -0.5110 H   0  0  0  0  0  0  0  0  0  0  0  0
    0.9446    2.1803   -0.0816 C   0  0  0  0  0  0  0  0  0  0  0  0
    0.5558    3.3713   -0.1281 O   0  5  0  0  0  0  0  0  0  0  0  0
    2.0587    1.8167    0.3530 O   0  0  0  0  0  0  0  0  0  0  0  0
    0.6664   -0.1450    1.5428 C   0  0  0  0  0  0  0  0  0  0  0  0
    1.8485   -0.3724    1.8265 O   0  0  0  0  0  0  0  0  0  0  0  0
   -0.2161    0.2434    2.4686 N   0  0  0  0  0  0  0  0  0  0  0  0
   -1.1850    0.3219    2.1537 H   0  0  0  0  0  0  0  0  0  0  0  0
    0.0735    0.4128    3.8885 C   0  0  0  0  0  0  0  0  0  0  0  0
    1.0159    0.9483    4.0105 H   0  0  0  0  0  0  0  0  0  0  0  0
   -0.7315    0.9748    4.3613 H   0  0  0  0  0  0  0  0  0  0  0  0
    0.1564   -0.5677    4.3577 H   0  0  0  0  0  0  0  0  0  0  0  0
  5  6  2  0  0  0  0
  5  7  1  0  0  0  0
  2  3  1  0  0  0  0
  2  4  1  0  0  0  0
  2  5  1  0  0  0  0
  1  2  1  0  0  0  0
 17 18  2  0  0  0  0
 17 19  1  0  0  0  0
 14 15  1  0  0  0  0
 14 16  2  0  0  0  0
 11 12  1  0  0  0  0
 11 13  1  0  0  0  0
 11 14  1  0  0  0  0
  9 10  1  0  0  0  0
  9 11  1  0  0  0  0
  9 17  1  0  0  0  0
  7  8  1  0  0  0  0
  7  9  1  0  0  0  0
 21 22  1  0  0  0  0
 21 23  1  0  0  0  0
 21 24  1  0  0  0  0
 19 20  1  0  0  0  0
 19 21  1  0  0  0  0
M  CHG  1  15  -1
M  END
$$$$
default_name
  -OEChem-02102213163D

 24 23  0     1  0  0  0  0  0999 V2000
   -2.8347   -3.7166    0.8034 H   0  0  0  0  0  0  0  0  0  0  0  0
   -2.7728   -2.7096    0.3954 C   0  0  0  0  0  0  0  0  0  0  0  0
   -3.4267   -2.0426    0.9524 H   0  0  0  0  0  0  0  0  0  0  0  0
   -3.0538   -2.7186   -0.6556 H   0  0  0  0  0  0  0  0  0  0  0  0
   -1.3498   -2.2206    0.5184 C   0  0  0  0  0  0  0  0  0  0  0  0
   -0.4997   -2.9426    1.0194 O   0  0  0  0  0  0  0  0  0  0  0  0
   -1.1198   -0.9926    0.0674 N   0  0  0  0  0  0  0  0  0  0  0  0
   -1.8978   -0.4486   -0.2716 H   0  0  0  0  0  0  0  0  0  0  0  0
    0.1693   -0.2866    0.0854 C   0  0  1  0  0  0  0  0  0  0  0  0
    0.9043   -0.8713   -0.4705 H   0  0  0  0  0  0  0  0  0  0  0  0
    0.0106    1.0816   -0.6124 C   0  0  0  0  0  0  0  0  0  0  0  0
    0.2179    0.9581   -1.6768 H   0  0  0  0  0  0  0  0  0  0  0  0
   -1.0261    1.4102   -0.5110 H   0  0  0  0  0  0  0  0  0  0  0  0
    0.9446    2.1803   -0.0816 C   0  0  0  0  0  0  0  0  0  0  0  0
    0.4664    3.3178    0.1398 O   0  5  0  0  0  0  0  0  0  0  0  0
    2.1454    1.8742    0.0815 O   0  0  0  0  0  0  0  0  0  0  0  0
    0.6664   -0.1450    1.5428 C   0  0  0  0  0  0  0  0  0  0  0  0
    1.8485   -0.3724    1.8265 O   0  0  0  0  0  0  0  0  0  0  0  0
   -0.2161    0.2434    2.4686 N   0  0  0  0  0  0  0  0  0  0  0  0
   -1.1850    0.3219    2.1537 H   0  0  0  0  0  0  0  0  0  0  0  0
    0.0735    0.4128    3.8885 C   0  0  0  0  0  0  0  0  0  0  0  0
    1.0159    0.9483    4.0105 H   0  0  0  0  0  0  0  0  0  0  0  0
   -0.7315    0.9748    4.3613 H   0  0  0  0  0  0  0  0  0  0  0  0
    0.1564   -0.5677    4.3577 H   0  0  0  0  0  0  0  0  0  0  0  0
  5  6  2  0  0  0  0
  5  7  1  0  0  0  0
  2  3  1  0  0  0  0
  2  4  1  0  0  0  0
  2  5  1  0  0  0  0
  1  2  1  0  0  0  0
 17 18  2  0  0  0  0
 17 19  1  0  0  0  0
 14 15  1  0  0  0  0
 14 16  2  0  0  0  0
 11 12  1  0  0  0  0
 11 13  1  0  0  0  0
 11 14  1  0  0  0  0
  9 10  1  0  0  0  0
  9 11  1  0  0  0  0
  9 17  1  0  0  0  0
  7  8  1  0  0  0  0
  7  9  1  0  0  0  0
 21 22  1  0  0  0  0
 21 23  1  0  0  0  0
 21 24  1  0  0  0  0
 19 20  1  0  0  0  0
 19 21  1  0  0  0  0
M  CHG  1  15  -1
M  END
$$$$
default_name
  -OEChem-02102213163D

 24 23  0     1  0  0  0  0  0999 V2000
   -2.8347   -3.7166    0.8034 H   0  0  0  0  0  0  0  0  0  0  0  0
   -2.7728   -2.7096    0.3954 C   0  0  0  0  0  0  0  0  0  0  0  0
   -3.4267   -2.0426    0.9524 H   0  0  0  0  0  0  0  0  0  0  0  0
   -3.0538   -2.7186   -0.6556 H   0  0  0  0  0  0  0  0  0  0  0  0
   -1.3498   -2.2206    0.5184 C   0  0  0  0  0  0  0  0  0  0  0  0
   -0.4997   -2.9426    1.0194 O   0  0  0  0  0  0  0  0  0  0  0  0
   -1.1198   -0.9926    0.0674 N   0  0  0  0  0  0  0  0  0  0  0  0
   -1.8978   -0.4486   -0.2716 H   0  0  0  0  0  0  0  0  0  0  0  0
    0.1693   -0.2866    0.0854 C   0  0  1  0  0  0  0  0  0  0  0  0
    0.9043   -0.8713   -0.4705 H   0  0  0  0  0  0  0  0  0  0  0  0
    0.0106    1.0816   -0.6124 C   0  0  0  0  0  0  0  0  0  0  0  0
    0.2179    0.9581   -1.6768 H   0  0  0  0  0  0  0  0  0  0  0  0
   -1.0261    1.4102   -0.5110 H   0  0  0  0  0  0  0  0  0  0  0  0
    0.9446    2.1803   -0.0816 C   0  0  0  0  0  0  0  0  0  0  0  0
    0.4343    3.2161    0.4068 O   0  5  0  0  0  0  0  0  0  0  0  0
    2.1738    1.9802   -0.1878 O   0  0  0  0  0  0  0  0  0  0  0  0
    0.6664   -0.1450    1.5428 C   0  0  0  0  0  0  0  0  0  0  0  0
    1.8485   -0.3724    1.8265 O   0  0  0  0  0  0  0  0  0  0  0  0
   -0.2161    0.2434    2.4686 N   0  0  0  0  0  0  0  0  0  0  0  0
   -1.1850    0.3219    2.1537 H   0  0  0  0  0  0  0  0  0  0  0  0
    0.0735    0.4128    3.8885 C   0  0  0  0  0  0  0  0  0  0  0  0
    1.0159    0.9483    4.0105 H   0  0  0  0  0  0  0  0  0  0  0  0
   -0.7315    0.9748    4.3613 H   0  0  0  0  0  0  0  0  0  0  0  0
    0.1564   -0.5677    4.3577 H   0  0  0  0  0  0  0  0  0  0  0  0
  5  6  2  0  0  0  0
  5  7  1  0  0  0  0
  2  3  1  0  0  0  0
  2  4  1  0  0  0  0
  2  5  1  0  0  0  0
  1  2  1  0  0  0  0
 17 18  2  0  0  0  0
 17 19  1  0  0  0  0
 14 15  1  0  0  0  0
 14 16  2  0  0  0  0
 11 12  1  0  0  0  0
 11 13  1  0  0  0  0
 11 14  1  0  0  0  0
  9 10  1  0  0  0  0
  9 11  1  0  0  0  0
  9 17  1  0  0  0  0
  7  8  1  0  0  0  0
  7  9  1  0  0  0  0
 21 22  1  0  0  0  0
 21 23  1  0  0  0  0
 21 24  1  0  0  0  0
 19 20  1  0  0  0  0
 19 21  1  0  0  0  0
M  CHG  1  15  -1
M  END
$$$$
default_name
  -OEChem-02102213163D

 24 23  0     1  0  0  0  0  0999 V2000
   -2.8347   -3.7166    0.8034 H   0  0  0  0  0  0  0  0  0  0  0  0
   -2.7728   -2.7096    0.3954 C   0  0  0  0  0  0  0  0  0  0  0  0
   -3.4267   -2.0426    0.9524 H   0  0  0  0  0  0  0  0  0  0  0  0
   -3.0538   -2.7186   -0.6556 H   0  0  0  0  0  0  0  0  0  0  0  0
   -1.3498   -2.2206    0.5184 C   0  0  0  0  0  0  0  0  0  0  0  0
   -0.4997   -2.9426    1.0194 O   0  0  0  0  0  0  0  0  0  0  0  0
   -1.1198   -0.9926    0.0674 N   0  0  0  0  0  0  0  0  0  0  0  0
   -1.8978   -0.4486   -0.2716 H   0  0  0  0  0  0  0  0  0  0  0  0
    0.1693   -0.2866    0.0854 C   0  0  1  0  0  0  0  0  0  0  0  0
    0.9043   -0.8713   -0.4705 H   0  0  0  0  0  0  0  0  0  0  0  0
    0.0106    1.0816   -0.6124 C   0  0  0  0  0  0  0  0  0  0  0  0
    0.2179    0.9581   -1.6768 H   0  0  0  0  0  0  0  0  0  0  0  0
   -1.0261    1.4102   -0.5110 H   0  0  0  0  0  0  0  0  0  0  0  0
    0.9446    2.1803   -0.0816 C   0  0  0  0  0  0  0  0  0  0  0  0
    0.4619    3.0730    0.6545 O   0  5  0  0  0  0  0  0  0  0  0  0
    2.1419    2.1274   -0.4364 O   0  0  0  0  0  0  0  0  0  0  0  0
    0.6664   -0.1450    1.5428 C   0  0  0  0  0  0  0  0  0  0  0  0
    1.8485   -0.3724    1.8265 O   0  0  0  0  0  0  0  0  0  0  0  0
   -0.2161    0.2434    2.4686 N   0  0  0  0  0  0  0  0  0  0  0  0
   -1.1850    0.3219    2.1537 H   0  0  0  0  0  0  0  0  0  0  0  0
    0.0735    0.4128    3.8885 C   0  0  0  0  0  0  0  0  0  0  0  0
    1.0159    0.9483    4.0105 H   0  0  0  0  0  0  0  0  0  0  0  0
   -0.7315    0.9748    4.3613 H   0  0  0  0  0  0  0  0  0  0  0  0
    0.1564   -0.5677    4.3577 H   0  0  0  0  0  0  0  0  0  0  0  0
  5  6  2  0  0  0  0
  5  7  1  0  0  0  0
  2  3  1  0  0  0  0
  2  4  1  0  0  0  0
  2  5  1  0  0  0  0
  1  2  1  0  0  0  0
 17 18  2  0  0  0  0
 17 19  1  0  0  0  0
 14 15  1  0  0  0  0
 14 16  2  0  0  0  0
 11 12  1  0  0  0  0
 11 13  1  0  0  0  0
 11 14  1  0  0  0  0
  9 10  1  0  0  0  0
  9 11  1  0  0  0  0
  9 17  1  0  0  0  0
  7  8  1  0  0  0  0
  7  9  1  0  0  0  0
 21 22  1  0  0  0  0
 21 23  1  0  0  0  0
 21 24  1  0  0  0  0
 19 20  1  0  0  0  0
 19 21  1  0  0  0  0
M  CHG  1  15  -1
M  END
$$$$
default_name
  -OEChem-02102213163D

 24 23  0     1  0  0  0  0  0999 V2000
   -2.8347   -3.7166    0.8034 H   0  0  0  0  0  0  0  0  0  0  0  0
   -2.7728   -2.7096    0.3954 C   0  0  0  0  0  0  0  0  0  0  0  0
   -3.4267   -2.0426    0.9524 H   0  0  0  0  0  0  0  0  0  0  0  0
   -3.0538   -2.7186   -0.6556 H   0  0  0  0  0  0  0  0  0  0  0  0
   -1.3498   -2.2206    0.5184 C   0  0  0  0  0  0  0  0  0  0  0  0
   -0.4997   -2.9426    1.0194 O   0  0  0  0  0  0  0  0  0  0  0  0
   -1.1198   -0.9926    0.0674 N   0  0  0  0  0  0  0  0  0  0  0  0
   -1.8978   -0.4486   -0.2716 H   0  0  0  0  0  0  0  0  0  0  0  0
    0.1693   -0.2866    0.0854 C   0  0  1  0  0  0  0  0  0  0  0  0
    0.9043   -0.8713   -0.4705 H   0  0  0  0  0  0  0  0  0  0  0  0
    0.0106    1.0816   -0.6124 C   0  0  0  0  0  0  0  0  0  0  0  0
    0.2179    0.9581   -1.6768 H   0  0  0  0  0  0  0  0  0  0  0  0
   -1.0261    1.4102   -0.5110 H   0  0  0  0  0  0  0  0  0  0  0  0
    0.9446    2.1803   -0.0816 C   0  0  0  0  0  0  0  0  0  0  0  0
    0.5471    2.8982    0.8663 O   0  5  0  0  0  0  0  0  0  0  0  0
    2.0519    2.3059   -0.6475 O   0  0  0  0  0  0  0  0  0  0  0  0
    0.6664   -0.1450    1.5428 C   0  0  0  0  0  0  0  0  0  0  0  0
    1.8485   -0.3724    1.8265 O   0  0  0  0  0  0  0  0  0  0  0  0
   -0.2161    0.2434    2.4686 N   0  0  0  0  0  0  0  0  0  0  0  0
   -1.1850    0.3219    2.1537 H   0  0  0  0  0  0  0  0  0  0  0  0
    0.0735    0.4128    3.8885 C   0  0  0  0  0  0  0  0  0  0  0  0
    1.0159    0.9483    4.0105 H   0  0  0  0  0  0  0  0  0  0  0  0
   -0.7315    0.9748    4.3613 H   0  0  0  0  0  0  0  0  0  0  0  0
    0.1564   -0.5677    4.3577 H   0  0  0  0  0  0  0  0  0  0  0  0
  5  6  2  0  0  0  0
  5  7  1  0  0  0  0
  2  3  1  0  0  0  0
  2  4  1  0  0  0  0
  2  5  1  0  0  0  0
  1  2  1  0  0  0  0
 17 18  2  0  0  0  0
 17 19  1  0  0  0  0
 14 15  1  0  0  0  0
 14 16  2  0  0  0  0
 11 12  1  0  0  0  0
 11 13  1  0  0  0  0
 11 14  1  0  0  0  0
  9 10  1  0  0  0  0
  9 11  1  0  0  0  0
  9 17  1  0  0  0  0
  7  8  1  0  0  0  0
  7  9  1  0  0  0  0
 21 22  1  0  0  0  0
 21 23  1  0  0  0  0
 21 24  1  0  0  0  0
 19 20  1  0  0  0  0
 19 21  1  0  0  0  0
M  CHG  1  15  -1
M  END
$$$$
default_name
  -OEChem-02102213163D

 24 23  0     1  0  0  0  0  0999 V2000
   -2.8347   -3.7166    0.8034 H   0  0  0  0  0  0  0  0  0  0  0  0
   -2.7728   -2.7096    0.3954 C   0  0  0  0  0  0  0  0  0  0  0  0
   -3.4267   -2.0426    0.9524 H   0  0  0  0  0  0  0  0  0  0  0  0
   -3.0538   -2.7186   -0.6556 H   0  0  0  0  0  0  0  0  0  0  0  0
   -1.3498   -2.2206    0.5184 C   0  0  0  0  0  0  0  0  0  0  0  0
   -0.4997   -2.9426    1.0194 O   0  0  0  0  0  0  0  0  0  0  0  0
   -1.1198   -0.9926    0.0674 N   0  0  0  0  0  0  0  0  0  0  0  0
   -1.8978   -0.4486   -0.2716 H   0  0  0  0  0  0  0  0  0  0  0  0
    0.1693   -0.2866    0.0854 C   0  0  1  0  0  0  0  0  0  0  0  0
    0.9043   -0.8713   -0.4705 H   0  0  0  0  0  0  0  0  0  0  0  0
    0.0106    1.0816   -0.6124 C   0  0  0  0  0  0  0  0  0  0  0  0
    0.2179    0.9581   -1.6768 H   0  0  0  0  0  0  0  0  0  0  0  0
   -1.0261    1.4102   -0.5110 H   0  0  0  0  0  0  0  0  0  0  0  0
    0.9446    2.1803   -0.0816 C   0  0  0  0  0  0  0  0  0  0  0  0
    0.6843    2.7036    1.0275 O   0  5  0  0  0  0  0  0  0  0  0  0
    1.9100    2.5035   -0.8067 O   0  0  0  0  0  0  0  0  0  0  0  0
    0.6664   -0.1450    1.5428 C   0  0  0  0  0  0  0  0  0  0  0  0
    1.8485   -0.3724    1.8265 O   0  0  0  0  0  0  0  0  0  0  0  0
   -0.2161    0.2434    2.4686 N   0  0  0  0  0  0  0  0  0  0  0  0
   -1.1850    0.3219    2.1537 H   0  0  0  0  0  0  0  0  0  0  0  0
    0.0735    0.4128    3.8885 C   0  0  0  0  0  0  0  0  0  0  0  0
    1.0159    0.9483    4.0105 H   0  0  0  0  0  0  0  0  0  0  0  0
   -0.7315    0.9748    4.3613 H   0  0  0  0  0  0  0  0  0  0  0  0
    0.1564   -0.5677    4.3577 H   0  0  0  0  0  0  0  0  0  0  0  0
  5  6  2  0  0  0  0
  5  7  1  0  0  0  0
  2  3  1  0  0  0  0
  2  4  1  0  0  0  0
  2  5  1  0  0  0  0
  1  2  1  0  0  0  0
 17 18  2  0  0  0  0
 17 19  1  0  0  0  0
 14 15  1  0  0  0  0
 14 16  2  0  0  0  0
 11 12  1  0  0  0  0
 11 13  1  0  0  0  0
 11 14  1  0  0  0  0
  9 10  1  0  0  0  0
  9 11  1  0  0  0  0
  9 17  1  0  0  0  0
  7  8  1  0  0  0  0
  7  9  1  0  0  0  0
 21 22  1  0  0  0  0
 21 23  1  0  0  0  0
 21 24  1  0  0  0  0
 19 20  1  0  0  0  0
 19 21  1  0  0  0  0
M  CHG  1  15  -1
M  END
$$$$
default_name
  -OEChem-02102213163D

 24 23  0     1  0  0  0  0  0999 V2000
   -2.8347   -3.7166    0.8034 H   0  0  0  0  0  0  0  0  0  0  0  0
   -2.7728   -2.7096    0.3954 C   0  0  0  0  0  0  0  0  0  0  0  0
   -3.4267   -2.0426    0.9524 H   0  0  0  0  0  0  0  0  0  0  0  0
   -3.0538   -2.7186   -0.6556 H   0  0  0  0  0  0  0  0  0  0  0  0
   -1.3498   -2.2206    0.5184 C   0  0  0  0  0  0  0  0  0  0  0  0
   -0.4997   -2.9426    1.0194 O   0  0  0  0  0  0  0  0  0  0  0  0
   -1.1198   -0.9926    0.0674 N   0  0  0  0  0  0  0  0  0  0  0  0
   -1.8978   -0.4486   -0.2716 H   0  0  0  0  0  0  0  0  0  0  0  0
    0.1693   -0.2866    0.0854 C   0  0  1  0  0  0  0  0  0  0  0  0
    0.9043   -0.8713   -0.4705 H   0  0  0  0  0  0  0  0  0  0  0  0
    0.0106    1.0816   -0.6124 C   0  0  0  0  0  0  0  0  0  0  0  0
    0.2179    0.9581   -1.6768 H   0  0  0  0  0  0  0  0  0  0  0  0
   -1.0261    1.4102   -0.5110 H   0  0  0  0  0  0  0  0  0  0  0  0
    0.9446    2.1803   -0.0816 C   0  0  0  0  0  0  0  0  0  0  0  0
    0.8640    2.5027    1.1273 O   0  5  0  0  0  0  0  0  0  0  0  0
    1.7257    2.7067   -0.9031 O   0  0  0  0  0  0  0  0  0  0  0  0
    0.6664   -0.1450    1.5428 C   0  0  0  0  0  0  0  0  0  0  0  0
    1.8485   -0.3724    1.8265 O   0  0  0  0  0  0  0  0  0  0  0  0
   -0.2161    0.2434    2.4686 N   0  0  0  0  0  0  0  0  0  0  0  0
   -1.1850    0.3219    2.1537 H   0  0  0  0  0  0  0  0  0  0  0  0
    0.0735    0.4128    3.8885 C   0  0  0  0  0  0  0  0  0  0  0  0
    1.0159    0.9483    4.0105 H   0  0  0  0  0  0  0  0  0  0  0  0
   -0.7315    0.9748    4.3613 H   0  0  0  0  0  0  0  0  0  0  0  0
    0.1564   -0.5677    4.3577 H   0  0  0  0  0  0  0  0  0  0  0  0
  5  6  2  0  0  0  0
  5  7  1  0  0  0  0
  2  3  1  0  0  0  0
  2  4  1  0  0  0  0
  2  5  1  0  0  0  0
  1  2  1  0  0  0  0
 17 18  2  0  0  0  0
 17 19  1  0  0  0  0
 14 15  1  0  0  0  0
 14 16  2  0  0  0  0
 11 12  1  0  0  0  0
 11 13  1  0  0  0  0
 11 14  1  0  0  0  0
  9 10  1  0  0  0  0
  9 11  1  0  0  0  0
  9 17  1  0  0  0  0
  7  8  1  0  0  0  0
  7  9  1  0  0  0  0
 21 22  1  0  0  0  0
 21 23  1  0  0  0  0
 21 24  1  0  0  0  0
 19 20  1  0  0  0  0
 19 21  1  0  0  0  0
M  CHG  1  15  -1
M  END
$$$$
default_name
  -OEChem-02102213163D

 24 23  0     1  0  0  0  0  0999 V2000
   -2.8347   -3.7166    0.8034 H   0  0  0  0  0  0  0  0  0  0  0  0
   -2.7728   -2.7096    0.3954 C   0  0  0  0  0  0  0  0  0  0  0  0
   -3.4267   -2.0426    0.9524 H   0  0  0  0  0  0  0  0  0  0  0  0
   -3.0538   -2.7186   -0.6556 H   0  0  0  0  0  0  0  0  0  0  0  0
   -1.3498   -2.2206    0.5184 C   0  0  0  0  0  0  0  0  0  0  0  0
   -0.4997   -2.9426    1.0194 O   0  0  0  0  0  0  0  0  0  0  0  0
   -1.1198   -0.9926    0.0674 N   0  0  0  0  0  0  0  0  0  0  0  0
   -1.8978   -0.4486   -0.2716 H   0  0  0  0  0  0  0  0  0  0  0  0
    0.1693   -0.2866    0.0854 C   0  0  1  0  0  0  0  0  0  0  0  0
    0.9043   -0.8713   -0.4705 H   0  0  0  0  0  0  0  0  0  0  0  0
    0.0106    1.0816   -0.6124 C   0  0  0  0  0  0  0  0  0  0  0  0
    0.2179    0.9581   -1.6768 H   0  0  0  0  0  0  0  0  0  0  0  0
   -1.0261    1.4102   -0.5110 H   0  0  0  0  0  0  0  0  0  0  0  0
    0.9446    2.1803   -0.0816 C   0  0  0  0  0  0  0  0  0  0  0  0
    1.0741    2.3089    1.1588 O   0  5  0  0  0  0  0  0  0  0  0  0
    1.5118    2.9017   -0.9302 O   0  0  0  0  0  0  0  0  0  0  0  0
    0.6664   -0.1450    1.5428 C   0  0  0  0  0  0  0  0  0  0  0  0
    1.8485   -0.3724    1.8265 O   0  0  0  0  0  0  0  0  0  0  0  0
   -0.2161    0.2434    2.4686 N   0  0  0  0  0  0  0  0  0  0  0  0
   -1.1850    0.3219    2.1537 H   0  0  0  0  0  0  0  0  0  0  0  0
    0.0735    0.4128    3.8885 C   0  0  0  0  0  0  0  0  0  0  0  0
    1.0159    0.9483    4.0105 H   0  0  0  0  0  0  0  0  0  0  0  0
   -0.7315    0.9748    4.3613 H   0  0  0  0  0  0  0  0  0  0  0  0
    0.1564   -0.5677    4.3577 H   0  0  0  0  0  0  0  0  0  0  0  0
  5  6  2  0  0  0  0
  5  7  1  0  0  0  0
  2  3  1  0  0  0  0
  2  4  1  0  0  0  0
  2  5  1  0  0  0  0
  1  2  1  0  0  0  0
 17 18  2  0  0  0  0
 17 19  1  0  0  0  0
 14 15  1  0  0  0  0
 14 16  2  0  0  0  0
 11 12  1  0  0  0  0
 11 13  1  0  0  0  0
 11 14  1  0  0  0  0
  9 10  1  0  0  0  0
  9 11  1  0  0  0  0
  9 17  1  0  0  0  0
  7  8  1  0  0  0  0
  7  9  1  0  0  0  0
 21 22  1  0  0  0  0
 21 23  1  0  0  0  0
 21 24  1  0  0  0  0
 19 20  1  0  0  0  0
 19 21  1  0  0  0  0
M  CHG  1  15  -1
M  END
$$$$
default_name
  -OEChem-02102213163D

 24 23  0     1  0  0  0  0  0999 V2000
   -2.8347   -3.7166    0.8034 H   0  0  0  0  0  0  0  0  0  0  0  0
   -2.7728   -2.7096    0.3954 C   0  0  0  0  0  0  0  0  0  0  0  0
   -3.4267   -2.0426    0.9524 H   0  0  0  0  0  0  0  0  0  0  0  0
   -3.0538   -2.7186   -0.6556 H   0  0  0  0  0  0  0  0  0  0  0  0
   -1.3498   -2.2206    0.5184 C   0  0  0  0  0  0  0  0  0  0  0  0
   -0.4997   -2.9426    1.0194 O   0  0  0  0  0  0  0  0  0  0  0  0
   -1.1198   -0.9926    0.0674 N   0  0  0  0  0  0  0  0  0  0  0  0
   -1.8978   -0.4486   -0.2716 H   0  0  0  0  0  0  0  0  0  0  0  0
    0.1693   -0.2866    0.0854 C   0  0  1  0  0  0  0  0  0  0  0  0
    0.9043   -0.8713   -0.4705 H   0  0  0  0  0  0  0  0  0  0  0  0
    0.0106    1.0816   -0.6124 C   0  0  0  0  0  0  0  0  0  0  0  0
    0.2179    0.9581   -1.6768 H   0  0  0  0  0  0  0  0  0  0  0  0
   -1.0261    1.4102   -0.5110 H   0  0  0  0  0  0  0  0  0  0  0  0
    0.9446    2.1803   -0.0816 C   0  0  0  0  0  0  0  0  0  0  0  0
    1.3001    2.1355    1.1198 O   0  5  0  0  0  0  0  0  0  0  0  0
    1.2827    3.0751   -0.8860 O   0  0  0  0  0  0  0  0  0  0  0  0
    0.6664   -0.1450    1.5428 C   0  0  0  0  0  0  0  0  0  0  0  0
    1.8485   -0.3724    1.8265 O   0  0  0  0  0  0  0  0  0  0  0  0
   -0.2161    0.2434    2.4686 N   0  0  0  0  0  0  0  0  0  0  0  0
   -1.1850    0.3219    2.1537 H   0  0  0  0  0  0  0  0  0  0  0  0
    0.0735    0.4128    3.8885 C   0  0  0  0  0  0  0  0  0  0  0  0
    1.0159    0.9483    4.0105 H   0  0  0  0  0  0  0  0  0  0  0  0
   -0.7315    0.9748    4.3613 H   0  0  0  0  0  0  0  0  0  0  0  0
    0.1564   -0.5677    4.3577 H   0  0  0  0  0  0  0  0  0  0  0  0
  5  6  2  0  0  0  0
  5  7  1  0  0  0  0
  2  3  1  0  0  0  0
  2  4  1  0  0  0  0
  2  5  1  0  0  0  0
  1  2  1  0  0  0  0
 17 18  2  0  0  0  0
 17 19  1  0  0  0  0
 14 15  1  0  0  0  0
 14 16  2  0  0  0  0
 11 12  1  0  0  0  0
 11 13  1  0  0  0  0
 11 14  1  0  0  0  0
  9 10  1  0  0  0  0
  9 11  1  0  0  0  0
  9 17  1  0  0  0  0
  7  8  1  0  0  0  0
  7  9  1  0  0  0  0
 21 22  1  0  0  0  0
 21 23  1  0  0  0  0
 21 24  1  0  0  0  0
 19 20  1  0  0  0  0
 19 21  1  0  0  0  0
M  CHG  1  15  -1
M  END
$$$$
default_name
  -OEChem-02102213163D

 24 23  0     1  0  0  0  0  0999 V2000
   -2.8347   -3.7166    0.8034 H   0  0  0  0  0  0  0  0  0  0  0  0
   -2.7728   -2.7096    0.3954 C   0  0  0  0  0  0  0  0  0  0  0  0
   -3.4267   -2.0426    0.9524 H   0  0  0  0  0  0  0  0  0  0  0  0
   -3.0538   -2.7186   -0.6556 H   0  0  0  0  0  0  0  0  0  0  0  0
   -1.3498   -2.2206    0.5184 C   0  0  0  0  0  0  0  0  0  0  0  0
   -0.4997   -2.9426    1.0194 O   0  0  0  0  0  0  0  0  0  0  0  0
   -1.1198   -0.9926    0.0674 N   0  0  0  0  0  0  0  0  0  0  0  0
   -1.8978   -0.4486   -0.2716 H   0  0  0  0  0  0  0  0  0  0  0  0
    0.1693   -0.2866    0.0854 C   0  0  1  0  0  0  0  0  0  0  0  0
    0.9043   -0.8713   -0.4705 H   0  0  0  0  0  0  0  0  0  0  0  0
    0.0106    1.0816   -0.6124 C   0  0  0  0  0  0  0  0  0  0  0  0
    0.2179    0.9581   -1.6768 H   0  0  0  0  0  0  0  0  0  0  0  0
   -1.0261    1.4102   -0.5110 H   0  0  0  0  0  0  0  0  0  0  0  0
    0.9446    2.1803   -0.0816 C   0  0  0  0  0  0  0  0  0  0  0  0
    1.5267    1.9944    1.0131 O   0  5  0  0  0  0  0  0  0  0  0  0
    1.0540    3.2153   -0.7737 O   0  0  0  0  0  0  0  0  0  0  0  0
    0.6664   -0.1450    1.5428 C   0  0  0  0  0  0  0  0  0  0  0  0
    1.8485   -0.3724    1.8265 O   0  0  0  0  0  0  0  0  0  0  0  0
   -0.2161    0.2434    2.4686 N   0  0  0  0  0  0  0  0  0  0  0  0
   -1.1850    0.3219    2.1537 H   0  0  0  0  0  0  0  0  0  0  0  0
    0.0735    0.4128    3.8885 C   0  0  0  0  0  0  0  0  0  0  0  0
    1.0159    0.9483    4.0105 H   0  0  0  0  0  0  0  0  0  0  0  0
   -0.7315    0.9748    4.3613 H   0  0  0  0  0  0  0  0  0  0  0  0
    0.1564   -0.5677    4.3577 H   0  0  0  0  0  0  0  0  0  0  0  0
  5  6  2  0  0  0  0
  5  7  1  0  0  0  0
  2  3  1  0  0  0  0
  2  4  1  0  0  0  0
  2  5  1  0  0  0  0
  1  2  1  0  0  0  0
 17 18  2  0  0  0  0
 17 19  1  0  0  0  0
 14 15  1  0  0  0  0
 14 16  2  0  0  0  0
 11 12  1  0  0  0  0
 11 13  1  0  0  0  0
 11 14  1  0  0  0  0
  9 10  1  0  0  0  0
  9 11  1  0  0  0  0
  9 17  1  0  0  0  0
  7  8  1  0  0  0  0
  7  9  1  0  0  0  0
 21 22  1  0  0  0  0
 21 23  1  0  0  0  0
 21 24  1  0  0  0  0
 19 20  1  0  0  0  0
 19 21  1  0  0  0  0
M  CHG  1  15  -1
M  END
$$$$
default_name
  -OEChem-02102213163D

 24 23  0     1  0  0  0  0  0999 V2000
   -2.8347   -3.7166    0.8034 H   0  0  0  0  0  0  0  0  0  0  0  0
   -2.7728   -2.7096    0.3954 C   0  0  0  0  0  0  0  0  0  0  0  0
   -3.4267   -2.0426    0.9524 H   0  0  0  0  0  0  0  0  0  0  0  0
   -3.0538   -2.7186   -0.6556 H   0  0  0  0  0  0  0  0  0  0  0  0
   -1.3498   -2.2206    0.5184 C   0  0  0  0  0  0  0  0  0  0  0  0
   -0.4997   -2.9426    1.0194 O   0  0  0  0  0  0  0  0  0  0  0  0
   -1.1198   -0.9926    0.0674 N   0  0  0  0  0  0  0  0  0  0  0  0
   -1.8978   -0.4486   -0.2716 H   0  0  0  0  0  0  0  0  0  0  0  0
    0.1693   -0.2866    0.0854 C   0  0  1  0  0  0  0  0  0  0  0  0
    0.9043   -0.8713   -0.4705 H   0  0  0  0  0  0  0  0  0  0  0  0
    0.0106    1.0816   -0.6124 C   0  0  0  0  0  0  0  0  0  0  0  0
    0.2179    0.9581   -1.6768 H   0  0  0  0  0  0  0  0  0  0  0  0
   -1.0261    1.4102   -0.5110 H   0  0  0  0  0  0  0  0  0  0  0  0
    0.9446    2.1803   -0.0816 C   0  0  0  0  0  0  0  0  0  0  0  0
    1.7384    1.8952    0.8459 O   0  5  0  0  0  0  0  0  0  0  0  0
    0.8414    3.3125   -0.6009 O   0  0  0  0  0  0  0  0  0  0  0  0
    0.6664   -0.1450    1.5428 C   0  0  0  0  0  0  0  0  0  0  0  0
    1.8485   -0.3724    1.8265 O   0  0  0  0  0  0  0  0  0  0  0  0
   -0.2161    0.2434    2.4686 N   0  0  0  0  0  0  0  0  0  0  0  0
   -1.1850    0.3219    2.1537 H   0  0  0  0  0  0  0  0  0  0  0  0
    0.0735    0.4128    3.8885 C   0  0  0  0  0  0  0  0  0  0  0  0
    1.0159    0.9483    4.0105 H   0  0  0  0  0  0  0  0  0  0  0  0
   -0.7315    0.9748    4.3613 H   0  0  0  0  0  0  0  0  0  0  0  0
    0.1564   -0.5677    4.3577 H   0  0  0  0  0  0  0  0  0  0  0  0
  5  6  2  0  0  0  0
  5  7  1  0  0  0  0
  2  3  1  0  0  0  0
  2  4  1  0  0  0  0
  2  5  1  0  0  0  0
  1  2  1  0  0  0  0
 17 18  2  0  0  0  0
 17 19  1  0  0  0  0
 14 15  1  0  0  0  0
 14 16  2  0  0  0  0
 11 12  1  0  0  0  0
 11 13  1  0  0  0  0
 11 14  1  0  0  0  0
  9 10  1  0  0  0  0
  9 11  1  0  0  0  0
  9 17  1  0  0  0  0
  7  8  1  0  0  0  0
  7  9  1  0  0  0  0
 21 22  1  0  0  0  0
 21 23  1  0  0  0  0
 21 24  1  0  0  0  0
 19 20  1  0  0  0  0
 19 21  1  0  0  0  0
M  CHG  1  15  -1
M  END
$$$$
default_name
  -OEChem-02102213163D

 24 23  0     1  0  0  0  0  0999 V2000
   -2.8347   -3.7166    0.8034 H   0  0  0  0  0  0  0  0  0  0  0  0
   -2.7728   -2.7096    0.3954 C   0  0  0  0  0  0  0  0  0  0  0  0
   -3.4267   -2.0426    0.9524 H   0  0  0  0  0  0  0  0  0  0  0  0
   -3.0538   -2.7186   -0.6556 H   0  0  0  0  0  0  0  0  0  0  0  0
   -1.3498   -2.2206    0.5184 C   0  0  0  0  0  0  0  0  0  0  0  0
   -0.4997   -2.9426    1.0194 O   0  0  0  0  0  0  0  0  0  0  0  0
   -1.1198   -0.9926    0.0674 N   0  0  0  0  0  0  0  0  0  0  0  0
   -1.8978   -0.4486   -0.2716 H   0  0  0  0  0  0  0  0  0  0  0  0
    0.1693   -0.2866    0.0854 C   0  0  1  0  0  0  0  0  0  0  0  0
    0.9043   -0.8713   -0.4705 H   0  0  0  0  0  0  0  0  0  0  0  0
    0.0106    1.0816   -0.6124 C   0  0  0  0  0  0  0  0  0  0  0  0
    0.2179    0.9581   -1.6768 H   0  0  0  0  0  0  0  0  0  0  0  0
   -1.0261    1.4102   -0.5110 H   0  0  0  0  0  0  0  0  0  0  0  0
    0.9446    2.1803   -0.0816 C   0  0  0  0  0  0  0  0  0  0  0  0
    1.9209    1.8446    0.6296 O   0  5  0  0  0  0  0  0  0  0  0  0
    0.6594    3.3602   -0.3793 O   0  0  0  0  0  0  0  0  0  0  0  0
    0.6664   -0.1450    1.5428 C   0  0  0  0  0  0  0  0  0  0  0  0
    1.8485   -0.3724    1.8265 O   0  0  0  0  0  0  0  0  0  0  0  0
   -0.2161    0.2434    2.4686 N   0  0  0  0  0  0  0  0  0  0  0  0
   -1.1850    0.3219    2.1537 H   0  0  0  0  0  0  0  0  0  0  0  0
    0.0735    0.4128    3.8885 C   0  0  0  0  0  0  0  0  0  0  0  0
    1.0159    0.9483    4.0105 H   0  0  0  0  0  0  0  0  0  0  0  0
   -0.7315    0.9748    4.3613 H   0  0  0  0  0  0  0  0  0  0  0  0
    0.1564   -0.5677    4.3577 H   0  0  0  0  0  0  0  0  0  0  0  0
  5  6  2  0  0  0  0
  5  7  1  0  0  0  0
  2  3  1  0  0  0  0
  2  4  1  0  0  0  0
  2  5  1  0  0  0  0
  1  2  1  0  0  0  0
 17 18  2  0  0  0  0
 17 19  1  0  0  0  0
 14 15  1  0  0  0  0
 14 16  2  0  0  0  0
 11 12  1  0  0  0  0
 11 13  1  0  0  0  0
 11 14  1  0  0  0  0
  9 10  1  0  0  0  0
  9 11  1  0  0  0  0
  9 17  1  0  0  0  0
  7  8  1  0  0  0  0
  7  9  1  0  0  0  0
 21 22  1  0  0  0  0
 21 23  1  0  0  0  0
 21 24  1  0  0  0  0
 19 20  1  0  0  0  0
 19 21  1  0  0  0  0
M  CHG  1  15  -1
M  END
$$$$
default_name
  -OEChem-02102213163D

 24 23  0     1  0  0  0  0  0999 V2000
   -2.8347   -3.7166    0.8034 H   0  0  0  0  0  0  0  0  0  0  0  0
   -2.7728   -2.7096    0.3954 C   0  0  0  0  0  0  0  0  0  0  0  0
   -3.4267   -2.0426    0.9524 H   0  0  0  0  0  0  0  0  0  0  0  0
   -3.0538   -2.7186   -0.6556 H   0  0  0  0  0  0  0  0  0  0  0  0
   -1.3498   -2.2206    0.5184 C   0  0  0  0  0  0  0  0  0  0  0  0
   -0.4997   -2.9426    1.0194 O   0  0  0  0  0  0  0  0  0  0  0  0
   -1.1198   -0.9926    0.0674 N   0  0  0  0  0  0  0  0  0  0  0  0
   -1.8978   -0.4486   -0.2716 H   0  0  0  0  0  0  0  0  0  0  0  0
    0.1693   -0.2866    0.0854 C   0  0  1  0  0  0  0  0  0  0  0  0
    0.9043   -0.8713   -0.4705 H   0  0  0  0  0  0  0  0  0  0  0  0
    0.0106    1.0816   -0.6124 C   0  0  0  0  0  0  0  0  0  0  0  0
    0.2179    0.9581   -1.6768 H   0  0  0  0  0  0  0  0  0  0  0  0
   -1.0261    1.4102   -0.5110 H   0  0  0  0  0  0  0  0  0  0  0  0
    0.9446    2.1803   -0.0816 C   0  0  0  0  0  0  0  0  0  0  0  0
    2.0617    1.8460    0.3789 O   0  5  0  0  0  0  0  0  0  0  0  0
    0.5202    3.3552   -0.1241 O   0  0  0  0  0  0  0  0  0  0  0  0
    0.6664   -0.1450    1.5428 C   0  0  0  0  0  0  0  0  0  0  0  0
    1.8485   -0.3724    1.8265 O   0  0  0  0  0  0  0  0  0  0  0  0
   -0.2161    0.2434    2.4686 N   0  0  0  0  0  0  0  0  0  0  0  0
   -1.1850    0.3219    2.1537 H   0  0  0  0  0  0  0  0  0  0  0  0
    0.0735    0.4128    3.8885 C   0  0  0  0  0  0  0  0  0  0  0  0
    1.0159    0.9483    4.0105 H   0  0  0  0  0  0  0  0  0  0  0  0
   -0.7315    0.9748    4.3613 H   0  0  0  0  0  0  0  0  0  0  0  0
    0.1564   -0.5677    4.3577 H   0  0  0  0  0  0  0  0  0  0  0  0
  5  6  2  0  0  0  0
  5  7  1  0  0  0  0
  2  3  1  0  0  0  0
  2  4  1  0  0  0  0
  2  5  1  0  0  0  0
  1  2  1  0  0  0  0
 17 18  2  0  0  0  0
 17 19  1  0  0  0  0
 14 15  1  0  0  0  0
 14 16  2  0  0  0  0
 11 12  1  0  0  0  0
 11 13  1  0  0  0  0
 11 14  1  0  0  0  0
  9 10  1  0  0  0  0
  9 11  1  0  0  0  0
  9 17  1  0  0  0  0
  7  8  1  0  0  0  0
  7  9  1  0  0  0  0
 21 22  1  0  0  0  0
 21 23  1  0  0  0  0
 21 24  1  0  0  0  0
 19 20  1  0  0  0  0
 19 21  1  0  0  0  0
M  CHG  1  15  -1
M  END
$$$$
default_name
  -OEChem-02102213163D

 24 23  0     1  0  0  0  0  0999 V2000
   -2.8347   -3.7166    0.8034 H   0  0  0  0  0  0  0  0  0  0  0  0
   -2.7728   -2.7096    0.3954 C   0  0  0  0  0  0  0  0  0  0  0  0
   -3.4267   -2.0426    0.9524 H   0  0  0  0  0  0  0  0  0  0  0  0
   -3.0538   -2.7186   -0.6556 H   0  0  0  0  0  0  0  0  0  0  0  0
   -1.3498   -2.2206    0.5184 C   0  0  0  0  0  0  0  0  0  0  0  0
   -0.4997   -2.9426    1.0194 O   0  0  0  0  0  0  0  0  0  0  0  0
   -1.1198   -0.9926    0.0674 N   0  0  0  0  0  0  0  0  0  0  0  0
   -1.8978   -0.4486   -0.2716 H   0  0  0  0  0  0  0  0  0  0  0  0
    0.1693   -0.2866    0.0854 C   0  0  1  0  0  0  0  0  0  0  0  0
    0.9043   -0.8713   -0.4705 H   0  0  0  0  0  0  0  0  0  0  0  0
    0.0106    1.0816   -0.6124 C   0  0  0  0  0  0  0  0  0  0  0  0
    0.2179    0.9581   -1.6768 H   0  0  0  0  0  0  0  0  0  0  0  0
   -1.0261    1.4102   -0.5110 H   0  0  0  0  0  0  0  0  0  0  0  0
    0.9446    2.1803   -0.0816 C   0  0  0  0  0  0  0  0  0  0  0  0
    2.1511    1.8994    0.1110 O   0  5  0  0  0  0  0  0  0  0  0  0
    0.4335    3.2977    0.1474 O   0  0  0  0  0  0  0  0  0  0  0  0
    0.6664   -0.1450    1.5428 C   0  0  0  0  0  0  0  0  0  0  0  0
    1.8485   -0.3724    1.8265 O   0  0  0  0  0  0  0  0  0  0  0  0
   -0.2161    0.2434    2.4686 N   0  0  0  0  0  0  0  0  0  0  0  0
   -1.1850    0.3219    2.1537 H   0  0  0  0  0  0  0  0  0  0  0  0
    0.0735    0.4128    3.8885 C   0  0  0  0  0  0  0  0  0  0  0  0
    1.0159    0.9483    4.0105 H   0  0  0  0  0  0  0  0  0  0  0  0
   -0.7315    0.9748    4.3613 H   0  0  0  0  0  0  0  0  0  0  0  0
    0.1564   -0.5677    4.3577 H   0  0  0  0  0  0  0  0  0  0  0  0
  5  6  2  0  0  0  0
  5  7  1  0  0  0  0
  2  3  1  0  0  0  0
  2  4  1  0  0  0  0
  2  5  1  0  0  0  0
  1  2  1  0  0  0  0
 17 18  2  0  0  0  0
 17 19  1  0  0  0  0
 14 15  1  0  0  0  0
 14 16  2  0  0  0  0
 11 12  1  0  0  0  0
 11 13  1  0  0  0  0
 11 14  1  0  0  0  0
  9 10  1  0  0  0  0
  9 11  1  0  0  0  0
  9 17  1  0  0  0  0
  7  8  1  0  0  0  0
  7  9  1  0  0  0  0
 21 22  1  0  0  0  0
 21 23  1  0  0  0  0
 21 24  1  0  0  0  0
 19 20  1  0  0  0  0
 19 21  1  0  0  0  0
M  CHG  1  15  -1
M  END
$$$$
default_name
  -OEChem-02102213163D

 24 23  0     1  0  0  0  0  0999 V2000
   -2.8347   -3.7166    0.8034 H   0  0  0  0  0  0  0  0  0  0  0  0
   -2.7728   -2.7096    0.3954 C   0  0  0  0  0  0  0  0  0  0  0  0
   -3.4267   -2.0426    0.9524 H   0  0  0  0  0  0  0  0  0  0  0  0
   -3.0538   -2.7186   -0.6556 H   0  0  0  0  0  0  0  0  0  0  0  0
   -1.3498   -2.2206    0.5184 C   0  0  0  0  0  0  0  0  0  0  0  0
   -0.4997   -2.9426    1.0194 O   0  0  0  0  0  0  0  0  0  0  0  0
   -1.1198   -0.9926    0.0674 N   0  0  0  0  0  0  0  0  0  0  0  0
   -1.8978   -0.4486   -0.2716 H   0  0  0  0  0  0  0  0  0  0  0  0
    0.1693   -0.2866    0.0854 C   0  0  1  0  0  0  0  0  0  0  0  0
    0.9043   -0.8713   -0.4705 H   0  0  0  0  0  0  0  0  0  0  0  0
    0.0106    1.0816   -0.6124 C   0  0  0  0  0  0  0  0  0  0  0  0
    0.2179    0.9581   -1.6768 H   0  0  0  0  0  0  0  0  0  0  0  0
   -1.0261    1.4102   -0.5110 H   0  0  0  0  0  0  0  0  0  0  0  0
    0.9446    2.1803   -0.0816 C   0  0  0  0  0  0  0  0  0  0  0  0
    2.1832    2.0012   -0.1560 O   0  5  0  0  0  0  0  0  0  0  0  0
    0.4052    3.1917    0.4166 O   0  0  0  0  0  0  0  0  0  0  0  0
    0.6664   -0.1450    1.5428 C   0  0  0  0  0  0  0  0  0  0  0  0
    1.8485   -0.3724    1.8265 O   0  0  0  0  0  0  0  0  0  0  0  0
   -0.2161    0.2434    2.4686 N   0  0  0  0  0  0  0  0  0  0  0  0
   -1.1850    0.3219    2.1537 H   0  0  0  0  0  0  0  0  0  0  0  0
    0.0735    0.4128    3.8885 C   0  0  0  0  0  0  0  0  0  0  0  0
    1.0159    0.9483    4.0105 H   0  0  0  0  0  0  0  0  0  0  0  0
   -0.7315    0.9748    4.3613 H   0  0  0  0  0  0  0  0  0  0  0  0
    0.1564   -0.5677    4.3577 H   0  0  0  0  0  0  0  0  0  0  0  0
  5  6  2  0  0  0  0
  5  7  1  0  0  0  0
  2  3  1  0  0  0  0
  2  4  1  0  0  0  0
  2  5  1  0  0  0  0
  1  2  1  0  0  0  0
 17 18  2  0  0  0  0
 17 19  1  0  0  0  0
 14 15  1  0  0  0  0
 14 16  2  0  0  0  0
 11 12  1  0  0  0  0
 11 13  1  0  0  0  0
 11 14  1  0  0  0  0
  9 10  1  0  0  0  0
  9 11  1  0  0  0  0
  9 17  1  0  0  0  0
  7  8  1  0  0  0  0
  7  9  1  0  0  0  0
 21 22  1  0  0  0  0
 21 23  1  0  0  0  0
 21 24  1  0  0  0  0
 19 20  1  0  0  0  0
 19 21  1  0  0  0  0
M  CHG  1  15  -1
M  END
$$$$
default_name
  -OEChem-02102213163D

 24 23  0     1  0  0  0  0  0999 V2000
   -2.8347   -3.7166    0.8034 H   0  0  0  0  0  0  0  0  0  0  0  0
   -2.7728   -2.7096    0.3954 C   0  0  0  0  0  0  0  0  0  0  0  0
   -3.4267   -2.0426    0.9524 H   0  0  0  0  0  0  0  0  0  0  0  0
   -3.0538   -2.7186   -0.6556 H   0  0  0  0  0  0  0  0  0  0  0  0
   -1.3498   -2.2206    0.5184 C   0  0  0  0  0  0  0  0  0  0  0  0
   -0.4997   -2.9426    1.0194 O   0  0  0  0  0  0  0  0  0  0  0  0
   -1.1198   -0.9926    0.0674 N   0  0  0  0  0  0  0  0  0  0  0  0
   -1.8978   -0.4486   -0.2716 H   0  0  0  0  0  0  0  0  0  0  0  0
    0.1693   -0.2866    0.0854 C   0  0  1  0  0  0  0  0  0  0  0  0
    0.9043   -0.8713   -0.4705 H   0  0  0  0  0  0  0  0  0  0  0  0
    0.0106    1.0816   -0.6124 C   0  0  0  0  0  0  0  0  0  0  0  0
    0.2179    0.9581   -1.6768 H   0  0  0  0  0  0  0  0  0  0  0  0
   -1.0261    1.4102   -0.5110 H   0  0  0  0  0  0  0  0  0  0  0  0
    0.9446    2.1803   -0.0816 C   0  0  0  0  0  0  0  0  0  0  0  0
    2.1556    2.1443   -0.4037 O   0  5  0  0  0  0  0  0  0  0  0  0
    0.4370    3.0445    0.6653 O   0  0  0  0  0  0  0  0  0  0  0  0
    0.6664   -0.1450    1.5428 C   0  0  0  0  0  0  0  0  0  0  0  0
    1.8485   -0.3724    1.8265 O   0  0  0  0  0  0  0  0  0  0  0  0
   -0.2161    0.2434    2.4686 N   0  0  0  0  0  0  0  0  0  0  0  0
   -1.1850    0.3219    2.1537 H   0  0  0  0  0  0  0  0  0  0  0  0
    0.0735    0.4128    3.8885 C   0  0  0  0  0  0  0  0  0  0  0  0
    1.0159    0.9483    4.0105 H   0  0  0  0  0  0  0  0  0  0  0  0
   -0.7315    0.9748    4.3613 H   0  0  0  0  0  0  0  0  0  0  0  0
    0.1564   -0.5677    4.3577 H   0  0  0  0  0  0  0  0  0  0  0  0
  5  6  2  0  0  0  0
  5  7  1  0  0  0  0
  2  3  1  0  0  0  0
  2  4  1  0  0  0  0
  2  5  1  0  0  0  0
  1  2  1  0  0  0  0
 17 18  2  0  0  0  0
 17 19  1  0  0  0  0
 14 15  1  0  0  0  0
 14 16  2  0  0  0  0
 11 12  1  0  0  0  0
 11 13  1  0  0  0  0
 11 14  1  0  0  0  0
  9 10  1  0  0  0  0
  9 11  1  0  0  0  0
  9 17  1  0  0  0  0
  7  8  1  0  0  0  0
  7  9  1  0  0  0  0
 21 22  1  0  0  0  0
 21 23  1  0  0  0  0
 21 24  1  0  0  0  0
 19 20  1  0  0  0  0
 19 21  1  0  0  0  0
M  CHG  1  15  -1
M  END
$$$$
default_name
  -OEChem-02102213163D

 24 23  0     1  0  0  0  0  0999 V2000
   -2.8347   -3.7166    0.8034 H   0  0  0  0  0  0  0  0  0  0  0  0
   -2.7728   -2.7096    0.3954 C   0  0  0  0  0  0  0  0  0  0  0  0
   -3.4267   -2.0426    0.9524 H   0  0  0  0  0  0  0  0  0  0  0  0
   -3.0538   -2.7186   -0.6556 H   0  0  0  0  0  0  0  0  0  0  0  0
   -1.3498   -2.2206    0.5184 C   0  0  0  0  0  0  0  0  0  0  0  0
   -0.4997   -2.9426    1.0194 O   0  0  0  0  0  0  0  0  0  0  0  0
   -1.1198   -0.9926    0.0674 N   0  0  0  0  0  0  0  0  0  0  0  0
   -1.8978   -0.4486   -0.2716 H   0  0  0  0  0  0  0  0  0  0  0  0
    0.1693   -0.2866    0.0854 C   0  0  1  0  0  0  0  0  0  0  0  0
    0.9043   -0.8713   -0.4705 H   0  0  0  0  0  0  0  0  0  0  0  0
    0.0106    1.0816   -0.6124 C   0  0  0  0  0  0  0  0  0  0  0  0
    0.2179    0.9581   -1.6768 H   0  0  0  0  0  0  0  0  0  0  0  0
   -1.0261    1.4102   -0.5110 H   0  0  0  0  0  0  0  0  0  0  0  0
    0.9446    2.1803   -0.0816 C   0  0  0  0  0  0  0  0  0  0  0  0
    2.0704    2.3191   -0.6155 O   0  5  0  0  0  0  0  0  0  0  0  0
    0.5270    2.8660    0.8764 O   0  0  0  0  0  0  0  0  0  0  0  0
    0.6664   -0.1450    1.5428 C   0  0  0  0  0  0  0  0  0  0  0  0
    1.8485   -0.3724    1.8265 O   0  0  0  0  0  0  0  0  0  0  0  0
   -0.2161    0.2434    2.4686 N   0  0  0  0  0  0  0  0  0  0  0  0
   -1.1850    0.3219    2.1537 H   0  0  0  0  0  0  0  0  0  0  0  0
    0.0735    0.4128    3.8885 C   0  0  0  0  0  0  0  0  0  0  0  0
    1.0159    0.9483    4.0105 H   0  0  0  0  0  0  0  0  0  0  0  0
   -0.7315    0.9748    4.3613 H   0  0  0  0  0  0  0  0  0  0  0  0
    0.1564   -0.5677    4.3577 H   0  0  0  0  0  0  0  0  0  0  0  0
  5  6  2  0  0  0  0
  5  7  1  0  0  0  0
  2  3  1  0  0  0  0
  2  4  1  0  0  0  0
  2  5  1  0  0  0  0
  1  2  1  0  0  0  0
 17 18  2  0  0  0  0
 17 19  1  0  0  0  0
 14 15  1  0  0  0  0
 14 16  2  0  0  0  0
 11 12  1  0  0  0  0
 11 13  1  0  0  0  0
 11 14  1  0  0  0  0
  9 10  1  0  0  0  0
  9 11  1  0  0  0  0
  9 17  1  0  0  0  0
  7  8  1  0  0  0  0
  7  9  1  0  0  0  0
 21 22  1  0  0  0  0
 21 23  1  0  0  0  0
 21 24  1  0  0  0  0
 19 20  1  0  0  0  0
 19 21  1  0  0  0  0
M  CHG  1  15  -1
M  END
$$$$
default_name
  -OEChem-02102213163D

 24 23  0     1  0  0  0  0  0999 V2000
   -2.8347   -3.7166    0.8034 H   0  0  0  0  0  0  0  0  0  0  0  0
   -2.7728   -2.7096    0.3954 C   0  0  0  0  0  0  0  0  0  0  0  0
   -3.4267   -2.0426    0.9524 H   0  0  0  0  0  0  0  0  0  0  0  0
   -3.0538   -2.7186   -0.6556 H   0  0  0  0  0  0  0  0  0  0  0  0
   -1.3498   -2.2206    0.5184 C   0  0  0  0  0  0  0  0  0  0  0  0
   -0.4997   -2.9426    1.0194 O   0  0  0  0  0  0  0  0  0  0  0  0
   -1.1198   -0.9926    0.0674 N   0  0  0  0  0  0  0  0  0  0  0  0
   -1.8978   -0.4486   -0.2716 H   0  0  0  0  0  0  0  0  0  0  0  0
    0.1693   -0.2866    0.0854 C   0  0  1  0  0  0  0  0  0  0  0  0
    0.9043   -0.8713   -0.4705 H   0  0  0  0  0  0  0  0  0  0  0  0
    0.0106    1.0816   -0.6124 C   0  0  0  0  0  0  0  0  0  0  0  0
    0.2179    0.9581   -1.6768 H   0  0  0  0  0  0  0  0  0  0  0  0
   -1.0261    1.4102   -0.5110 H   0  0  0  0  0  0  0  0  0  0  0  0
    0.9446    2.1803   -0.0816 C   0  0  0  0  0  0  0  0  0  0  0  0
    1.9332    2.5136   -0.7767 O   0  5  0  0  0  0  0  0  0  0  0  0
    0.6690    2.6684    1.0356 O   0  0  0  0  0  0  0  0  0  0  0  0
    0.6664   -0.1450    1.5428 C   0  0  0  0  0  0  0  0  0  0  0  0
    1.8485   -0.3724    1.8265 O   0  0  0  0  0  0  0  0  0  0  0  0
   -0.2161    0.2434    2.4686 N   0  0  0  0  0  0  0  0  0  0  0  0
   -1.1850    0.3219    2.1537 H   0  0  0  0  0  0  0  0  0  0  0  0
    0.0735    0.4128    3.8885 C   0  0  0  0  0  0  0  0  0  0  0  0
    1.0159    0.9483    4.0105 H   0  0  0  0  0  0  0  0  0  0  0  0
   -0.7315    0.9748    4.3613 H   0  0  0  0  0  0  0  0  0  0  0  0
    0.1564   -0.5677    4.3577 H   0  0  0  0  0  0  0  0  0  0  0  0
  5  6  2  0  0  0  0
  5  7  1  0  0  0  0
  2  3  1  0  0  0  0
  2  4  1  0  0  0  0
  2  5  1  0  0  0  0
  1  2  1  0  0  0  0
 17 18  2  0  0  0  0
 17 19  1  0  0  0  0
 14 15  1  0  0  0  0
 14 16  2  0  0  0  0
 11 12  1  0  0  0  0
 11 13  1  0  0  0  0
 11 14  1  0  0  0  0
  9 10  1  0  0  0  0
  9 11  1  0  0  0  0
  9 17  1  0  0  0  0
  7  8  1  0  0  0  0
  7  9  1  0  0  0  0
 21 22  1  0  0  0  0
 21 23  1  0  0  0  0
 21 24  1  0  0  0  0
 19 20  1  0  0  0  0
 19 21  1  0  0  0  0
M  CHG  1  15  -1
M  END
$$$$
default_name
  -OEChem-02102213163D

 24 23  0     1  0  0  0  0  0999 V2000
   -2.8347   -3.7166    0.8034 H   0  0  0  0  0  0  0  0  0  0  0  0
   -2.7728   -2.7096    0.3954 C   0  0  0  0  0  0  0  0  0  0  0  0
   -3.4267   -2.0426    0.9524 H   0  0  0  0  0  0  0  0  0  0  0  0
   -3.0538   -2.7186   -0.6556 H   0  0  0  0  0  0  0  0  0  0  0  0
   -1.3498   -2.2206    0.5184 C   0  0  0  0  0  0  0  0  0  0  0  0
   -0.4997   -2.9426    1.0194 O   0  0  0  0  0  0  0  0  0  0  0  0
   -1.1198   -0.9926    0.0674 N   0  0  0  0  0  0  0  0  0  0  0  0
   -1.8978   -0.4486   -0.2716 H   0  0  0  0  0  0  0  0  0  0  0  0
    0.1693   -0.2866    0.0854 C   0  0  1  0  0  0  0  0  0  0  0  0
    0.9043   -0.8713   -0.4705 H   0  0  0  0  0  0  0  0  0  0  0  0
    0.0106    1.0816   -0.6124 C   0  0  0  0  0  0  0  0  0  0  0  0
    0.2179    0.9581   -1.6768 H   0  0  0  0  0  0  0  0  0  0  0  0
   -1.0261    1.4102   -0.5110 H   0  0  0  0  0  0  0  0  0  0  0  0
    0.9446    2.1803   -0.0816 C   0  0  0  0  0  0  0  0  0  0  0  0
    1.7535    2.7146   -0.8765 O   0  5  0  0  0  0  0  0  0  0  0  0
    0.8532    2.4652    1.1320 O   0  0  0  0  0  0  0  0  0  0  0  0
    0.6664   -0.1450    1.5428 C   0  0  0  0  0  0  0  0  0  0  0  0
    1.8485   -0.3724    1.8265 O   0  0  0  0  0  0  0  0  0  0  0  0
   -0.2161    0.2434    2.4686 N   0  0  0  0  0  0  0  0  0  0  0  0
   -1.1850    0.3219    2.1537 H   0  0  0  0  0  0  0  0  0  0  0  0
    0.0735    0.4128    3.8885 C   0  0  0  0  0  0  0  0  0  0  0  0
    1.0159    0.9483    4.0105 H   0  0  0  0  0  0  0  0  0  0  0  0
   -0.7315    0.9748    4.3613 H   0  0  0  0  0  0  0  0  0  0  0  0
    0.1564   -0.5677    4.3577 H   0  0  0  0  0  0  0  0  0  0  0  0
  5  6  2  0  0  0  0
  5  7  1  0  0  0  0
  2  3  1  0  0  0  0
  2  4  1  0  0  0  0
  2  5  1  0  0  0  0
  1  2  1  0  0  0  0
 17 18  2  0  0  0  0
 17 19  1  0  0  0  0
 14 15  1  0  0  0  0
 14 16  2  0  0  0  0
 11 12  1  0  0  0  0
 11 13  1  0  0  0  0
 11 14  1  0  0  0  0
  9 10  1  0  0  0  0
  9 11  1  0  0  0  0
  9 17  1  0  0  0  0
  7  8  1  0  0  0  0
  7  9  1  0  0  0  0
 21 22  1  0  0  0  0
 21 23  1  0  0  0  0
 21 24  1  0  0  0  0
 19 20  1  0  0  0  0
 19 21  1  0  0  0  0
M  CHG  1  15  -1
M  END
$$$$
default_name
  -OEChem-02102213163D

 24 23  0     1  0  0  0  0  0999 V2000
   -2.8347   -3.7166    0.8034 H   0  0  0  0  0  0  0  0  0  0  0  0
   -2.7728   -2.7096    0.3954 C   0  0  0  0  0  0  0  0  0  0  0  0
   -3.4267   -2.0426    0.9524 H   0  0  0  0  0  0  0  0  0  0  0  0
   -3.0538   -2.7186   -0.6556 H   0  0  0  0  0  0  0  0  0  0  0  0
   -1.3498   -2.2206    0.5184 C   0  0  0  0  0  0  0  0  0  0  0  0
   -0.4997   -2.9426    1.0194 O   0  0  0  0  0  0  0  0  0  0  0  0
   -1.1198   -0.9926    0.0674 N   0  0  0  0  0  0  0  0  0  0  0  0
   -1.8978   -0.4486   -0.2716 H   0  0  0  0  0  0  0  0  0  0  0  0
    0.1693   -0.2866    0.0854 C   0  0  1  0  0  0  0  0  0  0  0  0
    0.9043   -0.8713   -0.4705 H   0  0  0  0  0  0  0  0  0  0  0  0
    0.0106    1.0816   -0.6124 C   0  0  0  0  0  0  0  0  0  0  0  0
    0.2179    0.9581   -1.6768 H   0  0  0  0  0  0  0  0  0  0  0  0
   -1.0261    1.4102   -0.5110 H   0  0  0  0  0  0  0  0  0  0  0  0
    0.9446    2.1803   -0.0816 C   0  0  0  0  0  0  0  0  0  0  0  0
    1.5435    2.9084   -0.9080 O   0  5  0  0  0  0  0  0  0  0  0  0
    1.0671    2.2702    1.1590 O   0  0  0  0  0  0  0  0  0  0  0  0
    0.6664   -0.1450    1.5428 C   0  0  0  0  0  0  0  0  0  0  0  0
    1.8485   -0.3724    1.8265 O   0  0  0  0  0  0  0  0  0  0  0  0
   -0.2161    0.2434    2.4686 N   0  0  0  0  0  0  0  0  0  0  0  0
   -1.1850    0.3219    2.1537 H   0  0  0  0  0  0  0  0  0  0  0  0
    0.0735    0.4128    3.8885 C   0  0  0  0  0  0  0  0  0  0  0  0
    1.0159    0.9483    4.0105 H   0  0  0  0  0  0  0  0  0  0  0  0
   -0.7315    0.9748    4.3613 H   0  0  0  0  0  0  0  0  0  0  0  0
    0.1564   -0.5677    4.3577 H   0  0  0  0  0  0  0  0  0  0  0  0
  5  6  2  0  0  0  0
  5  7  1  0  0  0  0
  2  3  1  0  0  0  0
  2  4  1  0  0  0  0
  2  5  1  0  0  0  0
  1  2  1  0  0  0  0
 17 18  2  0  0  0  0
 17 19  1  0  0  0  0
 14 15  1  0  0  0  0
 14 16  2  0  0  0  0
 11 12  1  0  0  0  0
 11 13  1  0  0  0  0
 11 14  1  0  0  0  0
  9 10  1  0  0  0  0
  9 11  1  0  0  0  0
  9 17  1  0  0  0  0
  7  8  1  0  0  0  0
  7  9  1  0  0  0  0
 21 22  1  0  0  0  0
 21 23  1  0  0  0  0
 21 24  1  0  0  0  0
 19 20  1  0  0  0  0
 19 21  1  0  0  0  0
M  CHG  1  15  -1
M  END
$$$$
default_name
  -OEChem-02102213163D

 24 23  0     1  0  0  0  0  0999 V2000
   -2.8347   -3.7166    0.8034 H   0  0  0  0  0  0  0  0  0  0  0  0
   -2.7728   -2.7096    0.3954 C   0  0  0  0  0  0  0  0  0  0  0  0
   -3.4267   -2.0426    0.9524 H   0  0  0  0  0  0  0  0  0  0  0  0
   -3.0538   -2.7186   -0.6556 H   0  0  0  0  0  0  0  0  0  0  0  0
   -1.3498   -2.2206    0.5184 C   0  0  0  0  0  0  0  0  0  0  0  0
   -0.4997   -2.9426    1.0194 O   0  0  0  0  0  0  0  0  0  0  0  0
   -1.1198   -0.9926    0.0674 N   0  0  0  0  0  0  0  0  0  0  0  0
   -1.8978   -0.4486   -0.2716 H   0  0  0  0  0  0  0  0  0  0  0  0
    0.1693   -0.2866    0.0854 C   0  0  1  0  0  0  0  0  0  0  0  0
    0.9043   -0.8713   -0.4705 H   0  0  0  0  0  0  0  0  0  0  0  0
    0.0106    1.0816   -0.6124 C   0  0  0  0  0  0  0  0  0  0  0  0
    0.2179    0.9581   -1.6768 H   0  0  0  0  0  0  0  0  0  0  0  0
   -1.0261    1.4102   -0.5110 H   0  0  0  0  0  0  0  0  0  0  0  0
    0.9446    2.1803   -0.0816 C   0  0  0  0  0  0  0  0  0  0  0  0
    1.3174    3.0817   -0.8690 O   0  5  0  0  0  0  0  0  0  0  0  0
    1.2963    2.0968    1.1149 O   0  0  0  0  0  0  0  0  0  0  0  0
    0.6664   -0.1450    1.5428 C   0  0  0  0  0  0  0  0  0  0  0  0
    1.8485   -0.3724    1.8265 O   0  0  0  0  0  0  0  0  0  0  0  0
   -0.2161    0.2434    2.4686 N   0  0  0  0  0  0  0  0  0  0  0  0
   -1.1850    0.3219    2.1537 H   0  0  0  0  0  0  0  0  0  0  0  0
    0.0735    0.4128    3.8885 C   0  0  0  0  0  0  0  0  0  0  0  0
    1.0159    0.9483    4.0105 H   0  0  0  0  0  0  0  0  0  0  0  0
   -0.7315    0.9748    4.3613 H   0  0  0  0  0  0  0  0  0  0  0  0
    0.1564   -0.5677    4.3577 H   0  0  0  0  0  0  0  0  0  0  0  0
  5  6  2  0  0  0  0
  5  7  1  0  0  0  0
  2  3  1  0  0  0  0
  2  4  1  0  0  0  0
  2  5  1  0  0  0  0
  1  2  1  0  0  0  0
 17 18  2  0  0  0  0
 17 19  1  0  0  0  0
 14 15  1  0  0  0  0
 14 16  2  0  0  0  0
 11 12  1  0  0  0  0
 11 13  1  0  0  0  0
 11 14  1  0  0  0  0
  9 10  1  0  0  0  0
  9 11  1  0  0  0  0
  9 17  1  0  0  0  0
  7  8  1  0  0  0  0
  7  9  1  0  0  0  0
 21 22  1  0  0  0  0
 21 23  1  0  0  0  0
 21 24  1  0  0  0  0
 19 20  1  0  0  0  0
 19 21  1  0  0  0  0
M  CHG  1  15  -1
M  END
$$$$
default_name
  -OEChem-02102213163D

 24 23  0     1  0  0  0  0  0999 V2000
   -2.8347   -3.7166    0.8034 H   0  0  0  0  0  0  0  0  0  0  0  0
   -2.7728   -2.7096    0.3954 C   0  0  0  0  0  0  0  0  0  0  0  0
   -3.4267   -2.0426    0.9524 H   0  0  0  0  0  0  0  0  0  0  0  0
   -3.0538   -2.7186   -0.6556 H   0  0  0  0  0  0  0  0  0  0  0  0
   -1.3498   -2.2206    0.5184 C   0  0  0  0  0  0  0  0  0  0  0  0
   -0.4997   -2.9426    1.0194 O   0  0  0  0  0  0  0  0  0  0  0  0
   -1.1198   -0.9926    0.0674 N   0  0  0  0  0  0  0  0  0  0  0  0
   -1.8978   -0.4486   -0.2716 H   0  0  0  0  0  0  0  0  0  0  0  0
    0.1693   -0.2866    0.0854 C   0  0  1  0  0  0  0  0  0  0  0  0
    0.9043   -0.8713   -0.4705 H   0  0  0  0  0  0  0  0  0  0  0  0
    0.0106    1.0816   -0.6124 C   0  0  0  0  0  0  0  0  0  0  0  0
    0.2179    0.9581   -1.6768 H   0  0  0  0  0  0  0  0  0  0  0  0
   -1.0261    1.4102   -0.5110 H   0  0  0  0  0  0  0  0  0  0  0  0
    0.9446    2.1803   -0.0816 C   0  0  0  0  0  0  0  0  0  0  0  0
    1.0908    3.2228   -0.7623 O   0  5  0  0  0  0  0  0  0  0  0  0
    1.5249    1.9566    1.0026 O   0  0  0  0  0  0  0  0  0  0  0  0
    0.6664   -0.1450    1.5428 C   0  0  0  0  0  0  0  0  0  0  0  0
    1.8485   -0.3724    1.8265 O   0  0  0  0  0  0  0  0  0  0  0  0
   -0.2161    0.2434    2.4686 N   0  0  0  0  0  0  0  0  0  0  0  0
   -1.1850    0.3219    2.1537 H   0  0  0  0  0  0  0  0  0  0  0  0
    0.0735    0.4128    3.8885 C   0  0  0  0  0  0  0  0  0  0  0  0
    1.0159    0.9483    4.0105 H   0  0  0  0  0  0  0  0  0  0  0  0
   -0.7315    0.9748    4.3613 H   0  0  0  0  0  0  0  0  0  0  0  0
    0.1564   -0.5677    4.3577 H   0  0  0  0  0  0  0  0  0  0  0  0
  5  6  2  0  0  0  0
  5  7  1  0  0  0  0
  2  3  1  0  0  0  0
  2  4  1  0  0  0  0
  2  5  1  0  0  0  0
  1  2  1  0  0  0  0
 17 18  2  0  0  0  0
 17 19  1  0  0  0  0
 14 15  1  0  0  0  0
 14 16  2  0  0  0  0
 11 12  1  0  0  0  0
 11 13  1  0  0  0  0
 11 14  1  0  0  0  0
  9 10  1  0  0  0  0
  9 11  1  0  0  0  0
  9 17  1  0  0  0  0
  7  8  1  0  0  0  0
  7  9  1  0  0  0  0
 21 22  1  0  0  0  0
 21 23  1  0  0  0  0
 21 24  1  0  0  0  0
 19 20  1  0  0  0  0
 19 21  1  0  0  0  0
M  CHG  1  15  -1
M  END
$$$$
default_name
  -OEChem-02102213163D

 24 23  0     1  0  0  0  0  0999 V2000
   -2.8347   -3.7166    0.8034 H   0  0  0  0  0  0  0  0  0  0  0  0
   -2.7728   -2.7096    0.3954 C   0  0  0  0  0  0  0  0  0  0  0  0
   -3.4267   -2.0426    0.9524 H   0  0  0  0  0  0  0  0  0  0  0  0
   -3.0538   -2.7186   -0.6556 H   0  0  0  0  0  0  0  0  0  0  0  0
   -1.3498   -2.2206    0.5184 C   0  0  0  0  0  0  0  0  0  0  0  0
   -0.4997   -2.9426    1.0194 O   0  0  0  0  0  0  0  0  0  0  0  0
   -1.1198   -0.9926    0.0674 N   0  0  0  0  0  0  0  0  0  0  0  0
   -1.8978   -0.4486   -0.2716 H   0  0  0  0  0  0  0  0  0  0  0  0
    0.1693   -0.2866    0.0854 C   0  0  1  0  0  0  0  0  0  0  0  0
    0.9043   -0.8713   -0.4705 H   0  0  0  0  0  0  0  0  0  0  0  0
    0.0106    1.0816   -0.6124 C   0  0  0  0  0  0  0  0  0  0  0  0
   -0.0490    0.9203   -1.6902 H   0  0  0  0  0  0  0  0  0  0  0  0
   -0.9303    1.5336   -0.2909 H   0  0  0  0  0  0  0  0  0  0  0  0
    1.1608    2.0670   -0.3529 C   0  0  0  0  0  0  0  0  0  0  0  0
    1.1089    3.2016   -0.8836 O   0  5  0  0  0  0  0  0  0  0  0  0
    2.1009    1.6650    0.3660 O   0  0  0  0  0  0  0  0  0  0  0  0
    0.6664   -0.1450    1.5428 C   0  0  0  0  0  0  0  0  0  0  0  0
    1.8485   -0.3724    1.8265 O   0  0  0  0  0  0  0  0  0  0  0  0
   -0.2161    0.2434    2.4686 N   0  0  0  0  0  0  0  0  0  0  0  0
   -1.1850    0.3219    2.1537 H   0  0  0  0  0  0  0  0  0  0  0  0
    0.0735    0.4128    3.8885 C   0  0  0  0  0  0  0  0  0  0  0  0
    1.0159    0.9483    4.0105 H   0  0  0  0  0  0  0  0  0  0  0  0
   -0.7315    0.9748    4.3613 H   0  0  0  0  0  0  0  0  0  0  0  0
    0.1564   -0.5677    4.3577 H   0  0  0  0  0  0  0  0  0  0  0  0
  5  6  2  0  0  0  0
  5  7  1  0  0  0  0
  2  3  1  0  0  0  0
  2  4  1  0  0  0  0
  2  5  1  0  0  0  0
  1  2  1  0  0  0  0
 17 18  2  0  0  0  0
 17 19  1  0  0  0  0
 14 15  1  0  0  0  0
 14 16  2  0  0  0  0
 11 12  1  0  0  0  0
 11 13  1  0  0  0  0
 11 14  1  0  0  0  0
  9 10  1  0  0  0  0
  9 11  1  0  0  0  0
  9 17  1  0  0  0  0
  7  8  1  0  0  0  0
  7  9  1  0  0  0  0
 21 22  1  0  0  0  0
 21 23  1  0  0  0  0
 21 24  1  0  0  0  0
 19 20  1  0  0  0  0
 19 21  1  0  0  0  0
M  CHG  1  15  -1
M  END
$$$$
default_name
  -OEChem-02102213163D

 24 23  0     1  0  0  0  0  0999 V2000
   -2.8347   -3.7166    0.8034 H   0  0  0  0  0  0  0  0  0  0  0  0
   -2.7728   -2.7096    0.3954 C   0  0  0  0  0  0  0  0  0  0  0  0
   -3.4267   -2.0426    0.9524 H   0  0  0  0  0  0  0  0  0  0  0  0
   -3.0538   -2.7186   -0.6556 H   0  0  0  0  0  0  0  0  0  0  0  0
   -1.3498   -2.2206    0.5184 C   0  0  0  0  0  0  0  0  0  0  0  0
   -0.4997   -2.9426    1.0194 O   0  0  0  0  0  0  0  0  0  0  0  0
   -1.1198   -0.9926    0.0674 N   0  0  0  0  0  0  0  0  0  0  0  0
   -1.8978   -0.4486   -0.2716 H   0  0  0  0  0  0  0  0  0  0  0  0
    0.1693   -0.2866    0.0854 C   0  0  1  0  0  0  0  0  0  0  0  0
    0.9043   -0.8713   -0.4705 H   0  0  0  0  0  0  0  0  0  0  0  0
    0.0106    1.0816   -0.6124 C   0  0  0  0  0  0  0  0  0  0  0  0
   -0.0490    0.9203   -1.6902 H   0  0  0  0  0  0  0  0  0  0  0  0
   -0.9303    1.5336   -0.2909 H   0  0  0  0  0  0  0  0  0  0  0  0
    1.1608    2.0670   -0.3529 C   0  0  0  0  0  0  0  0  0  0  0  0
    0.9883    3.2766   -0.6336 O   0  5  0  0  0  0  0  0  0  0  0  0
    2.2202    1.5929    0.1109 O   0  0  0  0  0  0  0  0  0  0  0  0
    0.6664   -0.1450    1.5428 C   0  0  0  0  0  0  0  0  0  0  0  0
    1.8485   -0.3724    1.8265 O   0  0  0  0  0  0  0  0  0  0  0  0
   -0.2161    0.2434    2.4686 N   0  0  0  0  0  0  0  0  0  0  0  0
   -1.1850    0.3219    2.1537 H   0  0  0  0  0  0  0  0  0  0  0  0
    0.0735    0.4128    3.8885 C   0  0  0  0  0  0  0  0  0  0  0  0
    1.0159    0.9483    4.0105 H   0  0  0  0  0  0  0  0  0  0  0  0
   -0.7315    0.9748    4.3613 H   0  0  0  0  0  0  0  0  0  0  0  0
    0.1564   -0.5677    4.3577 H   0  0  0  0  0  0  0  0  0  0  0  0
  5  6  2  0  0  0  0
  5  7  1  0  0  0  0
  2  3  1  0  0  0  0
  2  4  1  0  0  0  0
  2  5  1  0  0  0  0
  1  2  1  0  0  0  0
 17 18  2  0  0  0  0
 17 19  1  0  0  0  0
 14 15  1  0  0  0  0
 14 16  2  0  0  0  0
 11 12  1  0  0  0  0
 11 13  1  0  0  0  0
 11 14  1  0  0  0  0
  9 10  1  0  0  0  0
  9 11  1  0  0  0  0
  9 17  1  0  0  0  0
  7  8  1  0  0  0  0
  7  9  1  0  0  0  0
 21 22  1  0  0  0  0
 21 23  1  0  0  0  0
 21 24  1  0  0  0  0
 19 20  1  0  0  0  0
 19 21  1  0  0  0  0
M  CHG  1  15  -1
M  END
$$$$
default_name
  -OEChem-02102213163D

 24 23  0     1  0  0  0  0  0999 V2000
   -2.8347   -3.7166    0.8034 H   0  0  0  0  0  0  0  0  0  0  0  0
   -2.7728   -2.7096    0.3954 C   0  0  0  0  0  0  0  0  0  0  0  0
   -3.4267   -2.0426    0.9524 H   0  0  0  0  0  0  0  0  0  0  0  0
   -3.0538   -2.7186   -0.6556 H   0  0  0  0  0  0  0  0  0  0  0  0
   -1.3498   -2.2206    0.5184 C   0  0  0  0  0  0  0  0  0  0  0  0
   -0.4997   -2.9426    1.0194 O   0  0  0  0  0  0  0  0  0  0  0  0
   -1.1198   -0.9926    0.0674 N   0  0  0  0  0  0  0  0  0  0  0  0
   -1.8978   -0.4486   -0.2716 H   0  0  0  0  0  0  0  0  0  0  0  0
    0.1693   -0.2866    0.0854 C   0  0  1  0  0  0  0  0  0  0  0  0
    0.9043   -0.8713   -0.4705 H   0  0  0  0  0  0  0  0  0  0  0  0
    0.0106    1.0816   -0.6124 C   0  0  0  0  0  0  0  0  0  0  0  0
   -0.0490    0.9203   -1.6902 H   0  0  0  0  0  0  0  0  0  0  0  0
   -0.9303    1.5336   -0.2909 H   0  0  0  0  0  0  0  0  0  0  0  0
    1.1608    2.0670   -0.3529 C   0  0  0  0  0  0  0  0  0  0  0  0
    0.9100    3.2953   -0.3576 O   0  5  0  0  0  0  0  0  0  0  0  0
    2.2963    1.5779   -0.1693 O   0  0  0  0  0  0  0  0  0  0  0  0
    0.6664   -0.1450    1.5428 C   0  0  0  0  0  0  0  0  0  0  0  0
    1.8485   -0.3724    1.8265 O   0  0  0  0  0  0  0  0  0  0  0  0
   -0.2161    0.2434    2.4686 N   0  0  0  0  0  0  0  0  0  0  0  0
   -1.1850    0.3219    2.1537 H   0  0  0  0  0  0  0  0  0  0  0  0
    0.0735    0.4128    3.8885 C   0  0  0  0  0  0  0  0  0  0  0  0
    1.0159    0.9483    4.0105 H   0  0  0  0  0  0  0  0  0  0  0  0
   -0.7315    0.9748    4.3613 H   0  0  0  0  0  0  0  0  0  0  0  0
    0.1564   -0.5677    4.3577 H   0  0  0  0  0  0  0  0  0  0  0  0
  5  6  2  0  0  0  0
  5  7  1  0  0  0  0
  2  3  1  0  0  0  0
  2  4  1  0  0  0  0
  2  5  1  0  0  0  0
  1  2  1  0  0  0  0
 17 18  2  0  0  0  0
 17 19  1  0  0  0  0
 14 15  1  0  0  0  0
 14 16  2  0  0  0  0
 11 12  1  0  0  0  0
 11 13  1  0  0  0  0
 11 14  1  0  0  0  0
  9 10  1  0  0  0  0
  9 11  1  0  0  0  0
  9 17  1  0  0  0  0
  7  8  1  0  0  0  0
  7  9  1  0  0  0  0
 21 22  1  0  0  0  0
 21 23  1  0  0  0  0
 21 24  1  0  0  0  0
 19 20  1  0  0  0  0
 19 21  1  0  0  0  0
M  CHG  1  15  -1
M  END
$$$$
default_name
  -OEChem-02102213163D

 24 23  0     1  0  0  0  0  0999 V2000
   -2.8347   -3.7166    0.8034 H   0  0  0  0  0  0  0  0  0  0  0  0
   -2.7728   -2.7096    0.3954 C   0  0  0  0  0  0  0  0  0  0  0  0
   -3.4267   -2.0426    0.9524 H   0  0  0  0  0  0  0  0  0  0  0  0
   -3.0538   -2.7186   -0.6556 H   0  0  0  0  0  0  0  0  0  0  0  0
   -1.3498   -2.2206    0.5184 C   0  0  0  0  0  0  0  0  0  0  0  0
   -0.4997   -2.9426    1.0194 O   0  0  0  0  0  0  0  0  0  0  0  0
   -1.1198   -0.9926    0.0674 N   0  0  0  0  0  0  0  0  0  0  0  0
   -1.8978   -0.4486   -0.2716 H   0  0  0  0  0  0  0  0  0  0  0  0
    0.1693   -0.2866    0.0854 C   0  0  1  0  0  0  0  0  0  0  0  0
    0.9043   -0.8713   -0.4705 H   0  0  0  0  0  0  0  0  0  0  0  0
    0.0106    1.0816   -0.6124 C   0  0  0  0  0  0  0  0  0  0  0  0
   -0.0490    0.9203   -1.6902 H   0  0  0  0  0  0  0  0  0  0  0  0
   -0.9303    1.5336   -0.2909 H   0  0  0  0  0  0  0  0  0  0  0  0
    1.1608    2.0670   -0.3529 C   0  0  0  0  0  0  0  0  0  0  0  0
    0.8793    3.2565   -0.0744 O   0  5  0  0  0  0  0  0  0  0  0  0
    2.3239    1.6210   -0.4555 O   0  0  0  0  0  0  0  0  0  0  0  0
    0.6664   -0.1450    1.5428 C   0  0  0  0  0  0  0  0  0  0  0  0
    1.8485   -0.3724    1.8265 O   0  0  0  0  0  0  0  0  0  0  0  0
   -0.2161    0.2434    2.4686 N   0  0  0  0  0  0  0  0  0  0  0  0
   -1.1850    0.3219    2.1537 H   0  0  0  0  0  0  0  0  0  0  0  0
    0.0735    0.4128    3.8885 C   0  0  0  0  0  0  0  0  0  0  0  0
    1.0159    0.9483    4.0105 H   0  0  0  0  0  0  0  0  0  0  0  0
   -0.7315    0.9748    4.3613 H   0  0  0  0  0  0  0  0  0  0  0  0
    0.1564   -0.5677    4.3577 H   0  0  0  0  0  0  0  0  0  0  0  0
  5  6  2  0  0  0  0
  5  7  1  0  0  0  0
  2  3  1  0  0  0  0
  2  4  1  0  0  0  0
  2  5  1  0  0  0  0
  1  2  1  0  0  0  0
 17 18  2  0  0  0  0
 17 19  1  0  0  0  0
 14 15  1  0  0  0  0
 14 16  2  0  0  0  0
 11 12  1  0  0  0  0
 11 13  1  0  0  0  0
 11 14  1  0  0  0  0
  9 10  1  0  0  0  0
  9 11  1  0  0  0  0
  9 17  1  0  0  0  0
  7  8  1  0  0  0  0
  7  9  1  0  0  0  0
 21 22  1  0  0  0  0
 21 23  1  0  0  0  0
 21 24  1  0  0  0  0
 19 20  1  0  0  0  0
 19 21  1  0  0  0  0
M  CHG  1  15  -1
M  END
$$$$
default_name
  -OEChem-02102213163D

 24 23  0     1  0  0  0  0  0999 V2000
   -2.8347   -3.7166    0.8034 H   0  0  0  0  0  0  0  0  0  0  0  0
   -2.7728   -2.7096    0.3954 C   0  0  0  0  0  0  0  0  0  0  0  0
   -3.4267   -2.0426    0.9524 H   0  0  0  0  0  0  0  0  0  0  0  0
   -3.0538   -2.7186   -0.6556 H   0  0  0  0  0  0  0  0  0  0  0  0
   -1.3498   -2.2206    0.5184 C   0  0  0  0  0  0  0  0  0  0  0  0
   -0.4997   -2.9426    1.0194 O   0  0  0  0  0  0  0  0  0  0  0  0
   -1.1198   -0.9926    0.0674 N   0  0  0  0  0  0  0  0  0  0  0  0
   -1.8978   -0.4486   -0.2716 H   0  0  0  0  0  0  0  0  0  0  0  0
    0.1693   -0.2866    0.0854 C   0  0  1  0  0  0  0  0  0  0  0  0
    0.9043   -0.8713   -0.4705 H   0  0  0  0  0  0  0  0  0  0  0  0
    0.0106    1.0816   -0.6124 C   0  0  0  0  0  0  0  0  0  0  0  0
   -0.0490    0.9203   -1.6902 H   0  0  0  0  0  0  0  0  0  0  0  0
   -0.9303    1.5336   -0.2909 H   0  0  0  0  0  0  0  0  0  0  0  0
    1.1608    2.0670   -0.3529 C   0  0  0  0  0  0  0  0  0  0  0  0
    0.8984    3.1628    0.1967 O   0  5  0  0  0  0  0  0  0  0  0  0
    2.3012    1.7193   -0.7281 O   0  0  0  0  0  0  0  0  0  0  0  0
    0.6664   -0.1450    1.5428 C   0  0  0  0  0  0  0  0  0  0  0  0
    1.8485   -0.3724    1.8265 O   0  0  0  0  0  0  0  0  0  0  0  0
   -0.2161    0.2434    2.4686 N   0  0  0  0  0  0  0  0  0  0  0  0
   -1.1850    0.3219    2.1537 H   0  0  0  0  0  0  0  0  0  0  0  0
    0.0735    0.4128    3.8885 C   0  0  0  0  0  0  0  0  0  0  0  0
    1.0159    0.9483    4.0105 H   0  0  0  0  0  0  0  0  0  0  0  0
   -0.7315    0.9748    4.3613 H   0  0  0  0  0  0  0  0  0  0  0  0
    0.1564   -0.5677    4.3577 H   0  0  0  0  0  0  0  0  0  0  0  0
  5  6  2  0  0  0  0
  5  7  1  0  0  0  0
  2  3  1  0  0  0  0
  2  4  1  0  0  0  0
  2  5  1  0  0  0  0
  1  2  1  0  0  0  0
 17 18  2  0  0  0  0
 17 19  1  0  0  0  0
 14 15  1  0  0  0  0
 14 16  2  0  0  0  0
 11 12  1  0  0  0  0
 11 13  1  0  0  0  0
 11 14  1  0  0  0  0
  9 10  1  0  0  0  0
  9 11  1  0  0  0  0
  9 17  1  0  0  0  0
  7  8  1  0  0  0  0
  7  9  1  0  0  0  0
 21 22  1  0  0  0  0
 21 23  1  0  0  0  0
 21 24  1  0  0  0  0
 19 20  1  0  0  0  0
 19 21  1  0  0  0  0
M  CHG  1  15  -1
M  END
$$$$
default_name
  -OEChem-02102213163D

 24 23  0     1  0  0  0  0  0999 V2000
   -2.8347   -3.7166    0.8034 H   0  0  0  0  0  0  0  0  0  0  0  0
   -2.7728   -2.7096    0.3954 C   0  0  0  0  0  0  0  0  0  0  0  0
   -3.4267   -2.0426    0.9524 H   0  0  0  0  0  0  0  0  0  0  0  0
   -3.0538   -2.7186   -0.6556 H   0  0  0  0  0  0  0  0  0  0  0  0
   -1.3498   -2.2206    0.5184 C   0  0  0  0  0  0  0  0  0  0  0  0
   -0.4997   -2.9426    1.0194 O   0  0  0  0  0  0  0  0  0  0  0  0
   -1.1198   -0.9926    0.0674 N   0  0  0  0  0  0  0  0  0  0  0  0
   -1.8978   -0.4486   -0.2716 H   0  0  0  0  0  0  0  0  0  0  0  0
    0.1693   -0.2866    0.0854 C   0  0  1  0  0  0  0  0  0  0  0  0
    0.9043   -0.8713   -0.4705 H   0  0  0  0  0  0  0  0  0  0  0  0
    0.0106    1.0816   -0.6124 C   0  0  0  0  0  0  0  0  0  0  0  0
   -0.0490    0.9203   -1.6902 H   0  0  0  0  0  0  0  0  0  0  0  0
   -0.9303    1.5336   -0.2909 H   0  0  0  0  0  0  0  0  0  0  0  0
    1.1608    2.0670   -0.3529 C   0  0  0  0  0  0  0  0  0  0  0  0
    0.9660    3.0206    0.4373 O   0  5  0  0  0  0  0  0  0  0  0  0
    2.2297    1.8661   -0.9687 O   0  0  0  0  0  0  0  0  0  0  0  0
    0.6664   -0.1450    1.5428 C   0  0  0  0  0  0  0  0  0  0  0  0
    1.8485   -0.3724    1.8265 O   0  0  0  0  0  0  0  0  0  0  0  0
   -0.2161    0.2434    2.4686 N   0  0  0  0  0  0  0  0  0  0  0  0
   -1.1850    0.3219    2.1537 H   0  0  0  0  0  0  0  0  0  0  0  0
    0.0735    0.4128    3.8885 C   0  0  0  0  0  0  0  0  0  0  0  0
    1.0159    0.9483    4.0105 H   0  0  0  0  0  0  0  0  0  0  0  0
   -0.7315    0.9748    4.3613 H   0  0  0  0  0  0  0  0  0  0  0  0
    0.1564   -0.5677    4.3577 H   0  0  0  0  0  0  0  0  0  0  0  0
  5  6  2  0  0  0  0
  5  7  1  0  0  0  0
  2  3  1  0  0  0  0
  2  4  1  0  0  0  0
  2  5  1  0  0  0  0
  1  2  1  0  0  0  0
 17 18  2  0  0  0  0
 17 19  1  0  0  0  0
 14 15  1  0  0  0  0
 14 16  2  0  0  0  0
 11 12  1  0  0  0  0
 11 13  1  0  0  0  0
 11 14  1  0  0  0  0
  9 10  1  0  0  0  0
  9 11  1  0  0  0  0
  9 17  1  0  0  0  0
  7  8  1  0  0  0  0
  7  9  1  0  0  0  0
 21 22  1  0  0  0  0
 21 23  1  0  0  0  0
 21 24  1  0  0  0  0
 19 20  1  0  0  0  0
 19 21  1  0  0  0  0
M  CHG  1  15  -1
M  END
$$$$
default_name
  -OEChem-02102213163D

 24 23  0     1  0  0  0  0  0999 V2000
   -2.8347   -3.7166    0.8034 H   0  0  0  0  0  0  0  0  0  0  0  0
   -2.7728   -2.7096    0.3954 C   0  0  0  0  0  0  0  0  0  0  0  0
   -3.4267   -2.0426    0.9524 H   0  0  0  0  0  0  0  0  0  0  0  0
   -3.0538   -2.7186   -0.6556 H   0  0  0  0  0  0  0  0  0  0  0  0
   -1.3498   -2.2206    0.5184 C   0  0  0  0  0  0  0  0  0  0  0  0
   -0.4997   -2.9426    1.0194 O   0  0  0  0  0  0  0  0  0  0  0  0
   -1.1198   -0.9926    0.0674 N   0  0  0  0  0  0  0  0  0  0  0  0
   -1.8978   -0.4486   -0.2716 H   0  0  0  0  0  0  0  0  0  0  0  0
    0.1693   -0.2866    0.0854 C   0  0  1  0  0  0  0  0  0  0  0  0
    0.9043   -0.8713   -0.4705 H   0  0  0  0  0  0  0  0  0  0  0  0
    0.0106    1.0816   -0.6124 C   0  0  0  0  0  0  0  0  0  0  0  0
   -0.0490    0.9203   -1.6902 H   0  0  0  0  0  0  0  0  0  0  0  0
   -0.9303    1.5336   -0.2909 H   0  0  0  0  0  0  0  0  0  0  0  0
    1.1608    2.0670   -0.3529 C   0  0  0  0  0  0  0  0  0  0  0  0
    1.0774    2.8396    0.6309 O   0  5  0  0  0  0  0  0  0  0  0  0
    2.1144    2.0514   -1.1608 O   0  0  0  0  0  0  0  0  0  0  0  0
    0.6664   -0.1450    1.5428 C   0  0  0  0  0  0  0  0  0  0  0  0
    1.8485   -0.3724    1.8265 O   0  0  0  0  0  0  0  0  0  0  0  0
   -0.2161    0.2434    2.4686 N   0  0  0  0  0  0  0  0  0  0  0  0
   -1.1850    0.3219    2.1537 H   0  0  0  0  0  0  0  0  0  0  0  0
    0.0735    0.4128    3.8885 C   0  0  0  0  0  0  0  0  0  0  0  0
    1.0159    0.9483    4.0105 H   0  0  0  0  0  0  0  0  0  0  0  0
   -0.7315    0.9748    4.3613 H   0  0  0  0  0  0  0  0  0  0  0  0
    0.1564   -0.5677    4.3577 H   0  0  0  0  0  0  0  0  0  0  0  0
  5  6  2  0  0  0  0
  5  7  1  0  0  0  0
  2  3  1  0  0  0  0
  2  4  1  0  0  0  0
  2  5  1  0  0  0  0
  1  2  1  0  0  0  0
 17 18  2  0  0  0  0
 17 19  1  0  0  0  0
 14 15  1  0  0  0  0
 14 16  2  0  0  0  0
 11 12  1  0  0  0  0
 11 13  1  0  0  0  0
 11 14  1  0  0  0  0
  9 10  1  0  0  0  0
  9 11  1  0  0  0  0
  9 17  1  0  0  0  0
  7  8  1  0  0  0  0
  7  9  1  0  0  0  0
 21 22  1  0  0  0  0
 21 23  1  0  0  0  0
 21 24  1  0  0  0  0
 19 20  1  0  0  0  0
 19 21  1  0  0  0  0
M  CHG  1  15  -1
M  END
$$$$
default_name
  -OEChem-02102213163D

 24 23  0     1  0  0  0  0  0999 V2000
   -2.8347   -3.7166    0.8034 H   0  0  0  0  0  0  0  0  0  0  0  0
   -2.7728   -2.7096    0.3954 C   0  0  0  0  0  0  0  0  0  0  0  0
   -3.4267   -2.0426    0.9524 H   0  0  0  0  0  0  0  0  0  0  0  0
   -3.0538   -2.7186   -0.6556 H   0  0  0  0  0  0  0  0  0  0  0  0
   -1.3498   -2.2206    0.5184 C   0  0  0  0  0  0  0  0  0  0  0  0
   -0.4997   -2.9426    1.0194 O   0  0  0  0  0  0  0  0  0  0  0  0
   -1.1198   -0.9926    0.0674 N   0  0  0  0  0  0  0  0  0  0  0  0
   -1.8978   -0.4486   -0.2716 H   0  0  0  0  0  0  0  0  0  0  0  0
    0.1693   -0.2866    0.0854 C   0  0  1  0  0  0  0  0  0  0  0  0
    0.9043   -0.8713   -0.4705 H   0  0  0  0  0  0  0  0  0  0  0  0
    0.0106    1.0816   -0.6124 C   0  0  0  0  0  0  0  0  0  0  0  0
   -0.0490    0.9203   -1.6902 H   0  0  0  0  0  0  0  0  0  0  0  0
   -0.9303    1.5336   -0.2909 H   0  0  0  0  0  0  0  0  0  0  0  0
    1.1608    2.0670   -0.3529 C   0  0  0  0  0  0  0  0  0  0  0  0
    1.2250    2.6321    0.7643 O   0  5  0  0  0  0  0  0  0  0  0  0
    1.9630    2.2625   -1.2913 O   0  0  0  0  0  0  0  0  0  0  0  0
    0.6664   -0.1450    1.5428 C   0  0  0  0  0  0  0  0  0  0  0  0
    1.8485   -0.3724    1.8265 O   0  0  0  0  0  0  0  0  0  0  0  0
   -0.2161    0.2434    2.4686 N   0  0  0  0  0  0  0  0  0  0  0  0
   -1.1850    0.3219    2.1537 H   0  0  0  0  0  0  0  0  0  0  0  0
    0.0735    0.4128    3.8885 C   0  0  0  0  0  0  0  0  0  0  0  0
    1.0159    0.9483    4.0105 H   0  0  0  0  0  0  0  0  0  0  0  0
   -0.7315    0.9748    4.3613 H   0  0  0  0  0  0  0  0  0  0  0  0
    0.1564   -0.5677    4.3577 H   0  0  0  0  0  0  0  0  0  0  0  0
  5  6  2  0  0  0  0
  5  7  1  0  0  0  0
  2  3  1  0  0  0  0
  2  4  1  0  0  0  0
  2  5  1  0  0  0  0
  1  2  1  0  0  0  0
 17 18  2  0  0  0  0
 17 19  1  0  0  0  0
 14 15  1  0  0  0  0
 14 16  2  0  0  0  0
 11 12  1  0  0  0  0
 11 13  1  0  0  0  0
 11 14  1  0  0  0  0
  9 10  1  0  0  0  0
  9 11  1  0  0  0  0
  9 17  1  0  0  0  0
  7  8  1  0  0  0  0
  7  9  1  0  0  0  0
 21 22  1  0  0  0  0
 21 23  1  0  0  0  0
 21 24  1  0  0  0  0
 19 20  1  0  0  0  0
 19 21  1  0  0  0  0
M  CHG  1  15  -1
M  END
$$$$
default_name
  -OEChem-02102213163D

 24 23  0     1  0  0  0  0  0999 V2000
   -2.8347   -3.7166    0.8034 H   0  0  0  0  0  0  0  0  0  0  0  0
   -2.7728   -2.7096    0.3954 C   0  0  0  0  0  0  0  0  0  0  0  0
   -3.4267   -2.0426    0.9524 H   0  0  0  0  0  0  0  0  0  0  0  0
   -3.0538   -2.7186   -0.6556 H   0  0  0  0  0  0  0  0  0  0  0  0
   -1.3498   -2.2206    0.5184 C   0  0  0  0  0  0  0  0  0  0  0  0
   -0.4997   -2.9426    1.0194 O   0  0  0  0  0  0  0  0  0  0  0  0
   -1.1198   -0.9926    0.0674 N   0  0  0  0  0  0  0  0  0  0  0  0
   -1.8978   -0.4486   -0.2716 H   0  0  0  0  0  0  0  0  0  0  0  0
    0.1693   -0.2866    0.0854 C   0  0  1  0  0  0  0  0  0  0  0  0
    0.9043   -0.8713   -0.4705 H   0  0  0  0  0  0  0  0  0  0  0  0
    0.0106    1.0816   -0.6124 C   0  0  0  0  0  0  0  0  0  0  0  0
   -0.0490    0.9203   -1.6902 H   0  0  0  0  0  0  0  0  0  0  0  0
   -0.9303    1.5336   -0.2909 H   0  0  0  0  0  0  0  0  0  0  0  0
    1.1608    2.0670   -0.3529 C   0  0  0  0  0  0  0  0  0  0  0  0
    1.3988    2.4123    0.8285 O   0  5  0  0  0  0  0  0  0  0  0  0
    1.7858    2.4851   -1.3513 O   0  0  0  0  0  0  0  0  0  0  0  0
    0.6664   -0.1450    1.5428 C   0  0  0  0  0  0  0  0  0  0  0  0
    1.8485   -0.3724    1.8265 O   0  0  0  0  0  0  0  0  0  0  0  0
   -0.2161    0.2434    2.4686 N   0  0  0  0  0  0  0  0  0  0  0  0
   -1.1850    0.3219    2.1537 H   0  0  0  0  0  0  0  0  0  0  0  0
    0.0735    0.4128    3.8885 C   0  0  0  0  0  0  0  0  0  0  0  0
    1.0159    0.9483    4.0105 H   0  0  0  0  0  0  0  0  0  0  0  0
   -0.7315    0.9748    4.3613 H   0  0  0  0  0  0  0  0  0  0  0  0
    0.1564   -0.5677    4.3577 H   0  0  0  0  0  0  0  0  0  0  0  0
  5  6  2  0  0  0  0
  5  7  1  0  0  0  0
  2  3  1  0  0  0  0
  2  4  1  0  0  0  0
  2  5  1  0  0  0  0
  1  2  1  0  0  0  0
 17 18  2  0  0  0  0
 17 19  1  0  0  0  0
 14 15  1  0  0  0  0
 14 16  2  0  0  0  0
 11 12  1  0  0  0  0
 11 13  1  0  0  0  0
 11 14  1  0  0  0  0
  9 10  1  0  0  0  0
  9 11  1  0  0  0  0
  9 17  1  0  0  0  0
  7  8  1  0  0  0  0
  7  9  1  0  0  0  0
 21 22  1  0  0  0  0
 21 23  1  0  0  0  0
 21 24  1  0  0  0  0
 19 20  1  0  0  0  0
 19 21  1  0  0  0  0
M  CHG  1  15  -1
M  END
$$$$
default_name
  -OEChem-02102213163D

 24 23  0     1  0  0  0  0  0999 V2000
   -2.8347   -3.7166    0.8034 H   0  0  0  0  0  0  0  0  0  0  0  0
   -2.7728   -2.7096    0.3954 C   0  0  0  0  0  0  0  0  0  0  0  0
   -3.4267   -2.0426    0.9524 H   0  0  0  0  0  0  0  0  0  0  0  0
   -3.0538   -2.7186   -0.6556 H   0  0  0  0  0  0  0  0  0  0  0  0
   -1.3498   -2.2206    0.5184 C   0  0  0  0  0  0  0  0  0  0  0  0
   -0.4997   -2.9426    1.0194 O   0  0  0  0  0  0  0  0  0  0  0  0
   -1.1198   -0.9926    0.0674 N   0  0  0  0  0  0  0  0  0  0  0  0
   -1.8978   -0.4486   -0.2716 H   0  0  0  0  0  0  0  0  0  0  0  0
    0.1693   -0.2866    0.0854 C   0  0  1  0  0  0  0  0  0  0  0  0
    0.9043   -0.8713   -0.4705 H   0  0  0  0  0  0  0  0  0  0  0  0
    0.0106    1.0816   -0.6124 C   0  0  0  0  0  0  0  0  0  0  0  0
   -0.0490    0.9203   -1.6902 H   0  0  0  0  0  0  0  0  0  0  0  0
   -0.9303    1.5336   -0.2909 H   0  0  0  0  0  0  0  0  0  0  0  0
    1.1608    2.0670   -0.3529 C   0  0  0  0  0  0  0  0  0  0  0  0
    1.5869    2.1952    0.8191 O   0  5  0  0  0  0  0  0  0  0  0  0
    1.5950    2.7040   -1.3367 O   0  0  0  0  0  0  0  0  0  0  0  0
    0.6664   -0.1450    1.5428 C   0  0  0  0  0  0  0  0  0  0  0  0
    1.8485   -0.3724    1.8265 O   0  0  0  0  0  0  0  0  0  0  0  0
   -0.2161    0.2434    2.4686 N   0  0  0  0  0  0  0  0  0  0  0  0
   -1.1850    0.3219    2.1537 H   0  0  0  0  0  0  0  0  0  0  0  0
    0.0735    0.4128    3.8885 C   0  0  0  0  0  0  0  0  0  0  0  0
    1.0159    0.9483    4.0105 H   0  0  0  0  0  0  0  0  0  0  0  0
   -0.7315    0.9748    4.3613 H   0  0  0  0  0  0  0  0  0  0  0  0
    0.1564   -0.5677    4.3577 H   0  0  0  0  0  0  0  0  0  0  0  0
  5  6  2  0  0  0  0
  5  7  1  0  0  0  0
  2  3  1  0  0  0  0
  2  4  1  0  0  0  0
  2  5  1  0  0  0  0
  1  2  1  0  0  0  0
 17 18  2  0  0  0  0
 17 19  1  0  0  0  0
 14 15  1  0  0  0  0
 14 16  2  0  0  0  0
 11 12  1  0  0  0  0
 11 13  1  0  0  0  0
 11 14  1  0  0  0  0
  9 10  1  0  0  0  0
  9 11  1  0  0  0  0
  9 17  1  0  0  0  0
  7  8  1  0  0  0  0
  7  9  1  0  0  0  0
 21 22  1  0  0  0  0
 21 23  1  0  0  0  0
 21 24  1  0  0  0  0
 19 20  1  0  0  0  0
 19 21  1  0  0  0  0
M  CHG  1  15  -1
M  END
$$$$
default_name
  -OEChem-02102213163D

 24 23  0     1  0  0  0  0  0999 V2000
   -2.8347   -3.7166    0.8034 H   0  0  0  0  0  0  0  0  0  0  0  0
   -2.7728   -2.7096    0.3954 C   0  0  0  0  0  0  0  0  0  0  0  0
   -3.4267   -2.0426    0.9524 H   0  0  0  0  0  0  0  0  0  0  0  0
   -3.0538   -2.7186   -0.6556 H   0  0  0  0  0  0  0  0  0  0  0  0
   -1.3498   -2.2206    0.5184 C   0  0  0  0  0  0  0  0  0  0  0  0
   -0.4997   -2.9426    1.0194 O   0  0  0  0  0  0  0  0  0  0  0  0
   -1.1198   -0.9926    0.0674 N   0  0  0  0  0  0  0  0  0  0  0  0
   -1.8978   -0.4486   -0.2716 H   0  0  0  0  0  0  0  0  0  0  0  0
    0.1693   -0.2866    0.0854 C   0  0  1  0  0  0  0  0  0  0  0  0
    0.9043   -0.8713   -0.4705 H   0  0  0  0  0  0  0  0  0  0  0  0
    0.0106    1.0816   -0.6124 C   0  0  0  0  0  0  0  0  0  0  0  0
   -0.0490    0.9203   -1.6902 H   0  0  0  0  0  0  0  0  0  0  0  0
   -0.9303    1.5336   -0.2909 H   0  0  0  0  0  0  0  0  0  0  0  0
    1.1608    2.0670   -0.3529 C   0  0  0  0  0  0  0  0  0  0  0  0
    1.7766    1.9954    0.7367 O   0  5  0  0  0  0  0  0  0  0  0  0
    1.4036    2.9043   -1.2486 O   0  0  0  0  0  0  0  0  0  0  0  0
    0.6664   -0.1450    1.5428 C   0  0  0  0  0  0  0  0  0  0  0  0
    1.8485   -0.3724    1.8265 O   0  0  0  0  0  0  0  0  0  0  0  0
   -0.2161    0.2434    2.4686 N   0  0  0  0  0  0  0  0  0  0  0  0
   -1.1850    0.3219    2.1537 H   0  0  0  0  0  0  0  0  0  0  0  0
    0.0735    0.4128    3.8885 C   0  0  0  0  0  0  0  0  0  0  0  0
    1.0159    0.9483    4.0105 H   0  0  0  0  0  0  0  0  0  0  0  0
   -0.7315    0.9748    4.3613 H   0  0  0  0  0  0  0  0  0  0  0  0
    0.1564   -0.5677    4.3577 H   0  0  0  0  0  0  0  0  0  0  0  0
  5  6  2  0  0  0  0
  5  7  1  0  0  0  0
  2  3  1  0  0  0  0
  2  4  1  0  0  0  0
  2  5  1  0  0  0  0
  1  2  1  0  0  0  0
 17 18  2  0  0  0  0
 17 19  1  0  0  0  0
 14 15  1  0  0  0  0
 14 16  2  0  0  0  0
 11 12  1  0  0  0  0
 11 13  1  0  0  0  0
 11 14  1  0  0  0  0
  9 10  1  0  0  0  0
  9 11  1  0  0  0  0
  9 17  1  0  0  0  0
  7  8  1  0  0  0  0
  7  9  1  0  0  0  0
 21 22  1  0  0  0  0
 21 23  1  0  0  0  0
 21 24  1  0  0  0  0
 19 20  1  0  0  0  0
 19 21  1  0  0  0  0
M  CHG  1  15  -1
M  END
$$$$
default_name
  -OEChem-02102213163D

 24 23  0     1  0  0  0  0  0999 V2000
   -2.8347   -3.7166    0.8034 H   0  0  0  0  0  0  0  0  0  0  0  0
   -2.7728   -2.7096    0.3954 C   0  0  0  0  0  0  0  0  0  0  0  0
   -3.4267   -2.0426    0.9524 H   0  0  0  0  0  0  0  0  0  0  0  0
   -3.0538   -2.7186   -0.6556 H   0  0  0  0  0  0  0  0  0  0  0  0
   -1.3498   -2.2206    0.5184 C   0  0  0  0  0  0  0  0  0  0  0  0
   -0.4997   -2.9426    1.0194 O   0  0  0  0  0  0  0  0  0  0  0  0
   -1.1198   -0.9926    0.0674 N   0  0  0  0  0  0  0  0  0  0  0  0
   -1.8978   -0.4486   -0.2716 H   0  0  0  0  0  0  0  0  0  0  0  0
    0.1693   -0.2866    0.0854 C   0  0  1  0  0  0  0  0  0  0  0  0
    0.9043   -0.8713   -0.4705 H   0  0  0  0  0  0  0  0  0  0  0  0
    0.0106    1.0816   -0.6124 C   0  0  0  0  0  0  0  0  0  0  0  0
   -0.0490    0.9203   -1.6902 H   0  0  0  0  0  0  0  0  0  0  0  0
   -0.9303    1.5336   -0.2909 H   0  0  0  0  0  0  0  0  0  0  0  0
    1.1608    2.0670   -0.3529 C   0  0  0  0  0  0  0  0  0  0  0  0
    1.9549    1.8268    0.5870 O   0  5  0  0  0  0  0  0  0  0  0  0
    1.2245    3.0723   -1.0929 O   0  0  0  0  0  0  0  0  0  0  0  0
    0.6664   -0.1450    1.5428 C   0  0  0  0  0  0  0  0  0  0  0  0
    1.8485   -0.3724    1.8265 O   0  0  0  0  0  0  0  0  0  0  0  0
   -0.2161    0.2434    2.4686 N   0  0  0  0  0  0  0  0  0  0  0  0
   -1.1850    0.3219    2.1537 H   0  0  0  0  0  0  0  0  0  0  0  0
    0.0735    0.4128    3.8885 C   0  0  0  0  0  0  0  0  0  0  0  0
    1.0159    0.9483    4.0105 H   0  0  0  0  0  0  0  0  0  0  0  0
   -0.7315    0.9748    4.3613 H   0  0  0  0  0  0  0  0  0  0  0  0
    0.1564   -0.5677    4.3577 H   0  0  0  0  0  0  0  0  0  0  0  0
  5  6  2  0  0  0  0
  5  7  1  0  0  0  0
  2  3  1  0  0  0  0
  2  4  1  0  0  0  0
  2  5  1  0  0  0  0
  1  2  1  0  0  0  0
 17 18  2  0  0  0  0
 17 19  1  0  0  0  0
 14 15  1  0  0  0  0
 14 16  2  0  0  0  0
 11 12  1  0  0  0  0
 11 13  1  0  0  0  0
 11 14  1  0  0  0  0
  9 10  1  0  0  0  0
  9 11  1  0  0  0  0
  9 17  1  0  0  0  0
  7  8  1  0  0  0  0
  7  9  1  0  0  0  0
 21 22  1  0  0  0  0
 21 23  1  0  0  0  0
 21 24  1  0  0  0  0
 19 20  1  0  0  0  0
 19 21  1  0  0  0  0
M  CHG  1  15  -1
M  END
$$$$
default_name
  -OEChem-02102213163D

 24 23  0     1  0  0  0  0  0999 V2000
   -2.8347   -3.7166    0.8034 H   0  0  0  0  0  0  0  0  0  0  0  0
   -2.7728   -2.7096    0.3954 C   0  0  0  0  0  0  0  0  0  0  0  0
   -3.4267   -2.0426    0.9524 H   0  0  0  0  0  0  0  0  0  0  0  0
   -3.0538   -2.7186   -0.6556 H   0  0  0  0  0  0  0  0  0  0  0  0
   -1.3498   -2.2206    0.5184 C   0  0  0  0  0  0  0  0  0  0  0  0
   -0.4997   -2.9426    1.0194 O   0  0  0  0  0  0  0  0  0  0  0  0
   -1.1198   -0.9926    0.0674 N   0  0  0  0  0  0  0  0  0  0  0  0
   -1.8978   -0.4486   -0.2716 H   0  0  0  0  0  0  0  0  0  0  0  0
    0.1693   -0.2866    0.0854 C   0  0  1  0  0  0  0  0  0  0  0  0
    0.9043   -0.8713   -0.4705 H   0  0  0  0  0  0  0  0  0  0  0  0
    0.0106    1.0816   -0.6124 C   0  0  0  0  0  0  0  0  0  0  0  0
   -0.0490    0.9203   -1.6902 H   0  0  0  0  0  0  0  0  0  0  0  0
   -0.9303    1.5336   -0.2909 H   0  0  0  0  0  0  0  0  0  0  0  0
    1.1608    2.0670   -0.3529 C   0  0  0  0  0  0  0  0  0  0  0  0
    2.1096    1.7007    0.3801 O   0  5  0  0  0  0  0  0  0  0  0  0
    1.0701    3.1965   -0.8802 O   0  0  0  0  0  0  0  0  0  0  0  0
    0.6664   -0.1450    1.5428 C   0  0  0  0  0  0  0  0  0  0  0  0
    1.8485   -0.3724    1.8265 O   0  0  0  0  0  0  0  0  0  0  0  0
   -0.2161    0.2434    2.4686 N   0  0  0  0  0  0  0  0  0  0  0  0
   -1.1850    0.3219    2.1537 H   0  0  0  0  0  0  0  0  0  0  0  0
    0.0735    0.4128    3.8885 C   0  0  0  0  0  0  0  0  0  0  0  0
    1.0159    0.9483    4.0105 H   0  0  0  0  0  0  0  0  0  0  0  0
   -0.7315    0.9748    4.3613 H   0  0  0  0  0  0  0  0  0  0  0  0
    0.1564   -0.5677    4.3577 H   0  0  0  0  0  0  0  0  0  0  0  0
  5  6  2  0  0  0  0
  5  7  1  0  0  0  0
  2  3  1  0  0  0  0
  2  4  1  0  0  0  0
  2  5  1  0  0  0  0
  1  2  1  0  0  0  0
 17 18  2  0  0  0  0
 17 19  1  0  0  0  0
 14 15  1  0  0  0  0
 14 16  2  0  0  0  0
 11 12  1  0  0  0  0
 11 13  1  0  0  0  0
 11 14  1  0  0  0  0
  9 10  1  0  0  0  0
  9 11  1  0  0  0  0
  9 17  1  0  0  0  0
  7  8  1  0  0  0  0
  7  9  1  0  0  0  0
 21 22  1  0  0  0  0
 21 23  1  0  0  0  0
 21 24  1  0  0  0  0
 19 20  1  0  0  0  0
 19 21  1  0  0  0  0
M  CHG  1  15  -1
M  END
$$$$
default_name
  -OEChem-02102213163D

 24 23  0     1  0  0  0  0  0999 V2000
   -2.8347   -3.7166    0.8034 H   0  0  0  0  0  0  0  0  0  0  0  0
   -2.7728   -2.7096    0.3954 C   0  0  0  0  0  0  0  0  0  0  0  0
   -3.4267   -2.0426    0.9524 H   0  0  0  0  0  0  0  0  0  0  0  0
   -3.0538   -2.7186   -0.6556 H   0  0  0  0  0  0  0  0  0  0  0  0
   -1.3498   -2.2206    0.5184 C   0  0  0  0  0  0  0  0  0  0  0  0
   -0.4997   -2.9426    1.0194 O   0  0  0  0  0  0  0  0  0  0  0  0
   -1.1198   -0.9926    0.0674 N   0  0  0  0  0  0  0  0  0  0  0  0
   -1.8978   -0.4486   -0.2716 H   0  0  0  0  0  0  0  0  0  0  0  0
    0.1693   -0.2866    0.0854 C   0  0  1  0  0  0  0  0  0  0  0  0
    0.9043   -0.8713   -0.4705 H   0  0  0  0  0  0  0  0  0  0  0  0
    0.0106    1.0816   -0.6124 C   0  0  0  0  0  0  0  0  0  0  0  0
   -0.0490    0.9203   -1.6902 H   0  0  0  0  0  0  0  0  0  0  0  0
   -0.9303    1.5336   -0.2909 H   0  0  0  0  0  0  0  0  0  0  0  0
    1.1608    2.0670   -0.3529 C   0  0  0  0  0  0  0  0  0  0  0  0
    2.2302    1.6257    0.1301 O   0  5  0  0  0  0  0  0  0  0  0  0
    0.9508    3.2686   -0.6251 O   0  0  0  0  0  0  0  0  0  0  0  0
    0.6664   -0.1450    1.5428 C   0  0  0  0  0  0  0  0  0  0  0  0
    1.8485   -0.3724    1.8265 O   0  0  0  0  0  0  0  0  0  0  0  0
   -0.2161    0.2434    2.4686 N   0  0  0  0  0  0  0  0  0  0  0  0
   -1.1850    0.3219    2.1537 H   0  0  0  0  0  0  0  0  0  0  0  0
    0.0735    0.4128    3.8885 C   0  0  0  0  0  0  0  0  0  0  0  0
    1.0159    0.9483    4.0105 H   0  0  0  0  0  0  0  0  0  0  0  0
   -0.7315    0.9748    4.3613 H   0  0  0  0  0  0  0  0  0  0  0  0
    0.1564   -0.5677    4.3577 H   0  0  0  0  0  0  0  0  0  0  0  0
  5  6  2  0  0  0  0
  5  7  1  0  0  0  0
  2  3  1  0  0  0  0
  2  4  1  0  0  0  0
  2  5  1  0  0  0  0
  1  2  1  0  0  0  0
 17 18  2  0  0  0  0
 17 19  1  0  0  0  0
 14 15  1  0  0  0  0
 14 16  2  0  0  0  0
 11 12  1  0  0  0  0
 11 13  1  0  0  0  0
 11 14  1  0  0  0  0
  9 10  1  0  0  0  0
  9 11  1  0  0  0  0
  9 17  1  0  0  0  0
  7  8  1  0  0  0  0
  7  9  1  0  0  0  0
 21 22  1  0  0  0  0
 21 23  1  0  0  0  0
 21 24  1  0  0  0  0
 19 20  1  0  0  0  0
 19 21  1  0  0  0  0
M  CHG  1  15  -1
M  END
$$$$
default_name
  -OEChem-02102213163D

 24 23  0     1  0  0  0  0  0999 V2000
   -2.8347   -3.7166    0.8034 H   0  0  0  0  0  0  0  0  0  0  0  0
   -2.7728   -2.7096    0.3954 C   0  0  0  0  0  0  0  0  0  0  0  0
   -3.4267   -2.0426    0.9524 H   0  0  0  0  0  0  0  0  0  0  0  0
   -3.0538   -2.7186   -0.6556 H   0  0  0  0  0  0  0  0  0  0  0  0
   -1.3498   -2.2206    0.5184 C   0  0  0  0  0  0  0  0  0  0  0  0
   -0.4997   -2.9426    1.0194 O   0  0  0  0  0  0  0  0  0  0  0  0
   -1.1198   -0.9926    0.0674 N   0  0  0  0  0  0  0  0  0  0  0  0
   -1.8978   -0.4486   -0.2716 H   0  0  0  0  0  0  0  0  0  0  0  0
    0.1693   -0.2866    0.0854 C   0  0  1  0  0  0  0  0  0  0  0  0
    0.9043   -0.8713   -0.4705 H   0  0  0  0  0  0  0  0  0  0  0  0
    0.0106    1.0816   -0.6124 C   0  0  0  0  0  0  0  0  0  0  0  0
   -0.0490    0.9203   -1.6902 H   0  0  0  0  0  0  0  0  0  0  0  0
   -0.9303    1.5336   -0.2909 H   0  0  0  0  0  0  0  0  0  0  0  0
    1.1608    2.0670   -0.3529 C   0  0  0  0  0  0  0  0  0  0  0  0
    2.3085    1.6070   -0.1459 O   0  5  0  0  0  0  0  0  0  0  0  0
    0.8747    3.2837   -0.3449 O   0  0  0  0  0  0  0  0  0  0  0  0
    0.6664   -0.1450    1.5428 C   0  0  0  0  0  0  0  0  0  0  0  0
    1.8485   -0.3724    1.8265 O   0  0  0  0  0  0  0  0  0  0  0  0
   -0.2161    0.2434    2.4686 N   0  0  0  0  0  0  0  0  0  0  0  0
   -1.1850    0.3219    2.1537 H   0  0  0  0  0  0  0  0  0  0  0  0
    0.0735    0.4128    3.8885 C   0  0  0  0  0  0  0  0  0  0  0  0
    1.0159    0.9483    4.0105 H   0  0  0  0  0  0  0  0  0  0  0  0
   -0.7315    0.9748    4.3613 H   0  0  0  0  0  0  0  0  0  0  0  0
    0.1564   -0.5677    4.3577 H   0  0  0  0  0  0  0  0  0  0  0  0
  5  6  2  0  0  0  0
  5  7  1  0  0  0  0
  2  3  1  0  0  0  0
  2  4  1  0  0  0  0
  2  5  1  0  0  0  0
  1  2  1  0  0  0  0
 17 18  2  0  0  0  0
 17 19  1  0  0  0  0
 14 15  1  0  0  0  0
 14 16  2  0  0  0  0
 11 12  1  0  0  0  0
 11 13  1  0  0  0  0
 11 14  1  0  0  0  0
  9 10  1  0  0  0  0
  9 11  1  0  0  0  0
  9 17  1  0  0  0  0
  7  8  1  0  0  0  0
  7  9  1  0  0  0  0
 21 22  1  0  0  0  0
 21 23  1  0  0  0  0
 21 24  1  0  0  0  0
 19 20  1  0  0  0  0
 19 21  1  0  0  0  0
M  CHG  1  15  -1
M  END
$$$$
default_name
  -OEChem-02102213163D

 24 23  0     1  0  0  0  0  0999 V2000
   -2.8347   -3.7166    0.8034 H   0  0  0  0  0  0  0  0  0  0  0  0
   -2.7728   -2.7096    0.3954 C   0  0  0  0  0  0  0  0  0  0  0  0
   -3.4267   -2.0426    0.9524 H   0  0  0  0  0  0  0  0  0  0  0  0
   -3.0538   -2.7186   -0.6556 H   0  0  0  0  0  0  0  0  0  0  0  0
   -1.3498   -2.2206    0.5184 C   0  0  0  0  0  0  0  0  0  0  0  0
   -0.4997   -2.9426    1.0194 O   0  0  0  0  0  0  0  0  0  0  0  0
   -1.1198   -0.9926    0.0674 N   0  0  0  0  0  0  0  0  0  0  0  0
   -1.8978   -0.4486   -0.2716 H   0  0  0  0  0  0  0  0  0  0  0  0
    0.1693   -0.2866    0.0854 C   0  0  1  0  0  0  0  0  0  0  0  0
    0.9043   -0.8713   -0.4705 H   0  0  0  0  0  0  0  0  0  0  0  0
    0.0106    1.0816   -0.6124 C   0  0  0  0  0  0  0  0  0  0  0  0
   -0.0490    0.9203   -1.6902 H   0  0  0  0  0  0  0  0  0  0  0  0
   -0.9303    1.5336   -0.2909 H   0  0  0  0  0  0  0  0  0  0  0  0
    1.1608    2.0670   -0.3529 C   0  0  0  0  0  0  0  0  0  0  0  0
    2.3391    1.6458   -0.4291 O   0  5  0  0  0  0  0  0  0  0  0  0
    0.8471    3.2405   -0.0587 O   0  0  0  0  0  0  0  0  0  0  0  0
    0.6664   -0.1450    1.5428 C   0  0  0  0  0  0  0  0  0  0  0  0
    1.8485   -0.3724    1.8265 O   0  0  0  0  0  0  0  0  0  0  0  0
   -0.2161    0.2434    2.4686 N   0  0  0  0  0  0  0  0  0  0  0  0
   -1.1850    0.3219    2.1537 H   0  0  0  0  0  0  0  0  0  0  0  0
    0.0735    0.4128    3.8885 C   0  0  0  0  0  0  0  0  0  0  0  0
    1.0159    0.9483    4.0105 H   0  0  0  0  0  0  0  0  0  0  0  0
   -0.7315    0.9748    4.3613 H   0  0  0  0  0  0  0  0  0  0  0  0
    0.1564   -0.5677    4.3577 H   0  0  0  0  0  0  0  0  0  0  0  0
  5  6  2  0  0  0  0
  5  7  1  0  0  0  0
  2  3  1  0  0  0  0
  2  4  1  0  0  0  0
  2  5  1  0  0  0  0
  1  2  1  0  0  0  0
 17 18  2  0  0  0  0
 17 19  1  0  0  0  0
 14 15  1  0  0  0  0
 14 16  2  0  0  0  0
 11 12  1  0  0  0  0
 11 13  1  0  0  0  0
 11 14  1  0  0  0  0
  9 10  1  0  0  0  0
  9 11  1  0  0  0  0
  9 17  1  0  0  0  0
  7  8  1  0  0  0  0
  7  9  1  0  0  0  0
 21 22  1  0  0  0  0
 21 23  1  0  0  0  0
 21 24  1  0  0  0  0
 19 20  1  0  0  0  0
 19 21  1  0  0  0  0
M  CHG  1  15  -1
M  END
$$$$
default_name
  -OEChem-02102213163D

 24 23  0     1  0  0  0  0  0999 V2000
   -2.8347   -3.7166    0.8034 H   0  0  0  0  0  0  0  0  0  0  0  0
   -2.7728   -2.7096    0.3954 C   0  0  0  0  0  0  0  0  0  0  0  0
   -3.4267   -2.0426    0.9524 H   0  0  0  0  0  0  0  0  0  0  0  0
   -3.0538   -2.7186   -0.6556 H   0  0  0  0  0  0  0  0  0  0  0  0
   -1.3498   -2.2206    0.5184 C   0  0  0  0  0  0  0  0  0  0  0  0
   -0.4997   -2.9426    1.0194 O   0  0  0  0  0  0  0  0  0  0  0  0
   -1.1198   -0.9926    0.0674 N   0  0  0  0  0  0  0  0  0  0  0  0
   -1.8978   -0.4486   -0.2716 H   0  0  0  0  0  0  0  0  0  0  0  0
    0.1693   -0.2866    0.0854 C   0  0  1  0  0  0  0  0  0  0  0  0
    0.9043   -0.8713   -0.4705 H   0  0  0  0  0  0  0  0  0  0  0  0
    0.0106    1.0816   -0.6124 C   0  0  0  0  0  0  0  0  0  0  0  0
   -0.0490    0.9203   -1.6902 H   0  0  0  0  0  0  0  0  0  0  0  0
   -0.9303    1.5336   -0.2909 H   0  0  0  0  0  0  0  0  0  0  0  0
    1.1608    2.0670   -0.3529 C   0  0  0  0  0  0  0  0  0  0  0  0
    2.3200    1.7395   -0.7002 O   0  5  0  0  0  0  0  0  0  0  0  0
    0.8698    3.1422    0.2139 O   0  0  0  0  0  0  0  0  0  0  0  0
    0.6664   -0.1450    1.5428 C   0  0  0  0  0  0  0  0  0  0  0  0
    1.8485   -0.3724    1.8265 O   0  0  0  0  0  0  0  0  0  0  0  0
   -0.2161    0.2434    2.4686 N   0  0  0  0  0  0  0  0  0  0  0  0
   -1.1850    0.3219    2.1537 H   0  0  0  0  0  0  0  0  0  0  0  0
    0.0735    0.4128    3.8885 C   0  0  0  0  0  0  0  0  0  0  0  0
    1.0159    0.9483    4.0105 H   0  0  0  0  0  0  0  0  0  0  0  0
   -0.7315    0.9748    4.3613 H   0  0  0  0  0  0  0  0  0  0  0  0
    0.1564   -0.5677    4.3577 H   0  0  0  0  0  0  0  0  0  0  0  0
  5  6  2  0  0  0  0
  5  7  1  0  0  0  0
  2  3  1  0  0  0  0
  2  4  1  0  0  0  0
  2  5  1  0  0  0  0
  1  2  1  0  0  0  0
 17 18  2  0  0  0  0
 17 19  1  0  0  0  0
 14 15  1  0  0  0  0
 14 16  2  0  0  0  0
 11 12  1  0  0  0  0
 11 13  1  0  0  0  0
 11 14  1  0  0  0  0
  9 10  1  0  0  0  0
  9 11  1  0  0  0  0
  9 17  1  0  0  0  0
  7  8  1  0  0  0  0
  7  9  1  0  0  0  0
 21 22  1  0  0  0  0
 21 23  1  0  0  0  0
 21 24  1  0  0  0  0
 19 20  1  0  0  0  0
 19 21  1  0  0  0  0
M  CHG  1  15  -1
M  END
$$$$
default_name
  -OEChem-02102213163D

 24 23  0     1  0  0  0  0  0999 V2000
   -2.8347   -3.7166    0.8034 H   0  0  0  0  0  0  0  0  0  0  0  0
   -2.7728   -2.7096    0.3954 C   0  0  0  0  0  0  0  0  0  0  0  0
   -3.4267   -2.0426    0.9524 H   0  0  0  0  0  0  0  0  0  0  0  0
   -3.0538   -2.7186   -0.6556 H   0  0  0  0  0  0  0  0  0  0  0  0
   -1.3498   -2.2206    0.5184 C   0  0  0  0  0  0  0  0  0  0  0  0
   -0.4997   -2.9426    1.0194 O   0  0  0  0  0  0  0  0  0  0  0  0
   -1.1198   -0.9926    0.0674 N   0  0  0  0  0  0  0  0  0  0  0  0
   -1.8978   -0.4486   -0.2716 H   0  0  0  0  0  0  0  0  0  0  0  0
    0.1693   -0.2866    0.0854 C   0  0  1  0  0  0  0  0  0  0  0  0
    0.9043   -0.8713   -0.4705 H   0  0  0  0  0  0  0  0  0  0  0  0
    0.0106    1.0816   -0.6124 C   0  0  0  0  0  0  0  0  0  0  0  0
   -0.0490    0.9203   -1.6902 H   0  0  0  0  0  0  0  0  0  0  0  0
   -0.9303    1.5336   -0.2909 H   0  0  0  0  0  0  0  0  0  0  0  0
    1.1608    2.0670   -0.3529 C   0  0  0  0  0  0  0  0  0  0  0  0
    2.2525    1.8817   -0.9407 O   0  5  0  0  0  0  0  0  0  0  0  0
    0.9412    2.9955    0.4545 O   0  0  0  0  0  0  0  0  0  0  0  0
    0.6664   -0.1450    1.5428 C   0  0  0  0  0  0  0  0  0  0  0  0
    1.8485   -0.3724    1.8265 O   0  0  0  0  0  0  0  0  0  0  0  0
   -0.2161    0.2434    2.4686 N   0  0  0  0  0  0  0  0  0  0  0  0
   -1.1850    0.3219    2.1537 H   0  0  0  0  0  0  0  0  0  0  0  0
    0.0735    0.4128    3.8885 C   0  0  0  0  0  0  0  0  0  0  0  0
    1.0159    0.9483    4.0105 H   0  0  0  0  0  0  0  0  0  0  0  0
   -0.7315    0.9748    4.3613 H   0  0  0  0  0  0  0  0  0  0  0  0
    0.1564   -0.5677    4.3577 H   0  0  0  0  0  0  0  0  0  0  0  0
  5  6  2  0  0  0  0
  5  7  1  0  0  0  0
  2  3  1  0  0  0  0
  2  4  1  0  0  0  0
  2  5  1  0  0  0  0
  1  2  1  0  0  0  0
 17 18  2  0  0  0  0
 17 19  1  0  0  0  0
 14 15  1  0  0  0  0
 14 16  2  0  0  0  0
 11 12  1  0  0  0  0
 11 13  1  0  0  0  0
 11 14  1  0  0  0  0
  9 10  1  0  0  0  0
  9 11  1  0  0  0  0
  9 17  1  0  0  0  0
  7  8  1  0  0  0  0
  7  9  1  0  0  0  0
 21 22  1  0  0  0  0
 21 23  1  0  0  0  0
 21 24  1  0  0  0  0
 19 20  1  0  0  0  0
 19 21  1  0  0  0  0
M  CHG  1  15  -1
M  END
$$$$
default_name
  -OEChem-02102213163D

 24 23  0     1  0  0  0  0  0999 V2000
   -2.8347   -3.7166    0.8034 H   0  0  0  0  0  0  0  0  0  0  0  0
   -2.7728   -2.7096    0.3954 C   0  0  0  0  0  0  0  0  0  0  0  0
   -3.4267   -2.0426    0.9524 H   0  0  0  0  0  0  0  0  0  0  0  0
   -3.0538   -2.7186   -0.6556 H   0  0  0  0  0  0  0  0  0  0  0  0
   -1.3498   -2.2206    0.5184 C   0  0  0  0  0  0  0  0  0  0  0  0
   -0.4997   -2.9426    1.0194 O   0  0  0  0  0  0  0  0  0  0  0  0
   -1.1198   -0.9926    0.0674 N   0  0  0  0  0  0  0  0  0  0  0  0
   -1.8978   -0.4486   -0.2716 H   0  0  0  0  0  0  0  0  0  0  0  0
    0.1693   -0.2866    0.0854 C   0  0  1  0  0  0  0  0  0  0  0  0
    0.9043   -0.8713   -0.4705 H   0  0  0  0  0  0  0  0  0  0  0  0
    0.0106    1.0816   -0.6124 C   0  0  0  0  0  0  0  0  0  0  0  0
   -0.0490    0.9203   -1.6902 H   0  0  0  0  0  0  0  0  0  0  0  0
   -0.9303    1.5336   -0.2909 H   0  0  0  0  0  0  0  0  0  0  0  0
    1.1608    2.0670   -0.3529 C   0  0  0  0  0  0  0  0  0  0  0  0
    2.1411    2.0627   -1.1343 O   0  5  0  0  0  0  0  0  0  0  0  0
    1.0566    2.8102    0.6466 O   0  0  0  0  0  0  0  0  0  0  0  0
    0.6664   -0.1450    1.5428 C   0  0  0  0  0  0  0  0  0  0  0  0
    1.8485   -0.3724    1.8265 O   0  0  0  0  0  0  0  0  0  0  0  0
   -0.2161    0.2434    2.4686 N   0  0  0  0  0  0  0  0  0  0  0  0
   -1.1850    0.3219    2.1537 H   0  0  0  0  0  0  0  0  0  0  0  0
    0.0735    0.4128    3.8885 C   0  0  0  0  0  0  0  0  0  0  0  0
    1.0159    0.9483    4.0105 H   0  0  0  0  0  0  0  0  0  0  0  0
   -0.7315    0.9748    4.3613 H   0  0  0  0  0  0  0  0  0  0  0  0
    0.1564   -0.5677    4.3577 H   0  0  0  0  0  0  0  0  0  0  0  0
  5  6  2  0  0  0  0
  5  7  1  0  0  0  0
  2  3  1  0  0  0  0
  2  4  1  0  0  0  0
  2  5  1  0  0  0  0
  1  2  1  0  0  0  0
 17 18  2  0  0  0  0
 17 19  1  0  0  0  0
 14 15  1  0  0  0  0
 14 16  2  0  0  0  0
 11 12  1  0  0  0  0
 11 13  1  0  0  0  0
 11 14  1  0  0  0  0
  9 10  1  0  0  0  0
  9 11  1  0  0  0  0
  9 17  1  0  0  0  0
  7  8  1  0  0  0  0
  7  9  1  0  0  0  0
 21 22  1  0  0  0  0
 21 23  1  0  0  0  0
 21 24  1  0  0  0  0
 19 20  1  0  0  0  0
 19 21  1  0  0  0  0
M  CHG  1  15  -1
M  END
$$$$
default_name
  -OEChem-02102213163D

 24 23  0     1  0  0  0  0  0999 V2000
   -2.8347   -3.7166    0.8034 H   0  0  0  0  0  0  0  0  0  0  0  0
   -2.7728   -2.7096    0.3954 C   0  0  0  0  0  0  0  0  0  0  0  0
   -3.4267   -2.0426    0.9524 H   0  0  0  0  0  0  0  0  0  0  0  0
   -3.0538   -2.7186   -0.6556 H   0  0  0  0  0  0  0  0  0  0  0  0
   -1.3498   -2.2206    0.5184 C   0  0  0  0  0  0  0  0  0  0  0  0
   -0.4997   -2.9426    1.0194 O   0  0  0  0  0  0  0  0  0  0  0  0
   -1.1198   -0.9926    0.0674 N   0  0  0  0  0  0  0  0  0  0  0  0
   -1.8978   -0.4486   -0.2716 H   0  0  0  0  0  0  0  0  0  0  0  0
    0.1693   -0.2866    0.0854 C   0  0  1  0  0  0  0  0  0  0  0  0
    0.9043   -0.8713   -0.4705 H   0  0  0  0  0  0  0  0  0  0  0  0
    0.0106    1.0816   -0.6124 C   0  0  0  0  0  0  0  0  0  0  0  0
   -0.0490    0.9203   -1.6902 H   0  0  0  0  0  0  0  0  0  0  0  0
   -0.9303    1.5336   -0.2909 H   0  0  0  0  0  0  0  0  0  0  0  0
    1.1608    2.0670   -0.3529 C   0  0  0  0  0  0  0  0  0  0  0  0
    1.9935    2.2702   -1.2678 O   0  5  0  0  0  0  0  0  0  0  0  0
    1.2080    2.5991    0.7771 O   0  0  0  0  0  0  0  0  0  0  0  0
    0.6664   -0.1450    1.5428 C   0  0  0  0  0  0  0  0  0  0  0  0
    1.8485   -0.3724    1.8265 O   0  0  0  0  0  0  0  0  0  0  0  0
   -0.2161    0.2434    2.4686 N   0  0  0  0  0  0  0  0  0  0  0  0
   -1.1850    0.3219    2.1537 H   0  0  0  0  0  0  0  0  0  0  0  0
    0.0735    0.4128    3.8885 C   0  0  0  0  0  0  0  0  0  0  0  0
    1.0159    0.9483    4.0105 H   0  0  0  0  0  0  0  0  0  0  0  0
   -0.7315    0.9748    4.3613 H   0  0  0  0  0  0  0  0  0  0  0  0
    0.1564   -0.5677    4.3577 H   0  0  0  0  0  0  0  0  0  0  0  0
  5  6  2  0  0  0  0
  5  7  1  0  0  0  0
  2  3  1  0  0  0  0
  2  4  1  0  0  0  0
  2  5  1  0  0  0  0
  1  2  1  0  0  0  0
 17 18  2  0  0  0  0
 17 19  1  0  0  0  0
 14 15  1  0  0  0  0
 14 16  2  0  0  0  0
 11 12  1  0  0  0  0
 11 13  1  0  0  0  0
 11 14  1  0  0  0  0
  9 10  1  0  0  0  0
  9 11  1  0  0  0  0
  9 17  1  0  0  0  0
  7  8  1  0  0  0  0
  7  9  1  0  0  0  0
 21 22  1  0  0  0  0
 21 23  1  0  0  0  0
 21 24  1  0  0  0  0
 19 20  1  0  0  0  0
 19 21  1  0  0  0  0
M  CHG  1  15  -1
M  END
$$$$
default_name
  -OEChem-02102213163D

 24 23  0     1  0  0  0  0  0999 V2000
   -2.8347   -3.7166    0.8034 H   0  0  0  0  0  0  0  0  0  0  0  0
   -2.7728   -2.7096    0.3954 C   0  0  0  0  0  0  0  0  0  0  0  0
   -3.4267   -2.0426    0.9524 H   0  0  0  0  0  0  0  0  0  0  0  0
   -3.0538   -2.7186   -0.6556 H   0  0  0  0  0  0  0  0  0  0  0  0
   -1.3498   -2.2206    0.5184 C   0  0  0  0  0  0  0  0  0  0  0  0
   -0.4997   -2.9426    1.0194 O   0  0  0  0  0  0  0  0  0  0  0  0
   -1.1198   -0.9926    0.0674 N   0  0  0  0  0  0  0  0  0  0  0  0
   -1.8978   -0.4486   -0.2716 H   0  0  0  0  0  0  0  0  0  0  0  0
    0.1693   -0.2866    0.0854 C   0  0  1  0  0  0  0  0  0  0  0  0
    0.9043   -0.8713   -0.4705 H   0  0  0  0  0  0  0  0  0  0  0  0
    0.0106    1.0816   -0.6124 C   0  0  0  0  0  0  0  0  0  0  0  0
   -0.0490    0.9203   -1.6902 H   0  0  0  0  0  0  0  0  0  0  0  0
   -0.9303    1.5336   -0.2909 H   0  0  0  0  0  0  0  0  0  0  0  0
    1.1608    2.0670   -0.3529 C   0  0  0  0  0  0  0  0  0  0  0  0
    1.8197    2.4900   -1.3320 O   0  5  0  0  0  0  0  0  0  0  0  0
    1.3851    2.3765    0.8371 O   0  0  0  0  0  0  0  0  0  0  0  0
    0.6664   -0.1450    1.5428 C   0  0  0  0  0  0  0  0  0  0  0  0
    1.8485   -0.3724    1.8265 O   0  0  0  0  0  0  0  0  0  0  0  0
   -0.2161    0.2434    2.4686 N   0  0  0  0  0  0  0  0  0  0  0  0
   -1.1850    0.3219    2.1537 H   0  0  0  0  0  0  0  0  0  0  0  0
    0.0735    0.4128    3.8885 C   0  0  0  0  0  0  0  0  0  0  0  0
    1.0159    0.9483    4.0105 H   0  0  0  0  0  0  0  0  0  0  0  0
   -0.7315    0.9748    4.3613 H   0  0  0  0  0  0  0  0  0  0  0  0
    0.1564   -0.5677    4.3577 H   0  0  0  0  0  0  0  0  0  0  0  0
  5  6  2  0  0  0  0
  5  7  1  0  0  0  0
  2  3  1  0  0  0  0
  2  4  1  0  0  0  0
  2  5  1  0  0  0  0
  1  2  1  0  0  0  0
 17 18  2  0  0  0  0
 17 19  1  0  0  0  0
 14 15  1  0  0  0  0
 14 16  2  0  0  0  0
 11 12  1  0  0  0  0
 11 13  1  0  0  0  0
 11 14  1  0  0  0  0
  9 10  1  0  0  0  0
  9 11  1  0  0  0  0
  9 17  1  0  0  0  0
  7  8  1  0  0  0  0
  7  9  1  0  0  0  0
 21 22  1  0  0  0  0
 21 23  1  0  0  0  0
 21 24  1  0  0  0  0
 19 20  1  0  0  0  0
 19 21  1  0  0  0  0
M  CHG  1  15  -1
M  END
$$$$
default_name
  -OEChem-02102213163D

 24 23  0     1  0  0  0  0  0999 V2000
   -2.8347   -3.7166    0.8034 H   0  0  0  0  0  0  0  0  0  0  0  0
   -2.7728   -2.7096    0.3954 C   0  0  0  0  0  0  0  0  0  0  0  0
   -3.4267   -2.0426    0.9524 H   0  0  0  0  0  0  0  0  0  0  0  0
   -3.0538   -2.7186   -0.6556 H   0  0  0  0  0  0  0  0  0  0  0  0
   -1.3498   -2.2206    0.5184 C   0  0  0  0  0  0  0  0  0  0  0  0
   -0.4997   -2.9426    1.0194 O   0  0  0  0  0  0  0  0  0  0  0  0
   -1.1198   -0.9926    0.0674 N   0  0  0  0  0  0  0  0  0  0  0  0
   -1.8978   -0.4486   -0.2716 H   0  0  0  0  0  0  0  0  0  0  0  0
    0.1693   -0.2866    0.0854 C   0  0  1  0  0  0  0  0  0  0  0  0
    0.9043   -0.8713   -0.4705 H   0  0  0  0  0  0  0  0  0  0  0  0
    0.0106    1.0816   -0.6124 C   0  0  0  0  0  0  0  0  0  0  0  0
   -0.0490    0.9203   -1.6902 H   0  0  0  0  0  0  0  0  0  0  0  0
   -0.9303    1.5336   -0.2909 H   0  0  0  0  0  0  0  0  0  0  0  0
    1.1608    2.0670   -0.3529 C   0  0  0  0  0  0  0  0  0  0  0  0
    1.6315    2.7071   -1.3226 O   0  5  0  0  0  0  0  0  0  0  0  0
    1.5759    2.1576    0.8225 O   0  0  0  0  0  0  0  0  0  0  0  0
    0.6664   -0.1450    1.5428 C   0  0  0  0  0  0  0  0  0  0  0  0
    1.8485   -0.3724    1.8265 O   0  0  0  0  0  0  0  0  0  0  0  0
   -0.2161    0.2434    2.4686 N   0  0  0  0  0  0  0  0  0  0  0  0
   -1.1850    0.3219    2.1537 H   0  0  0  0  0  0  0  0  0  0  0  0
    0.0735    0.4128    3.8885 C   0  0  0  0  0  0  0  0  0  0  0  0
    1.0159    0.9483    4.0105 H   0  0  0  0  0  0  0  0  0  0  0  0
   -0.7315    0.9748    4.3613 H   0  0  0  0  0  0  0  0  0  0  0  0
    0.1564   -0.5677    4.3577 H   0  0  0  0  0  0  0  0  0  0  0  0
  5  6  2  0  0  0  0
  5  7  1  0  0  0  0
  2  3  1  0  0  0  0
  2  4  1  0  0  0  0
  2  5  1  0  0  0  0
  1  2  1  0  0  0  0
 17 18  2  0  0  0  0
 17 19  1  0  0  0  0
 14 15  1  0  0  0  0
 14 16  2  0  0  0  0
 11 12  1  0  0  0  0
 11 13  1  0  0  0  0
 11 14  1  0  0  0  0
  9 10  1  0  0  0  0
  9 11  1  0  0  0  0
  9 17  1  0  0  0  0
  7  8  1  0  0  0  0
  7  9  1  0  0  0  0
 21 22  1  0  0  0  0
 21 23  1  0  0  0  0
 21 24  1  0  0  0  0
 19 20  1  0  0  0  0
 19 21  1  0  0  0  0
M  CHG  1  15  -1
M  END
$$$$
default_name
  -OEChem-02102213163D

 24 23  0     1  0  0  0  0  0999 V2000
   -2.8347   -3.7166    0.8034 H   0  0  0  0  0  0  0  0  0  0  0  0
   -2.7728   -2.7096    0.3954 C   0  0  0  0  0  0  0  0  0  0  0  0
   -3.4267   -2.0426    0.9524 H   0  0  0  0  0  0  0  0  0  0  0  0
   -3.0538   -2.7186   -0.6556 H   0  0  0  0  0  0  0  0  0  0  0  0
   -1.3498   -2.2206    0.5184 C   0  0  0  0  0  0  0  0  0  0  0  0
   -0.4997   -2.9426    1.0194 O   0  0  0  0  0  0  0  0  0  0  0  0
   -1.1198   -0.9926    0.0674 N   0  0  0  0  0  0  0  0  0  0  0  0
   -1.8978   -0.4486   -0.2716 H   0  0  0  0  0  0  0  0  0  0  0  0
    0.1693   -0.2866    0.0854 C   0  0  1  0  0  0  0  0  0  0  0  0
    0.9043   -0.8713   -0.4705 H   0  0  0  0  0  0  0  0  0  0  0  0
    0.0106    1.0816   -0.6124 C   0  0  0  0  0  0  0  0  0  0  0  0
   -0.0490    0.9203   -1.6902 H   0  0  0  0  0  0  0  0  0  0  0  0
   -0.9303    1.5336   -0.2909 H   0  0  0  0  0  0  0  0  0  0  0  0
    1.1608    2.0670   -0.3529 C   0  0  0  0  0  0  0  0  0  0  0  0
    1.4419    2.9069   -1.2402 O   0  5  0  0  0  0  0  0  0  0  0  0
    1.7674    1.9573    0.7344 O   0  0  0  0  0  0  0  0  0  0  0  0
    0.6664   -0.1450    1.5428 C   0  0  0  0  0  0  0  0  0  0  0  0
    1.8485   -0.3724    1.8265 O   0  0  0  0  0  0  0  0  0  0  0  0
   -0.2161    0.2434    2.4686 N   0  0  0  0  0  0  0  0  0  0  0  0
   -1.1850    0.3219    2.1537 H   0  0  0  0  0  0  0  0  0  0  0  0
    0.0735    0.4128    3.8885 C   0  0  0  0  0  0  0  0  0  0  0  0
    1.0159    0.9483    4.0105 H   0  0  0  0  0  0  0  0  0  0  0  0
   -0.7315    0.9748    4.3613 H   0  0  0  0  0  0  0  0  0  0  0  0
    0.1564   -0.5677    4.3577 H   0  0  0  0  0  0  0  0  0  0  0  0
  5  6  2  0  0  0  0
  5  7  1  0  0  0  0
  2  3  1  0  0  0  0
  2  4  1  0  0  0  0
  2  5  1  0  0  0  0
  1  2  1  0  0  0  0
 17 18  2  0  0  0  0
 17 19  1  0  0  0  0
 14 15  1  0  0  0  0
 14 16  2  0  0  0  0
 11 12  1  0  0  0  0
 11 13  1  0  0  0  0
 11 14  1  0  0  0  0
  9 10  1  0  0  0  0
  9 11  1  0  0  0  0
  9 17  1  0  0  0  0
  7  8  1  0  0  0  0
  7  9  1  0  0  0  0
 21 22  1  0  0  0  0
 21 23  1  0  0  0  0
 21 24  1  0  0  0  0
 19 20  1  0  0  0  0
 19 21  1  0  0  0  0
M  CHG  1  15  -1
M  END
$$$$
default_name
  -OEChem-02102213163D

 24 23  0     1  0  0  0  0  0999 V2000
   -2.8347   -3.7166    0.8034 H   0  0  0  0  0  0  0  0  0  0  0  0
   -2.7728   -2.7096    0.3954 C   0  0  0  0  0  0  0  0  0  0  0  0
   -3.4267   -2.0426    0.9524 H   0  0  0  0  0  0  0  0  0  0  0  0
   -3.0538   -2.7186   -0.6556 H   0  0  0  0  0  0  0  0  0  0  0  0
   -1.3498   -2.2206    0.5184 C   0  0  0  0  0  0  0  0  0  0  0  0
   -0.4997   -2.9426    1.0194 O   0  0  0  0  0  0  0  0  0  0  0  0
   -1.1198   -0.9926    0.0674 N   0  0  0  0  0  0  0  0  0  0  0  0
   -1.8978   -0.4486   -0.2716 H   0  0  0  0  0  0  0  0  0  0  0  0
    0.1693   -0.2866    0.0854 C   0  0  1  0  0  0  0  0  0  0  0  0
    0.9043   -0.8713   -0.4705 H   0  0  0  0  0  0  0  0  0  0  0  0
    0.0106    1.0816   -0.6124 C   0  0  0  0  0  0  0  0  0  0  0  0
   -0.0490    0.9203   -1.6902 H   0  0  0  0  0  0  0  0  0  0  0  0
   -0.9303    1.5336   -0.2909 H   0  0  0  0  0  0  0  0  0  0  0  0
    1.1608    2.0670   -0.3529 C   0  0  0  0  0  0  0  0  0  0  0  0
    1.2636    3.0755   -1.0905 O   0  5  0  0  0  0  0  0  0  0  0  0
    1.9464    1.7893    0.5787 O   0  0  0  0  0  0  0  0  0  0  0  0
    0.6664   -0.1450    1.5428 C   0  0  0  0  0  0  0  0  0  0  0  0
    1.8485   -0.3724    1.8265 O   0  0  0  0  0  0  0  0  0  0  0  0
   -0.2161    0.2434    2.4686 N   0  0  0  0  0  0  0  0  0  0  0  0
   -1.1850    0.3219    2.1537 H   0  0  0  0  0  0  0  0  0  0  0  0
    0.0735    0.4128    3.8885 C   0  0  0  0  0  0  0  0  0  0  0  0
    1.0159    0.9483    4.0105 H   0  0  0  0  0  0  0  0  0  0  0  0
   -0.7315    0.9748    4.3613 H   0  0  0  0  0  0  0  0  0  0  0  0
    0.1564   -0.5677    4.3577 H   0  0  0  0  0  0  0  0  0  0  0  0
  5  6  2  0  0  0  0
  5  7  1  0  0  0  0
  2  3  1  0  0  0  0
  2  4  1  0  0  0  0
  2  5  1  0  0  0  0
  1  2  1  0  0  0  0
 17 18  2  0  0  0  0
 17 19  1  0  0  0  0
 14 15  1  0  0  0  0
 14 16  2  0  0  0  0
 11 12  1  0  0  0  0
 11 13  1  0  0  0  0
 11 14  1  0  0  0  0
  9 10  1  0  0  0  0
  9 11  1  0  0  0  0
  9 17  1  0  0  0  0
  7  8  1  0  0  0  0
  7  9  1  0  0  0  0
 21 22  1  0  0  0  0
 21 23  1  0  0  0  0
 21 24  1  0  0  0  0
 19 20  1  0  0  0  0
 19 21  1  0  0  0  0
M  CHG  1  15  -1
M  END
$$$$
