default_name
  -OEChem-02102213163D

 24 23  0     1  0  0  0  0  0999 V2000
   -2.8347   -3.7166    0.8034 H   0  0  0  0  0  0  0  0  0  0  0  0
   -2.7728   -2.7096    0.3954 C   0  0  0  0  0  0  0  0  0  0  0  0
   -3.4267   -2.0426    0.9524 H   0  0  0  0  0  0  0  0  0  0  0  0
   -3.0538   -2.7186   -0.6556 H   0  0  0  0  0  0  0  0  0  0  0  0
   -1.3498   -2.2206    0.5184 C   0  0  0  0  0  0  0  0  0  0  0  0
   -0.4997   -2.9426    1.0194 O   0  0  0  0  0  0  0  0  0  0  0  0
   -1.1198   -0.9926    0.0674 N   0  0  0  0  0  0  0  0  0  0  0  0
   -1.8978   -0.4486   -0.2716 H   0  0  0  0  0  0  0  0  0  0  0  0
    0.1693   -0.2866    0.0854 C   0  0  1  0  0  0  0  0  0  0  0  0
    0.8425   -0.7905    0.7811 H   0  0  0  0  0  0  0  0  0  0  0  0
    0.7993   -0.3404   -1.3233 C   0  0  0  0  0  0  0  0  0  0  0  0
    0.9450   -1.3854   -1.6022 H   0  0  0  0  0  0  0  0  0  0  0  0
    0.1012    0.1008   -2.0381 H   0  0  0  0  0  0  0  0  0  0  0  0
    2.1590    0.3659   -1.4410 C   0  0  0  0  0  0  0  0  0  0  0  0
    2.7386    0.3683   -2.5527 O   0  5  0  0  0  0  0  0  0  0  0  0
    2.6201    0.8859   -0.4022 O   0  0  0  0  0  0  0  0  0  0  0  0
   -0.0374    1.1645    0.5781 C   0  0  0  0  0  0  0  0  0  0  0  0
   -0.9816    1.8416    0.1544 O   0  0  0  0  0  0  0  0  0  0  0  0
    0.8235    1.6462    1.4801 N   0  0  0  0  0  0  0  0  0  0  0  0
    1.6183    1.0435    1.7020 H   0  0  0  0  0  0  0  0  0  0  0  0
    0.7895    2.9929    2.0404 C   0  0  0  0  0  0  0  0  0  0  0  0
   -0.2344    3.2522    2.3130 H   0  0  0  0  0  0  0  0  0  0  0  0
    1.4265    3.0377    2.9233 H   0  0  0  0  0  0  0  0  0  0  0  0
    1.1511    3.7014    1.2950 H   0  0  0  0  0  0  0  0  0  0  0  0
  5  6  2  0  0  0  0
  5  7  1  0  0  0  0
  2  3  1  0  0  0  0
  2  4  1  0  0  0  0
  2  5  1  0  0  0  0
  1  2  1  0  0  0  0
 17 18  2  0  0  0  0
 17 19  1  0  0  0  0
 14 15  1  0  0  0  0
 14 16  2  0  0  0  0
 11 12  1  0  0  0  0
 11 13  1  0  0  0  0
 11 14  1  0  0  0  0
  9 10  1  0  0  0  0
  9 11  1  0  0  0  0
  9 17  1  0  0  0  0
  7  8  1  0  0  0  0
  7  9  1  0  0  0  0
 21 22  1  0  0  0  0
 21 23  1  0  0  0  0
 21 24  1  0  0  0  0
 19 20  1  0  0  0  0
 19 21  1  0  0  0  0
M  CHG  1  15  -1
M  END
$$$$
default_name
  -OEChem-02102213163D

 24 23  0     1  0  0  0  0  0999 V2000
   -2.8347   -3.7166    0.8034 H   0  0  0  0  0  0  0  0  0  0  0  0
   -2.7728   -2.7096    0.3954 C   0  0  0  0  0  0  0  0  0  0  0  0
   -3.4267   -2.0426    0.9524 H   0  0  0  0  0  0  0  0  0  0  0  0
   -3.0538   -2.7186   -0.6556 H   0  0  0  0  0  0  0  0  0  0  0  0
   -1.3498   -2.2206    0.5184 C   0  0  0  0  0  0  0  0  0  0  0  0
   -0.4997   -2.9426    1.0194 O   0  0  0  0  0  0  0  0  0  0  0  0
   -1.1198   -0.9926    0.0674 N   0  0  0  0  0  0  0  0  0  0  0  0
   -1.8978   -0.4486   -0.2716 H   0  0  0  0  0  0  0  0  0  0  0  0
    0.1693   -0.2866    0.0854 C   0  0  1  0  0  0  0  0  0  0  0  0
    0.8425   -0.7905    0.7811 H   0  0  0  0  0  0  0  0  0  0  0  0
    0.7993   -0.3404   -1.3233 C   0  0  0  0  0  0  0  0  0  0  0  0
    0.9450   -1.3854   -1.6022 H   0  0  0  0  0  0  0  0  0  0  0  0
    0.1012    0.1008   -2.0381 H   0  0  0  0  0  0  0  0  0  0  0  0
    2.1590    0.3659   -1.4410 C   0  0  0  0  0  0  0  0  0  0  0  0
    2.6047    0.6206   -2.5847 O   0  5  0  0  0  0  0  0  0  0  0  0
    2.7553    0.6300   -0.3748 O   0  0  0  0  0  0  0  0  0  0  0  0
   -0.0374    1.1645    0.5781 C   0  0  0  0  0  0  0  0  0  0  0  0
   -0.9816    1.8416    0.1544 O   0  0  0  0  0  0  0  0  0  0  0  0
    0.8235    1.6462    1.4801 N   0  0  0  0  0  0  0  0  0  0  0  0
    1.6183    1.0435    1.7020 H   0  0  0  0  0  0  0  0  0  0  0  0
    0.7895    2.9929    2.0404 C   0  0  0  0  0  0  0  0  0  0  0  0
   -0.2344    3.2522    2.3130 H   0  0  0  0  0  0  0  0  0  0  0  0
    1.4265    3.0377    2.9233 H   0  0  0  0  0  0  0  0  0  0  0  0
    1.1511    3.7014    1.2950 H   0  0  0  0  0  0  0  0  0  0  0  0
  5  6  2  0  0  0  0
  5  7  1  0  0  0  0
  2  3  1  0  0  0  0
  2  4  1  0  0  0  0
  2  5  1  0  0  0  0
  1  2  1  0  0  0  0
 17 18  2  0  0  0  0
 17 19  1  0  0  0  0
 14 15  1  0  0  0  0
 14 16  2  0  0  0  0
 11 12  1  0  0  0  0
 11 13  1  0  0  0  0
 11 14  1  0  0  0  0
  9 10  1  0  0  0  0
  9 11  1  0  0  0  0
  9 17  1  0  0  0  0
  7  8  1  0  0  0  0
  7  9  1  0  0  0  0
 21 22  1  0  0  0  0
 21 23  1  0  0  0  0
 21 24  1  0  0  0  0
 19 20  1  0  0  0  0
 19 21  1  0  0  0  0
M  CHG  1  15  -1
M  END
$$$$
default_name
  -OEChem-02102213163D

 24 23  0     1  0  0  0  0  0999 V2000
   -2.8347   -3.7166    0.8034 H   0  0  0  0  0  0  0  0  0  0  0  0
   -2.7728   -2.7096    0.3954 C   0  0  0  0  0  0  0  0  0  0  0  0
   -3.4267   -2.0426    0.9524 H   0  0  0  0  0  0  0  0  0  0  0  0
   -3.0538   -2.7186   -0.6556 H   0  0  0  0  0  0  0  0  0  0  0  0
   -1.3498   -2.2206    0.5184 C   0  0  0  0  0  0  0  0  0  0  0  0
   -0.4997   -2.9426    1.0194 O   0  0  0  0  0  0  0  0  0  0  0  0
   -1.1198   -0.9926    0.0674 N   0  0  0  0  0  0  0  0  0  0  0  0
   -1.8978   -0.4486   -0.2716 H   0  0  0  0  0  0  0  0  0  0  0  0
    0.1693   -0.2866    0.0854 C   0  0  1  0  0  0  0  0  0  0  0  0
    0.8425   -0.7905    0.7811 H   0  0  0  0  0  0  0  0  0  0  0  0
    0.7993   -0.3404   -1.3233 C   0  0  0  0  0  0  0  0  0  0  0  0
    0.9450   -1.3854   -1.6022 H   0  0  0  0  0  0  0  0  0  0  0  0
    0.1012    0.1008   -2.0381 H   0  0  0  0  0  0  0  0  0  0  0  0
    2.1590    0.3659   -1.4410 C   0  0  0  0  0  0  0  0  0  0  0  0
    2.4766    0.8744   -2.5420 O   0  5  0  0  0  0  0  0  0  0  0  0
    2.8842    0.3739   -0.4231 O   0  0  0  0  0  0  0  0  0  0  0  0
   -0.0374    1.1645    0.5781 C   0  0  0  0  0  0  0  0  0  0  0  0
   -0.9816    1.8416    0.1544 O   0  0  0  0  0  0  0  0  0  0  0  0
    0.8235    1.6462    1.4801 N   0  0  0  0  0  0  0  0  0  0  0  0
    1.6183    1.0435    1.7020 H   0  0  0  0  0  0  0  0  0  0  0  0
    0.7895    2.9929    2.0404 C   0  0  0  0  0  0  0  0  0  0  0  0
   -0.2344    3.2522    2.3130 H   0  0  0  0  0  0  0  0  0  0  0  0
    1.4265    3.0377    2.9233 H   0  0  0  0  0  0  0  0  0  0  0  0
    1.1511    3.7014    1.2950 H   0  0  0  0  0  0  0  0  0  0  0  0
  5  6  2  0  0  0  0
  5  7  1  0  0  0  0
  2  3  1  0  0  0  0
  2  4  1  0  0  0  0
  2  5  1  0  0  0  0
  1  2  1  0  0  0  0
 17 18  2  0  0  0  0
 17 19  1  0  0  0  0
 14 15  1  0  0  0  0
 14 16  2  0  0  0  0
 11 12  1  0  0  0  0
 11 13  1  0  0  0  0
 11 14  1  0  0  0  0
  9 10  1  0  0  0  0
  9 11  1  0  0  0  0
  9 17  1  0  0  0  0
  7  8  1  0  0  0  0
  7  9  1  0  0  0  0
 21 22  1  0  0  0  0
 21 23  1  0  0  0  0
 21 24  1  0  0  0  0
 19 20  1  0  0  0  0
 19 21  1  0  0  0  0
M  CHG  1  15  -1
M  END
$$$$
default_name
  -OEChem-02102213163D

 24 23  0     1  0  0  0  0  0999 V2000
   -2.8347   -3.7166    0.8034 H   0  0  0  0  0  0  0  0  0  0  0  0
   -2.7728   -2.7096    0.3954 C   0  0  0  0  0  0  0  0  0  0  0  0
   -3.4267   -2.0426    0.9524 H   0  0  0  0  0  0  0  0  0  0  0  0
   -3.0538   -2.7186   -0.6556 H   0  0  0  0  0  0  0  0  0  0  0  0
   -1.3498   -2.2206    0.5184 C   0  0  0  0  0  0  0  0  0  0  0  0
   -0.4997   -2.9426    1.0194 O   0  0  0  0  0  0  0  0  0  0  0  0
   -1.1198   -0.9926    0.0674 N   0  0  0  0  0  0  0  0  0  0  0  0
   -1.8978   -0.4486   -0.2716 H   0  0  0  0  0  0  0  0  0  0  0  0
    0.1693   -0.2866    0.0854 C   0  0  1  0  0  0  0  0  0  0  0  0
    0.8425   -0.7905    0.7811 H   0  0  0  0  0  0  0  0  0  0  0  0
    0.7993   -0.3404   -1.3233 C   0  0  0  0  0  0  0  0  0  0  0  0
    0.9450   -1.3854   -1.6022 H   0  0  0  0  0  0  0  0  0  0  0  0
    0.1012    0.1008   -2.0381 H   0  0  0  0  0  0  0  0  0  0  0  0
    2.1590    0.3659   -1.4410 C   0  0  0  0  0  0  0  0  0  0  0  0
    2.3630    1.1123   -2.4274 O   0  5  0  0  0  0  0  0  0  0  0  0
    2.9978    0.1350   -0.5436 O   0  0  0  0  0  0  0  0  0  0  0  0
   -0.0374    1.1645    0.5781 C   0  0  0  0  0  0  0  0  0  0  0  0
   -0.9816    1.8416    0.1544 O   0  0  0  0  0  0  0  0  0  0  0  0
    0.8235    1.6462    1.4801 N   0  0  0  0  0  0  0  0  0  0  0  0
    1.6183    1.0435    1.7020 H   0  0  0  0  0  0  0  0  0  0  0  0
    0.7895    2.9929    2.0404 C   0  0  0  0  0  0  0  0  0  0  0  0
   -0.2344    3.2522    2.3130 H   0  0  0  0  0  0  0  0  0  0  0  0
    1.4265    3.0377    2.9233 H   0  0  0  0  0  0  0  0  0  0  0  0
    1.1511    3.7014    1.2950 H   0  0  0  0  0  0  0  0  0  0  0  0
  5  6  2  0  0  0  0
  5  7  1  0  0  0  0
  2  3  1  0  0  0  0
  2  4  1  0  0  0  0
  2  5  1  0  0  0  0
  1  2  1  0  0  0  0
 17 18  2  0  0  0  0
 17 19  1  0  0  0  0
 14 15  1  0  0  0  0
 14 16  2  0  0  0  0
 11 12  1  0  0  0  0
 11 13  1  0  0  0  0
 11 14  1  0  0  0  0
  9 10  1  0  0  0  0
  9 11  1  0  0  0  0
  9 17  1  0  0  0  0
  7  8  1  0  0  0  0
  7  9  1  0  0  0  0
 21 22  1  0  0  0  0
 21 23  1  0  0  0  0
 21 24  1  0  0  0  0
 19 20  1  0  0  0  0
 19 21  1  0  0  0  0
M  CHG  1  15  -1
M  END
$$$$
default_name
  -OEChem-02102213163D

 24 23  0     1  0  0  0  0  0999 V2000
   -2.8347   -3.7166    0.8034 H   0  0  0  0  0  0  0  0  0  0  0  0
   -2.7728   -2.7096    0.3954 C   0  0  0  0  0  0  0  0  0  0  0  0
   -3.4267   -2.0426    0.9524 H   0  0  0  0  0  0  0  0  0  0  0  0
   -3.0538   -2.7186   -0.6556 H   0  0  0  0  0  0  0  0  0  0  0  0
   -1.3498   -2.2206    0.5184 C   0  0  0  0  0  0  0  0  0  0  0  0
   -0.4997   -2.9426    1.0194 O   0  0  0  0  0  0  0  0  0  0  0  0
   -1.1198   -0.9926    0.0674 N   0  0  0  0  0  0  0  0  0  0  0  0
   -1.8978   -0.4486   -0.2716 H   0  0  0  0  0  0  0  0  0  0  0  0
    0.1693   -0.2866    0.0854 C   0  0  1  0  0  0  0  0  0  0  0  0
    0.8425   -0.7905    0.7811 H   0  0  0  0  0  0  0  0  0  0  0  0
    0.7993   -0.3404   -1.3233 C   0  0  0  0  0  0  0  0  0  0  0  0
    0.9450   -1.3854   -1.6022 H   0  0  0  0  0  0  0  0  0  0  0  0
    0.1012    0.1008   -2.0381 H   0  0  0  0  0  0  0  0  0  0  0  0
    2.1590    0.3659   -1.4410 C   0  0  0  0  0  0  0  0  0  0  0  0
    2.2715    1.3181   -2.2486 O   0  5  0  0  0  0  0  0  0  0  0  0
    3.0885   -0.0704   -0.7284 O   0  0  0  0  0  0  0  0  0  0  0  0
   -0.0374    1.1645    0.5781 C   0  0  0  0  0  0  0  0  0  0  0  0
   -0.9816    1.8416    0.1544 O   0  0  0  0  0  0  0  0  0  0  0  0
    0.8235    1.6462    1.4801 N   0  0  0  0  0  0  0  0  0  0  0  0
    1.6183    1.0435    1.7020 H   0  0  0  0  0  0  0  0  0  0  0  0
    0.7895    2.9929    2.0404 C   0  0  0  0  0  0  0  0  0  0  0  0
   -0.2344    3.2522    2.3130 H   0  0  0  0  0  0  0  0  0  0  0  0
    1.4265    3.0377    2.9233 H   0  0  0  0  0  0  0  0  0  0  0  0
    1.1511    3.7014    1.2950 H   0  0  0  0  0  0  0  0  0  0  0  0
  5  6  2  0  0  0  0
  5  7  1  0  0  0  0
  2  3  1  0  0  0  0
  2  4  1  0  0  0  0
  2  5  1  0  0  0  0
  1  2  1  0  0  0  0
 17 18  2  0  0  0  0
 17 19  1  0  0  0  0
 14 15  1  0  0  0  0
 14 16  2  0  0  0  0
 11 12  1  0  0  0  0
 11 13  1  0  0  0  0
 11 14  1  0  0  0  0
  9 10  1  0  0  0  0
  9 11  1  0  0  0  0
  9 17  1  0  0  0  0
  7  8  1  0  0  0  0
  7  9  1  0  0  0  0
 21 22  1  0  0  0  0
 21 23  1  0  0  0  0
 21 24  1  0  0  0  0
 19 20  1  0  0  0  0
 19 21  1  0  0  0  0
M  CHG  1  15  -1
M  END
$$$$
default_name
  -OEChem-02102213163D

 24 23  0     1  0  0  0  0  0999 V2000
   -2.8347   -3.7166    0.8034 H   0  0  0  0  0  0  0  0  0  0  0  0
   -2.7728   -2.7096    0.3954 C   0  0  0  0  0  0  0  0  0  0  0  0
   -3.4267   -2.0426    0.9524 H   0  0  0  0  0  0  0  0  0  0  0  0
   -3.0538   -2.7186   -0.6556 H   0  0  0  0  0  0  0  0  0  0  0  0
   -1.3498   -2.2206    0.5184 C   0  0  0  0  0  0  0  0  0  0  0  0
   -0.4997   -2.9426    1.0194 O   0  0  0  0  0  0  0  0  0  0  0  0
   -1.1198   -0.9926    0.0674 N   0  0  0  0  0  0  0  0  0  0  0  0
   -1.8978   -0.4486   -0.2716 H   0  0  0  0  0  0  0  0  0  0  0  0
    0.1693   -0.2866    0.0854 C   0  0  1  0  0  0  0  0  0  0  0  0
    0.8425   -0.7905    0.7811 H   0  0  0  0  0  0  0  0  0  0  0  0
    0.7993   -0.3404   -1.3233 C   0  0  0  0  0  0  0  0  0  0  0  0
    0.9450   -1.3854   -1.6022 H   0  0  0  0  0  0  0  0  0  0  0  0
    0.1012    0.1008   -2.0381 H   0  0  0  0  0  0  0  0  0  0  0  0
    2.1590    0.3659   -1.4410 C   0  0  0  0  0  0  0  0  0  0  0  0
    2.2086    1.4778   -2.0180 O   0  5  0  0  0  0  0  0  0  0  0  0
    3.1501   -0.2283   -0.9646 O   0  0  0  0  0  0  0  0  0  0  0  0
   -0.0374    1.1645    0.5781 C   0  0  0  0  0  0  0  0  0  0  0  0
   -0.9816    1.8416    0.1544 O   0  0  0  0  0  0  0  0  0  0  0  0
    0.8235    1.6462    1.4801 N   0  0  0  0  0  0  0  0  0  0  0  0
    1.6183    1.0435    1.7020 H   0  0  0  0  0  0  0  0  0  0  0  0
    0.7895    2.9929    2.0404 C   0  0  0  0  0  0  0  0  0  0  0  0
   -0.2344    3.2522    2.3130 H   0  0  0  0  0  0  0  0  0  0  0  0
    1.4265    3.0377    2.9233 H   0  0  0  0  0  0  0  0  0  0  0  0
    1.1511    3.7014    1.2950 H   0  0  0  0  0  0  0  0  0  0  0  0
  5  6  2  0  0  0  0
  5  7  1  0  0  0  0
  2  3  1  0  0  0  0
  2  4  1  0  0  0  0
  2  5  1  0  0  0  0
  1  2  1  0  0  0  0
 17 18  2  0  0  0  0
 17 19  1  0  0  0  0
 14 15  1  0  0  0  0
 14 16  2  0  0  0  0
 11 12  1  0  0  0  0
 11 13  1  0  0  0  0
 11 14  1  0  0  0  0
  9 10  1  0  0  0  0
  9 11  1  0  0  0  0
  9 17  1  0  0  0  0
  7  8  1  0  0  0  0
  7  9  1  0  0  0  0
 21 22  1  0  0  0  0
 21 23  1  0  0  0  0
 21 24  1  0  0  0  0
 19 20  1  0  0  0  0
 19 21  1  0  0  0  0
M  CHG  1  15  -1
M  END
$$$$
default_name
  -OEChem-02102213163D

 24 23  0     1  0  0  0  0  0999 V2000
   -2.8347   -3.7166    0.8034 H   0  0  0  0  0  0  0  0  0  0  0  0
   -2.7728   -2.7096    0.3954 C   0  0  0  0  0  0  0  0  0  0  0  0
   -3.4267   -2.0426    0.9524 H   0  0  0  0  0  0  0  0  0  0  0  0
   -3.0538   -2.7186   -0.6556 H   0  0  0  0  0  0  0  0  0  0  0  0
   -1.3498   -2.2206    0.5184 C   0  0  0  0  0  0  0  0  0  0  0  0
   -0.4997   -2.9426    1.0194 O   0  0  0  0  0  0  0  0  0  0  0  0
   -1.1198   -0.9926    0.0674 N   0  0  0  0  0  0  0  0  0  0  0  0
   -1.8978   -0.4486   -0.2716 H   0  0  0  0  0  0  0  0  0  0  0  0
    0.1693   -0.2866    0.0854 C   0  0  1  0  0  0  0  0  0  0  0  0
    0.8425   -0.7905    0.7811 H   0  0  0  0  0  0  0  0  0  0  0  0
    0.7993   -0.3404   -1.3233 C   0  0  0  0  0  0  0  0  0  0  0  0
    0.9450   -1.3854   -1.6022 H   0  0  0  0  0  0  0  0  0  0  0  0
    0.1012    0.1008   -2.0381 H   0  0  0  0  0  0  0  0  0  0  0  0
    2.1590    0.3659   -1.4410 C   0  0  0  0  0  0  0  0  0  0  0  0
    2.1784    1.5804   -1.7512 O   0  5  0  0  0  0  0  0  0  0  0  0
    3.1783   -0.3279   -1.2363 O   0  0  0  0  0  0  0  0  0  0  0  0
   -0.0374    1.1645    0.5781 C   0  0  0  0  0  0  0  0  0  0  0  0
   -0.9816    1.8416    0.1544 O   0  0  0  0  0  0  0  0  0  0  0  0
    0.8235    1.6462    1.4801 N   0  0  0  0  0  0  0  0  0  0  0  0
    1.6183    1.0435    1.7020 H   0  0  0  0  0  0  0  0  0  0  0  0
    0.7895    2.9929    2.0404 C   0  0  0  0  0  0  0  0  0  0  0  0
   -0.2344    3.2522    2.3130 H   0  0  0  0  0  0  0  0  0  0  0  0
    1.4265    3.0377    2.9233 H   0  0  0  0  0  0  0  0  0  0  0  0
    1.1511    3.7014    1.2950 H   0  0  0  0  0  0  0  0  0  0  0  0
  5  6  2  0  0  0  0
  5  7  1  0  0  0  0
  2  3  1  0  0  0  0
  2  4  1  0  0  0  0
  2  5  1  0  0  0  0
  1  2  1  0  0  0  0
 17 18  2  0  0  0  0
 17 19  1  0  0  0  0
 14 15  1  0  0  0  0
 14 16  2  0  0  0  0
 11 12  1  0  0  0  0
 11 13  1  0  0  0  0
 11 14  1  0  0  0  0
  9 10  1  0  0  0  0
  9 11  1  0  0  0  0
  9 17  1  0  0  0  0
  7  8  1  0  0  0  0
  7  9  1  0  0  0  0
 21 22  1  0  0  0  0
 21 23  1  0  0  0  0
 21 24  1  0  0  0  0
 19 20  1  0  0  0  0
 19 21  1  0  0  0  0
M  CHG  1  15  -1
M  END
$$$$
default_name
  -OEChem-02102213163D

 24 23  0     1  0  0  0  0  0999 V2000
   -2.8347   -3.7166    0.8034 H   0  0  0  0  0  0  0  0  0  0  0  0
   -2.7728   -2.7096    0.3954 C   0  0  0  0  0  0  0  0  0  0  0  0
   -3.4267   -2.0426    0.9524 H   0  0  0  0  0  0  0  0  0  0  0  0
   -3.0538   -2.7186   -0.6556 H   0  0  0  0  0  0  0  0  0  0  0  0
   -1.3498   -2.2206    0.5184 C   0  0  0  0  0  0  0  0  0  0  0  0
   -0.4997   -2.9426    1.0194 O   0  0  0  0  0  0  0  0  0  0  0  0
   -1.1198   -0.9926    0.0674 N   0  0  0  0  0  0  0  0  0  0  0  0
   -1.8978   -0.4486   -0.2716 H   0  0  0  0  0  0  0  0  0  0  0  0
    0.1693   -0.2866    0.0854 C   0  0  1  0  0  0  0  0  0  0  0  0
    0.8425   -0.7905    0.7811 H   0  0  0  0  0  0  0  0  0  0  0  0
    0.7993   -0.3404   -1.3233 C   0  0  0  0  0  0  0  0  0  0  0  0
    0.9450   -1.3854   -1.6022 H   0  0  0  0  0  0  0  0  0  0  0  0
    0.1012    0.1008   -2.0381 H   0  0  0  0  0  0  0  0  0  0  0  0
    2.1590    0.3659   -1.4410 C   0  0  0  0  0  0  0  0  0  0  0  0
    2.1830    1.6191   -1.4663 O   0  5  0  0  0  0  0  0  0  0  0  0
    3.1713   -0.3625   -1.5248 O   0  0  0  0  0  0  0  0  0  0  0  0
   -0.0374    1.1645    0.5781 C   0  0  0  0  0  0  0  0  0  0  0  0
   -0.9816    1.8416    0.1544 O   0  0  0  0  0  0  0  0  0  0  0  0
    0.8235    1.6462    1.4801 N   0  0  0  0  0  0  0  0  0  0  0  0
    1.6183    1.0435    1.7020 H   0  0  0  0  0  0  0  0  0  0  0  0
    0.7895    2.9929    2.0404 C   0  0  0  0  0  0  0  0  0  0  0  0
   -0.2344    3.2522    2.3130 H   0  0  0  0  0  0  0  0  0  0  0  0
    1.4265    3.0377    2.9233 H   0  0  0  0  0  0  0  0  0  0  0  0
    1.1511    3.7014    1.2950 H   0  0  0  0  0  0  0  0  0  0  0  0
  5  6  2  0  0  0  0
  5  7  1  0  0  0  0
  2  3  1  0  0  0  0
  2  4  1  0  0  0  0
  2  5  1  0  0  0  0
  1  2  1  0  0  0  0
 17 18  2  0  0  0  0
 17 19  1  0  0  0  0
 14 15  1  0  0  0  0
 14 16  2  0  0  0  0
 11 12  1  0  0  0  0
 11 13  1  0  0  0  0
 11 14  1  0  0  0  0
  9 10  1  0  0  0  0
  9 11  1  0  0  0  0
  9 17  1  0  0  0  0
  7  8  1  0  0  0  0
  7  9  1  0  0  0  0
 21 22  1  0  0  0  0
 21 23  1  0  0  0  0
 21 24  1  0  0  0  0
 19 20  1  0  0  0  0
 19 21  1  0  0  0  0
M  CHG  1  15  -1
M  END
$$$$
default_name
  -OEChem-02102213163D

 24 23  0     1  0  0  0  0  0999 V2000
   -2.8347   -3.7166    0.8034 H   0  0  0  0  0  0  0  0  0  0  0  0
   -2.7728   -2.7096    0.3954 C   0  0  0  0  0  0  0  0  0  0  0  0
   -3.4267   -2.0426    0.9524 H   0  0  0  0  0  0  0  0  0  0  0  0
   -3.0538   -2.7186   -0.6556 H   0  0  0  0  0  0  0  0  0  0  0  0
   -1.3498   -2.2206    0.5184 C   0  0  0  0  0  0  0  0  0  0  0  0
   -0.4997   -2.9426    1.0194 O   0  0  0  0  0  0  0  0  0  0  0  0
   -1.1198   -0.9926    0.0674 N   0  0  0  0  0  0  0  0  0  0  0  0
   -1.8978   -0.4486   -0.2716 H   0  0  0  0  0  0  0  0  0  0  0  0
    0.1693   -0.2866    0.0854 C   0  0  1  0  0  0  0  0  0  0  0  0
    0.8425   -0.7905    0.7811 H   0  0  0  0  0  0  0  0  0  0  0  0
    0.7993   -0.3404   -1.3233 C   0  0  0  0  0  0  0  0  0  0  0  0
    0.9450   -1.3854   -1.6022 H   0  0  0  0  0  0  0  0  0  0  0  0
    0.1012    0.1008   -2.0381 H   0  0  0  0  0  0  0  0  0  0  0  0
    2.1590    0.3659   -1.4410 C   0  0  0  0  0  0  0  0  0  0  0  0
    2.2220    1.5911   -1.1829 O   0  5  0  0  0  0  0  0  0  0  0  0
    3.1295   -0.3296   -1.8107 O   0  0  0  0  0  0  0  0  0  0  0  0
   -0.0374    1.1645    0.5781 C   0  0  0  0  0  0  0  0  0  0  0  0
   -0.9816    1.8416    0.1544 O   0  0  0  0  0  0  0  0  0  0  0  0
    0.8235    1.6462    1.4801 N   0  0  0  0  0  0  0  0  0  0  0  0
    1.6183    1.0435    1.7020 H   0  0  0  0  0  0  0  0  0  0  0  0
    0.7895    2.9929    2.0404 C   0  0  0  0  0  0  0  0  0  0  0  0
   -0.2344    3.2522    2.3130 H   0  0  0  0  0  0  0  0  0  0  0  0
    1.4265    3.0377    2.9233 H   0  0  0  0  0  0  0  0  0  0  0  0
    1.1511    3.7014    1.2950 H   0  0  0  0  0  0  0  0  0  0  0  0
  5  6  2  0  0  0  0
  5  7  1  0  0  0  0
  2  3  1  0  0  0  0
  2  4  1  0  0  0  0
  2  5  1  0  0  0  0
  1  2  1  0  0  0  0
 17 18  2  0  0  0  0
 17 19  1  0  0  0  0
 14 15  1  0  0  0  0
 14 16  2  0  0  0  0
 11 12  1  0  0  0  0
 11 13  1  0  0  0  0
 11 14  1  0  0  0  0
  9 10  1  0  0  0  0
  9 11  1  0  0  0  0
  9 17  1  0  0  0  0
  7  8  1  0  0  0  0
  7  9  1  0  0  0  0
 21 22  1  0  0  0  0
 21 23  1  0  0  0  0
 21 24  1  0  0  0  0
 19 20  1  0  0  0  0
 19 21  1  0  0  0  0
M  CHG  1  15  -1
M  END
$$$$
default_name
  -OEChem-02102213163D

 24 23  0     1  0  0  0  0  0999 V2000
   -2.8347   -3.7166    0.8034 H   0  0  0  0  0  0  0  0  0  0  0  0
   -2.7728   -2.7096    0.3954 C   0  0  0  0  0  0  0  0  0  0  0  0
   -3.4267   -2.0426    0.9524 H   0  0  0  0  0  0  0  0  0  0  0  0
   -3.0538   -2.7186   -0.6556 H   0  0  0  0  0  0  0  0  0  0  0  0
   -1.3498   -2.2206    0.5184 C   0  0  0  0  0  0  0  0  0  0  0  0
   -0.4997   -2.9426    1.0194 O   0  0  0  0  0  0  0  0  0  0  0  0
   -1.1198   -0.9926    0.0674 N   0  0  0  0  0  0  0  0  0  0  0  0
   -1.8978   -0.4486   -0.2716 H   0  0  0  0  0  0  0  0  0  0  0  0
    0.1693   -0.2866    0.0854 C   0  0  1  0  0  0  0  0  0  0  0  0
    0.8425   -0.7905    0.7811 H   0  0  0  0  0  0  0  0  0  0  0  0
    0.7993   -0.3404   -1.3233 C   0  0  0  0  0  0  0  0  0  0  0  0
    0.9450   -1.3854   -1.6022 H   0  0  0  0  0  0  0  0  0  0  0  0
    0.1012    0.1008   -2.0381 H   0  0  0  0  0  0  0  0  0  0  0  0
    2.1590    0.3659   -1.4410 C   0  0  0  0  0  0  0  0  0  0  0  0
    2.2930    1.4983   -0.9202 O   0  5  0  0  0  0  0  0  0  0  0  0
    3.0557   -0.2316   -2.0743 O   0  0  0  0  0  0  0  0  0  0  0  0
   -0.0374    1.1645    0.5781 C   0  0  0  0  0  0  0  0  0  0  0  0
   -0.9816    1.8416    0.1544 O   0  0  0  0  0  0  0  0  0  0  0  0
    0.8235    1.6462    1.4801 N   0  0  0  0  0  0  0  0  0  0  0  0
    1.6183    1.0435    1.7020 H   0  0  0  0  0  0  0  0  0  0  0  0
    0.7895    2.9929    2.0404 C   0  0  0  0  0  0  0  0  0  0  0  0
   -0.2344    3.2522    2.3130 H   0  0  0  0  0  0  0  0  0  0  0  0
    1.4265    3.0377    2.9233 H   0  0  0  0  0  0  0  0  0  0  0  0
    1.1511    3.7014    1.2950 H   0  0  0  0  0  0  0  0  0  0  0  0
  5  6  2  0  0  0  0
  5  7  1  0  0  0  0
  2  3  1  0  0  0  0
  2  4  1  0  0  0  0
  2  5  1  0  0  0  0
  1  2  1  0  0  0  0
 17 18  2  0  0  0  0
 17 19  1  0  0  0  0
 14 15  1  0  0  0  0
 14 16  2  0  0  0  0
 11 12  1  0  0  0  0
 11 13  1  0  0  0  0
 11 14  1  0  0  0  0
  9 10  1  0  0  0  0
  9 11  1  0  0  0  0
  9 17  1  0  0  0  0
  7  8  1  0  0  0  0
  7  9  1  0  0  0  0
 21 22  1  0  0  0  0
 21 23  1  0  0  0  0
 21 24  1  0  0  0  0
 19 20  1  0  0  0  0
 19 21  1  0  0  0  0
M  CHG  1  15  -1
M  END
$$$$
default_name
  -OEChem-02102213163D

 24 23  0     1  0  0  0  0  0999 V2000
   -2.8347   -3.7166    0.8034 H   0  0  0  0  0  0  0  0  0  0  0  0
   -2.7728   -2.7096    0.3954 C   0  0  0  0  0  0  0  0  0  0  0  0
   -3.4267   -2.0426    0.9524 H   0  0  0  0  0  0  0  0  0  0  0  0
   -3.0538   -2.7186   -0.6556 H   0  0  0  0  0  0  0  0  0  0  0  0
   -1.3498   -2.2206    0.5184 C   0  0  0  0  0  0  0  0  0  0  0  0
   -0.4997   -2.9426    1.0194 O   0  0  0  0  0  0  0  0  0  0  0  0
   -1.1198   -0.9926    0.0674 N   0  0  0  0  0  0  0  0  0  0  0  0
   -1.8978   -0.4486   -0.2716 H   0  0  0  0  0  0  0  0  0  0  0  0
    0.1693   -0.2866    0.0854 C   0  0  1  0  0  0  0  0  0  0  0  0
    0.8425   -0.7905    0.7811 H   0  0  0  0  0  0  0  0  0  0  0  0
    0.7993   -0.3404   -1.3233 C   0  0  0  0  0  0  0  0  0  0  0  0
    0.9450   -1.3854   -1.6022 H   0  0  0  0  0  0  0  0  0  0  0  0
    0.1012    0.1008   -2.0381 H   0  0  0  0  0  0  0  0  0  0  0  0
    2.1590    0.3659   -1.4410 C   0  0  0  0  0  0  0  0  0  0  0  0
    2.3909    1.3472   -0.6961 O   0  5  0  0  0  0  0  0  0  0  0  0
    2.9551   -0.0752   -2.2977 O   0  0  0  0  0  0  0  0  0  0  0  0
   -0.0374    1.1645    0.5781 C   0  0  0  0  0  0  0  0  0  0  0  0
   -0.9816    1.8416    0.1544 O   0  0  0  0  0  0  0  0  0  0  0  0
    0.8235    1.6462    1.4801 N   0  0  0  0  0  0  0  0  0  0  0  0
    1.6183    1.0435    1.7020 H   0  0  0  0  0  0  0  0  0  0  0  0
    0.7895    2.9929    2.0404 C   0  0  0  0  0  0  0  0  0  0  0  0
   -0.2344    3.2522    2.3130 H   0  0  0  0  0  0  0  0  0  0  0  0
    1.4265    3.0377    2.9233 H   0  0  0  0  0  0  0  0  0  0  0  0
    1.1511    3.7014    1.2950 H   0  0  0  0  0  0  0  0  0  0  0  0
  5  6  2  0  0  0  0
  5  7  1  0  0  0  0
  2  3  1  0  0  0  0
  2  4  1  0  0  0  0
  2  5  1  0  0  0  0
  1  2  1  0  0  0  0
 17 18  2  0  0  0  0
 17 19  1  0  0  0  0
 14 15  1  0  0  0  0
 14 16  2  0  0  0  0
 11 12  1  0  0  0  0
 11 13  1  0  0  0  0
 11 14  1  0  0  0  0
  9 10  1  0  0  0  0
  9 11  1  0  0  0  0
  9 17  1  0  0  0  0
  7  8  1  0  0  0  0
  7  9  1  0  0  0  0
 21 22  1  0  0  0  0
 21 23  1  0  0  0  0
 21 24  1  0  0  0  0
 19 20  1  0  0  0  0
 19 21  1  0  0  0  0
M  CHG  1  15  -1
M  END
$$$$
default_name
  -OEChem-02102213163D

 24 23  0     1  0  0  0  0  0999 V2000
   -2.8347   -3.7166    0.8034 H   0  0  0  0  0  0  0  0  0  0  0  0
   -2.7728   -2.7096    0.3954 C   0  0  0  0  0  0  0  0  0  0  0  0
   -3.4267   -2.0426    0.9524 H   0  0  0  0  0  0  0  0  0  0  0  0
   -3.0538   -2.7186   -0.6556 H   0  0  0  0  0  0  0  0  0  0  0  0
   -1.3498   -2.2206    0.5184 C   0  0  0  0  0  0  0  0  0  0  0  0
   -0.4997   -2.9426    1.0194 O   0  0  0  0  0  0  0  0  0  0  0  0
   -1.1198   -0.9926    0.0674 N   0  0  0  0  0  0  0  0  0  0  0  0
   -1.8978   -0.4486   -0.2716 H   0  0  0  0  0  0  0  0  0  0  0  0
    0.1693   -0.2866    0.0854 C   0  0  1  0  0  0  0  0  0  0  0  0
    0.8425   -0.7905    0.7811 H   0  0  0  0  0  0  0  0  0  0  0  0
    0.7993   -0.3404   -1.3233 C   0  0  0  0  0  0  0  0  0  0  0  0
    0.9450   -1.3854   -1.6022 H   0  0  0  0  0  0  0  0  0  0  0  0
    0.1012    0.1008   -2.0381 H   0  0  0  0  0  0  0  0  0  0  0  0
    2.1590    0.3659   -1.4410 C   0  0  0  0  0  0  0  0  0  0  0  0
    2.5091    1.1480   -0.5259 O   0  5  0  0  0  0  0  0  0  0  0  0
    2.8344    0.1292   -2.4657 O   0  0  0  0  0  0  0  0  0  0  0  0
   -0.0374    1.1645    0.5781 C   0  0  0  0  0  0  0  0  0  0  0  0
   -0.9816    1.8416    0.1544 O   0  0  0  0  0  0  0  0  0  0  0  0
    0.8235    1.6462    1.4801 N   0  0  0  0  0  0  0  0  0  0  0  0
    1.6183    1.0435    1.7020 H   0  0  0  0  0  0  0  0  0  0  0  0
    0.7895    2.9929    2.0404 C   0  0  0  0  0  0  0  0  0  0  0  0
   -0.2344    3.2522    2.3130 H   0  0  0  0  0  0  0  0  0  0  0  0
    1.4265    3.0377    2.9233 H   0  0  0  0  0  0  0  0  0  0  0  0
    1.1511    3.7014    1.2950 H   0  0  0  0  0  0  0  0  0  0  0  0
  5  6  2  0  0  0  0
  5  7  1  0  0  0  0
  2  3  1  0  0  0  0
  2  4  1  0  0  0  0
  2  5  1  0  0  0  0
  1  2  1  0  0  0  0
 17 18  2  0  0  0  0
 17 19  1  0  0  0  0
 14 15  1  0  0  0  0
 14 16  2  0  0  0  0
 11 12  1  0  0  0  0
 11 13  1  0  0  0  0
 11 14  1  0  0  0  0
  9 10  1  0  0  0  0
  9 11  1  0  0  0  0
  9 17  1  0  0  0  0
  7  8  1  0  0  0  0
  7  9  1  0  0  0  0
 21 22  1  0  0  0  0
 21 23  1  0  0  0  0
 21 24  1  0  0  0  0
 19 20  1  0  0  0  0
 19 21  1  0  0  0  0
M  CHG  1  15  -1
M  END
$$$$
default_name
  -OEChem-02102213163D

 24 23  0     1  0  0  0  0  0999 V2000
   -2.8347   -3.7166    0.8034 H   0  0  0  0  0  0  0  0  0  0  0  0
   -2.7728   -2.7096    0.3954 C   0  0  0  0  0  0  0  0  0  0  0  0
   -3.4267   -2.0426    0.9524 H   0  0  0  0  0  0  0  0  0  0  0  0
   -3.0538   -2.7186   -0.6556 H   0  0  0  0  0  0  0  0  0  0  0  0
   -1.3498   -2.2206    0.5184 C   0  0  0  0  0  0  0  0  0  0  0  0
   -0.4997   -2.9426    1.0194 O   0  0  0  0  0  0  0  0  0  0  0  0
   -1.1198   -0.9926    0.0674 N   0  0  0  0  0  0  0  0  0  0  0  0
   -1.8978   -0.4486   -0.2716 H   0  0  0  0  0  0  0  0  0  0  0  0
    0.1693   -0.2866    0.0854 C   0  0  1  0  0  0  0  0  0  0  0  0
    0.8425   -0.7905    0.7811 H   0  0  0  0  0  0  0  0  0  0  0  0
    0.7993   -0.3404   -1.3233 C   0  0  0  0  0  0  0  0  0  0  0  0
    0.9450   -1.3854   -1.6022 H   0  0  0  0  0  0  0  0  0  0  0  0
    0.1012    0.1008   -2.0381 H   0  0  0  0  0  0  0  0  0  0  0  0
    2.1590    0.3659   -1.4410 C   0  0  0  0  0  0  0  0  0  0  0  0
    2.6396    0.9142   -0.4212 O   0  5  0  0  0  0  0  0  0  0  0  0
    2.7019    0.3674   -2.5668 O   0  0  0  0  0  0  0  0  0  0  0  0
   -0.0374    1.1645    0.5781 C   0  0  0  0  0  0  0  0  0  0  0  0
   -0.9816    1.8416    0.1544 O   0  0  0  0  0  0  0  0  0  0  0  0
    0.8235    1.6462    1.4801 N   0  0  0  0  0  0  0  0  0  0  0  0
    1.6183    1.0435    1.7020 H   0  0  0  0  0  0  0  0  0  0  0  0
    0.7895    2.9929    2.0404 C   0  0  0  0  0  0  0  0  0  0  0  0
   -0.2344    3.2522    2.3130 H   0  0  0  0  0  0  0  0  0  0  0  0
    1.4265    3.0377    2.9233 H   0  0  0  0  0  0  0  0  0  0  0  0
    1.1511    3.7014    1.2950 H   0  0  0  0  0  0  0  0  0  0  0  0
  5  6  2  0  0  0  0
  5  7  1  0  0  0  0
  2  3  1  0  0  0  0
  2  4  1  0  0  0  0
  2  5  1  0  0  0  0
  1  2  1  0  0  0  0
 17 18  2  0  0  0  0
 17 19  1  0  0  0  0
 14 15  1  0  0  0  0
 14 16  2  0  0  0  0
 11 12  1  0  0  0  0
 11 13  1  0  0  0  0
 11 14  1  0  0  0  0
  9 10  1  0  0  0  0
  9 11  1  0  0  0  0
  9 17  1  0  0  0  0
  7  8  1  0  0  0  0
  7  9  1  0  0  0  0
 21 22  1  0  0  0  0
 21 23  1  0  0  0  0
 21 24  1  0  0  0  0
 19 20  1  0  0  0  0
 19 21  1  0  0  0  0
M  CHG  1  15  -1
M  END
$$$$
default_name
  -OEChem-02102213163D

 24 23  0     1  0  0  0  0  0999 V2000
   -2.8347   -3.7166    0.8034 H   0  0  0  0  0  0  0  0  0  0  0  0
   -2.7728   -2.7096    0.3954 C   0  0  0  0  0  0  0  0  0  0  0  0
   -3.4267   -2.0426    0.9524 H   0  0  0  0  0  0  0  0  0  0  0  0
   -3.0538   -2.7186   -0.6556 H   0  0  0  0  0  0  0  0  0  0  0  0
   -1.3498   -2.2206    0.5184 C   0  0  0  0  0  0  0  0  0  0  0  0
   -0.4997   -2.9426    1.0194 O   0  0  0  0  0  0  0  0  0  0  0  0
   -1.1198   -0.9926    0.0674 N   0  0  0  0  0  0  0  0  0  0  0  0
   -1.8978   -0.4486   -0.2716 H   0  0  0  0  0  0  0  0  0  0  0  0
    0.1693   -0.2866    0.0854 C   0  0  1  0  0  0  0  0  0  0  0  0
    0.8425   -0.7905    0.7811 H   0  0  0  0  0  0  0  0  0  0  0  0
    0.7993   -0.3404   -1.3233 C   0  0  0  0  0  0  0  0  0  0  0  0
    0.9450   -1.3854   -1.6022 H   0  0  0  0  0  0  0  0  0  0  0  0
    0.1012    0.1008   -2.0381 H   0  0  0  0  0  0  0  0  0  0  0  0
    2.1590    0.3659   -1.4410 C   0  0  0  0  0  0  0  0  0  0  0  0
    2.7735    0.6618   -0.3891 O   0  5  0  0  0  0  0  0  0  0  0  0
    2.5667    0.6232   -2.5942 O   0  0  0  0  0  0  0  0  0  0  0  0
   -0.0374    1.1645    0.5781 C   0  0  0  0  0  0  0  0  0  0  0  0
   -0.9816    1.8416    0.1544 O   0  0  0  0  0  0  0  0  0  0  0  0
    0.8235    1.6462    1.4801 N   0  0  0  0  0  0  0  0  0  0  0  0
    1.6183    1.0435    1.7020 H   0  0  0  0  0  0  0  0  0  0  0  0
    0.7895    2.9929    2.0404 C   0  0  0  0  0  0  0  0  0  0  0  0
   -0.2344    3.2522    2.3130 H   0  0  0  0  0  0  0  0  0  0  0  0
    1.4265    3.0377    2.9233 H   0  0  0  0  0  0  0  0  0  0  0  0
    1.1511    3.7014    1.2950 H   0  0  0  0  0  0  0  0  0  0  0  0
  5  6  2  0  0  0  0
  5  7  1  0  0  0  0
  2  3  1  0  0  0  0
  2  4  1  0  0  0  0
  2  5  1  0  0  0  0
  1  2  1  0  0  0  0
 17 18  2  0  0  0  0
 17 19  1  0  0  0  0
 14 15  1  0  0  0  0
 14 16  2  0  0  0  0
 11 12  1  0  0  0  0
 11 13  1  0  0  0  0
 11 14  1  0  0  0  0
  9 10  1  0  0  0  0
  9 11  1  0  0  0  0
  9 17  1  0  0  0  0
  7  8  1  0  0  0  0
  7  9  1  0  0  0  0
 21 22  1  0  0  0  0
 21 23  1  0  0  0  0
 21 24  1  0  0  0  0
 19 20  1  0  0  0  0
 19 21  1  0  0  0  0
M  CHG  1  15  -1
M  END
$$$$
default_name
  -OEChem-02102213163D

 24 23  0     1  0  0  0  0  0999 V2000
   -2.8347   -3.7166    0.8034 H   0  0  0  0  0  0  0  0  0  0  0  0
   -2.7728   -2.7096    0.3954 C   0  0  0  0  0  0  0  0  0  0  0  0
   -3.4267   -2.0426    0.9524 H   0  0  0  0  0  0  0  0  0  0  0  0
   -3.0538   -2.7186   -0.6556 H   0  0  0  0  0  0  0  0  0  0  0  0
   -1.3498   -2.2206    0.5184 C   0  0  0  0  0  0  0  0  0  0  0  0
   -0.4997   -2.9426    1.0194 O   0  0  0  0  0  0  0  0  0  0  0  0
   -1.1198   -0.9926    0.0674 N   0  0  0  0  0  0  0  0  0  0  0  0
   -1.8978   -0.4486   -0.2716 H   0  0  0  0  0  0  0  0  0  0  0  0
    0.1693   -0.2866    0.0854 C   0  0  1  0  0  0  0  0  0  0  0  0
    0.8425   -0.7905    0.7811 H   0  0  0  0  0  0  0  0  0  0  0  0
    0.7993   -0.3404   -1.3233 C   0  0  0  0  0  0  0  0  0  0  0  0
    0.9450   -1.3854   -1.6022 H   0  0  0  0  0  0  0  0  0  0  0  0
    0.1012    0.1008   -2.0381 H   0  0  0  0  0  0  0  0  0  0  0  0
    2.1590    0.3659   -1.4410 C   0  0  0  0  0  0  0  0  0  0  0  0
    2.9016    0.4080   -0.4318 O   0  5  0  0  0  0  0  0  0  0  0  0
    2.4378    0.8794   -2.5459 O   0  0  0  0  0  0  0  0  0  0  0  0
   -0.0374    1.1645    0.5781 C   0  0  0  0  0  0  0  0  0  0  0  0
   -0.9816    1.8416    0.1544 O   0  0  0  0  0  0  0  0  0  0  0  0
    0.8235    1.6462    1.4801 N   0  0  0  0  0  0  0  0  0  0  0  0
    1.6183    1.0435    1.7020 H   0  0  0  0  0  0  0  0  0  0  0  0
    0.7895    2.9929    2.0404 C   0  0  0  0  0  0  0  0  0  0  0  0
   -0.2344    3.2522    2.3130 H   0  0  0  0  0  0  0  0  0  0  0  0
    1.4265    3.0377    2.9233 H   0  0  0  0  0  0  0  0  0  0  0  0
    1.1511    3.7014    1.2950 H   0  0  0  0  0  0  0  0  0  0  0  0
  5  6  2  0  0  0  0
  5  7  1  0  0  0  0
  2  3  1  0  0  0  0
  2  4  1  0  0  0  0
  2  5  1  0  0  0  0
  1  2  1  0  0  0  0
 17 18  2  0  0  0  0
 17 19  1  0  0  0  0
 14 15  1  0  0  0  0
 14 16  2  0  0  0  0
 11 12  1  0  0  0  0
 11 13  1  0  0  0  0
 11 14  1  0  0  0  0
  9 10  1  0  0  0  0
  9 11  1  0  0  0  0
  9 17  1  0  0  0  0
  7  8  1  0  0  0  0
  7  9  1  0  0  0  0
 21 22  1  0  0  0  0
 21 23  1  0  0  0  0
 21 24  1  0  0  0  0
 19 20  1  0  0  0  0
 19 21  1  0  0  0  0
M  CHG  1  15  -1
M  END
$$$$
default_name
  -OEChem-02102213163D

 24 23  0     1  0  0  0  0  0999 V2000
   -2.8347   -3.7166    0.8034 H   0  0  0  0  0  0  0  0  0  0  0  0
   -2.7728   -2.7096    0.3954 C   0  0  0  0  0  0  0  0  0  0  0  0
   -3.4267   -2.0426    0.9524 H   0  0  0  0  0  0  0  0  0  0  0  0
   -3.0538   -2.7186   -0.6556 H   0  0  0  0  0  0  0  0  0  0  0  0
   -1.3498   -2.2206    0.5184 C   0  0  0  0  0  0  0  0  0  0  0  0
   -0.4997   -2.9426    1.0194 O   0  0  0  0  0  0  0  0  0  0  0  0
   -1.1198   -0.9926    0.0674 N   0  0  0  0  0  0  0  0  0  0  0  0
   -1.8978   -0.4486   -0.2716 H   0  0  0  0  0  0  0  0  0  0  0  0
    0.1693   -0.2866    0.0854 C   0  0  1  0  0  0  0  0  0  0  0  0
    0.8425   -0.7905    0.7811 H   0  0  0  0  0  0  0  0  0  0  0  0
    0.7993   -0.3404   -1.3233 C   0  0  0  0  0  0  0  0  0  0  0  0
    0.9450   -1.3854   -1.6022 H   0  0  0  0  0  0  0  0  0  0  0  0
    0.1012    0.1008   -2.0381 H   0  0  0  0  0  0  0  0  0  0  0  0
    2.1590    0.3659   -1.4410 C   0  0  0  0  0  0  0  0  0  0  0  0
    3.0152    0.1701   -0.5464 O   0  5  0  0  0  0  0  0  0  0  0  0
    2.3242    1.1182   -2.4253 O   0  0  0  0  0  0  0  0  0  0  0  0
   -0.0374    1.1645    0.5781 C   0  0  0  0  0  0  0  0  0  0  0  0
   -0.9816    1.8416    0.1544 O   0  0  0  0  0  0  0  0  0  0  0  0
    0.8235    1.6462    1.4801 N   0  0  0  0  0  0  0  0  0  0  0  0
    1.6183    1.0435    1.7020 H   0  0  0  0  0  0  0  0  0  0  0  0
    0.7895    2.9929    2.0404 C   0  0  0  0  0  0  0  0  0  0  0  0
   -0.2344    3.2522    2.3130 H   0  0  0  0  0  0  0  0  0  0  0  0
    1.4265    3.0377    2.9233 H   0  0  0  0  0  0  0  0  0  0  0  0
    1.1511    3.7014    1.2950 H   0  0  0  0  0  0  0  0  0  0  0  0
  5  6  2  0  0  0  0
  5  7  1  0  0  0  0
  2  3  1  0  0  0  0
  2  4  1  0  0  0  0
  2  5  1  0  0  0  0
  1  2  1  0  0  0  0
 17 18  2  0  0  0  0
 17 19  1  0  0  0  0
 14 15  1  0  0  0  0
 14 16  2  0  0  0  0
 11 12  1  0  0  0  0
 11 13  1  0  0  0  0
 11 14  1  0  0  0  0
  9 10  1  0  0  0  0
  9 11  1  0  0  0  0
  9 17  1  0  0  0  0
  7  8  1  0  0  0  0
  7  9  1  0  0  0  0
 21 22  1  0  0  0  0
 21 23  1  0  0  0  0
 21 24  1  0  0  0  0
 19 20  1  0  0  0  0
 19 21  1  0  0  0  0
M  CHG  1  15  -1
M  END
$$$$
default_name
  -OEChem-02102213163D

 24 23  0     1  0  0  0  0  0999 V2000
   -2.8347   -3.7166    0.8034 H   0  0  0  0  0  0  0  0  0  0  0  0
   -2.7728   -2.7096    0.3954 C   0  0  0  0  0  0  0  0  0  0  0  0
   -3.4267   -2.0426    0.9524 H   0  0  0  0  0  0  0  0  0  0  0  0
   -3.0538   -2.7186   -0.6556 H   0  0  0  0  0  0  0  0  0  0  0  0
   -1.3498   -2.2206    0.5184 C   0  0  0  0  0  0  0  0  0  0  0  0
   -0.4997   -2.9426    1.0194 O   0  0  0  0  0  0  0  0  0  0  0  0
   -1.1198   -0.9926    0.0674 N   0  0  0  0  0  0  0  0  0  0  0  0
   -1.8978   -0.4486   -0.2716 H   0  0  0  0  0  0  0  0  0  0  0  0
    0.1693   -0.2866    0.0854 C   0  0  1  0  0  0  0  0  0  0  0  0
    0.8425   -0.7905    0.7811 H   0  0  0  0  0  0  0  0  0  0  0  0
    0.7993   -0.3404   -1.3233 C   0  0  0  0  0  0  0  0  0  0  0  0
    0.9450   -1.3854   -1.6022 H   0  0  0  0  0  0  0  0  0  0  0  0
    0.1012    0.1008   -2.0381 H   0  0  0  0  0  0  0  0  0  0  0  0
    2.1590    0.3659   -1.4410 C   0  0  0  0  0  0  0  0  0  0  0  0
    3.1066   -0.0357   -0.7252 O   0  5  0  0  0  0  0  0  0  0  0  0
    2.2335    1.3236   -2.2406 O   0  0  0  0  0  0  0  0  0  0  0  0
   -0.0374    1.1645    0.5781 C   0  0  0  0  0  0  0  0  0  0  0  0
   -0.9816    1.8416    0.1544 O   0  0  0  0  0  0  0  0  0  0  0  0
    0.8235    1.6462    1.4801 N   0  0  0  0  0  0  0  0  0  0  0  0
    1.6183    1.0435    1.7020 H   0  0  0  0  0  0  0  0  0  0  0  0
    0.7895    2.9929    2.0404 C   0  0  0  0  0  0  0  0  0  0  0  0
   -0.2344    3.2522    2.3130 H   0  0  0  0  0  0  0  0  0  0  0  0
    1.4265    3.0377    2.9233 H   0  0  0  0  0  0  0  0  0  0  0  0
    1.1511    3.7014    1.2950 H   0  0  0  0  0  0  0  0  0  0  0  0
  5  6  2  0  0  0  0
  5  7  1  0  0  0  0
  2  3  1  0  0  0  0
  2  4  1  0  0  0  0
  2  5  1  0  0  0  0
  1  2  1  0  0  0  0
 17 18  2  0  0  0  0
 17 19  1  0  0  0  0
 14 15  1  0  0  0  0
 14 16  2  0  0  0  0
 11 12  1  0  0  0  0
 11 13  1  0  0  0  0
 11 14  1  0  0  0  0
  9 10  1  0  0  0  0
  9 11  1  0  0  0  0
  9 17  1  0  0  0  0
  7  8  1  0  0  0  0
  7  9  1  0  0  0  0
 21 22  1  0  0  0  0
 21 23  1  0  0  0  0
 21 24  1  0  0  0  0
 19 20  1  0  0  0  0
 19 21  1  0  0  0  0
M  CHG  1  15  -1
M  END
$$$$
default_name
  -OEChem-02102213163D

 24 23  0     1  0  0  0  0  0999 V2000
   -2.8347   -3.7166    0.8034 H   0  0  0  0  0  0  0  0  0  0  0  0
   -2.7728   -2.7096    0.3954 C   0  0  0  0  0  0  0  0  0  0  0  0
   -3.4267   -2.0426    0.9524 H   0  0  0  0  0  0  0  0  0  0  0  0
   -3.0538   -2.7186   -0.6556 H   0  0  0  0  0  0  0  0  0  0  0  0
   -1.3498   -2.2206    0.5184 C   0  0  0  0  0  0  0  0  0  0  0  0
   -0.4997   -2.9426    1.0194 O   0  0  0  0  0  0  0  0  0  0  0  0
   -1.1198   -0.9926    0.0674 N   0  0  0  0  0  0  0  0  0  0  0  0
   -1.8978   -0.4486   -0.2716 H   0  0  0  0  0  0  0  0  0  0  0  0
    0.1693   -0.2866    0.0854 C   0  0  1  0  0  0  0  0  0  0  0  0
    0.8425   -0.7905    0.7811 H   0  0  0  0  0  0  0  0  0  0  0  0
    0.7993   -0.3404   -1.3233 C   0  0  0  0  0  0  0  0  0  0  0  0
    0.9450   -1.3854   -1.6022 H   0  0  0  0  0  0  0  0  0  0  0  0
    0.1012    0.1008   -2.0381 H   0  0  0  0  0  0  0  0  0  0  0  0
    2.1590    0.3659   -1.4410 C   0  0  0  0  0  0  0  0  0  0  0  0
    3.1696   -0.1953   -0.9558 O   0  5  0  0  0  0  0  0  0  0  0  0
    2.1719    1.4815   -2.0044 O   0  0  0  0  0  0  0  0  0  0  0  0
   -0.0374    1.1645    0.5781 C   0  0  0  0  0  0  0  0  0  0  0  0
   -0.9816    1.8416    0.1544 O   0  0  0  0  0  0  0  0  0  0  0  0
    0.8235    1.6462    1.4801 N   0  0  0  0  0  0  0  0  0  0  0  0
    1.6183    1.0435    1.7020 H   0  0  0  0  0  0  0  0  0  0  0  0
    0.7895    2.9929    2.0404 C   0  0  0  0  0  0  0  0  0  0  0  0
   -0.2344    3.2522    2.3130 H   0  0  0  0  0  0  0  0  0  0  0  0
    1.4265    3.0377    2.9233 H   0  0  0  0  0  0  0  0  0  0  0  0
    1.1511    3.7014    1.2950 H   0  0  0  0  0  0  0  0  0  0  0  0
  5  6  2  0  0  0  0
  5  7  1  0  0  0  0
  2  3  1  0  0  0  0
  2  4  1  0  0  0  0
  2  5  1  0  0  0  0
  1  2  1  0  0  0  0
 17 18  2  0  0  0  0
 17 19  1  0  0  0  0
 14 15  1  0  0  0  0
 14 16  2  0  0  0  0
 11 12  1  0  0  0  0
 11 13  1  0  0  0  0
 11 14  1  0  0  0  0
  9 10  1  0  0  0  0
  9 11  1  0  0  0  0
  9 17  1  0  0  0  0
  7  8  1  0  0  0  0
  7  9  1  0  0  0  0
 21 22  1  0  0  0  0
 21 23  1  0  0  0  0
 21 24  1  0  0  0  0
 19 20  1  0  0  0  0
 19 21  1  0  0  0  0
M  CHG  1  15  -1
M  END
$$$$
default_name
  -OEChem-02102213163D

 24 23  0     1  0  0  0  0  0999 V2000
   -2.8347   -3.7166    0.8034 H   0  0  0  0  0  0  0  0  0  0  0  0
   -2.7728   -2.7096    0.3954 C   0  0  0  0  0  0  0  0  0  0  0  0
   -3.4267   -2.0426    0.9524 H   0  0  0  0  0  0  0  0  0  0  0  0
   -3.0538   -2.7186   -0.6556 H   0  0  0  0  0  0  0  0  0  0  0  0
   -1.3498   -2.2206    0.5184 C   0  0  0  0  0  0  0  0  0  0  0  0
   -0.4997   -2.9426    1.0194 O   0  0  0  0  0  0  0  0  0  0  0  0
   -1.1198   -0.9926    0.0674 N   0  0  0  0  0  0  0  0  0  0  0  0
   -1.8978   -0.4486   -0.2716 H   0  0  0  0  0  0  0  0  0  0  0  0
    0.1693   -0.2866    0.0854 C   0  0  1  0  0  0  0  0  0  0  0  0
    0.8425   -0.7905    0.7811 H   0  0  0  0  0  0  0  0  0  0  0  0
    0.7993   -0.3404   -1.3233 C   0  0  0  0  0  0  0  0  0  0  0  0
    0.9450   -1.3854   -1.6022 H   0  0  0  0  0  0  0  0  0  0  0  0
    0.1012    0.1008   -2.0381 H   0  0  0  0  0  0  0  0  0  0  0  0
    2.1590    0.3659   -1.4410 C   0  0  0  0  0  0  0  0  0  0  0  0
    3.1998   -0.2980   -1.2226 O   0  5  0  0  0  0  0  0  0  0  0  0
    2.1437    1.5811   -1.7327 O   0  0  0  0  0  0  0  0  0  0  0  0
   -0.0374    1.1645    0.5781 C   0  0  0  0  0  0  0  0  0  0  0  0
   -0.9816    1.8416    0.1544 O   0  0  0  0  0  0  0  0  0  0  0  0
    0.8235    1.6462    1.4801 N   0  0  0  0  0  0  0  0  0  0  0  0
    1.6183    1.0435    1.7020 H   0  0  0  0  0  0  0  0  0  0  0  0
    0.7895    2.9929    2.0404 C   0  0  0  0  0  0  0  0  0  0  0  0
   -0.2344    3.2522    2.3130 H   0  0  0  0  0  0  0  0  0  0  0  0
    1.4265    3.0377    2.9233 H   0  0  0  0  0  0  0  0  0  0  0  0
    1.1511    3.7014    1.2950 H   0  0  0  0  0  0  0  0  0  0  0  0
  5  6  2  0  0  0  0
  5  7  1  0  0  0  0
  2  3  1  0  0  0  0
  2  4  1  0  0  0  0
  2  5  1  0  0  0  0
  1  2  1  0  0  0  0
 17 18  2  0  0  0  0
 17 19  1  0  0  0  0
 14 15  1  0  0  0  0
 14 16  2  0  0  0  0
 11 12  1  0  0  0  0
 11 13  1  0  0  0  0
 11 14  1  0  0  0  0
  9 10  1  0  0  0  0
  9 11  1  0  0  0  0
  9 17  1  0  0  0  0
  7  8  1  0  0  0  0
  7  9  1  0  0  0  0
 21 22  1  0  0  0  0
 21 23  1  0  0  0  0
 21 24  1  0  0  0  0
 19 20  1  0  0  0  0
 19 21  1  0  0  0  0
M  CHG  1  15  -1
M  END
$$$$
default_name
  -OEChem-02102213163D

 24 23  0     1  0  0  0  0  0999 V2000
   -2.8347   -3.7166    0.8034 H   0  0  0  0  0  0  0  0  0  0  0  0
   -2.7728   -2.7096    0.3954 C   0  0  0  0  0  0  0  0  0  0  0  0
   -3.4267   -2.0426    0.9524 H   0  0  0  0  0  0  0  0  0  0  0  0
   -3.0538   -2.7186   -0.6556 H   0  0  0  0  0  0  0  0  0  0  0  0
   -1.3498   -2.2206    0.5184 C   0  0  0  0  0  0  0  0  0  0  0  0
   -0.4997   -2.9426    1.0194 O   0  0  0  0  0  0  0  0  0  0  0  0
   -1.1198   -0.9926    0.0674 N   0  0  0  0  0  0  0  0  0  0  0  0
   -1.8978   -0.4486   -0.2716 H   0  0  0  0  0  0  0  0  0  0  0  0
    0.1693   -0.2866    0.0854 C   0  0  1  0  0  0  0  0  0  0  0  0
    0.8425   -0.7905    0.7811 H   0  0  0  0  0  0  0  0  0  0  0  0
    0.7993   -0.3404   -1.3233 C   0  0  0  0  0  0  0  0  0  0  0  0
    0.9450   -1.3854   -1.6022 H   0  0  0  0  0  0  0  0  0  0  0  0
    0.1012    0.1008   -2.0381 H   0  0  0  0  0  0  0  0  0  0  0  0
    2.1590    0.3659   -1.4410 C   0  0  0  0  0  0  0  0  0  0  0  0
    3.1952   -0.3366   -1.5075 O   0  5  0  0  0  0  0  0  0  0  0  0
    2.1507    1.6157   -1.4441 O   0  0  0  0  0  0  0  0  0  0  0  0
   -0.0374    1.1645    0.5781 C   0  0  0  0  0  0  0  0  0  0  0  0
   -0.9816    1.8416    0.1544 O   0  0  0  0  0  0  0  0  0  0  0  0
    0.8235    1.6462    1.4801 N   0  0  0  0  0  0  0  0  0  0  0  0
    1.6183    1.0435    1.7020 H   0  0  0  0  0  0  0  0  0  0  0  0
    0.7895    2.9929    2.0404 C   0  0  0  0  0  0  0  0  0  0  0  0
   -0.2344    3.2522    2.3130 H   0  0  0  0  0  0  0  0  0  0  0  0
    1.4265    3.0377    2.9233 H   0  0  0  0  0  0  0  0  0  0  0  0
    1.1511    3.7014    1.2950 H   0  0  0  0  0  0  0  0  0  0  0  0
  5  6  2  0  0  0  0
  5  7  1  0  0  0  0
  2  3  1  0  0  0  0
  2  4  1  0  0  0  0
  2  5  1  0  0  0  0
  1  2  1  0  0  0  0
 17 18  2  0  0  0  0
 17 19  1  0  0  0  0
 14 15  1  0  0  0  0
 14 16  2  0  0  0  0
 11 12  1  0  0  0  0
 11 13  1  0  0  0  0
 11 14  1  0  0  0  0
  9 10  1  0  0  0  0
  9 11  1  0  0  0  0
  9 17  1  0  0  0  0
  7  8  1  0  0  0  0
  7  9  1  0  0  0  0
 21 22  1  0  0  0  0
 21 23  1  0  0  0  0
 21 24  1  0  0  0  0
 19 20  1  0  0  0  0
 19 21  1  0  0  0  0
M  CHG  1  15  -1
M  END
$$$$
default_name
  -OEChem-02102213163D

 24 23  0     1  0  0  0  0  0999 V2000
   -2.8347   -3.7166    0.8034 H   0  0  0  0  0  0  0  0  0  0  0  0
   -2.7728   -2.7096    0.3954 C   0  0  0  0  0  0  0  0  0  0  0  0
   -3.4267   -2.0426    0.9524 H   0  0  0  0  0  0  0  0  0  0  0  0
   -3.0538   -2.7186   -0.6556 H   0  0  0  0  0  0  0  0  0  0  0  0
   -1.3498   -2.2206    0.5184 C   0  0  0  0  0  0  0  0  0  0  0  0
   -0.4997   -2.9426    1.0194 O   0  0  0  0  0  0  0  0  0  0  0  0
   -1.1198   -0.9926    0.0674 N   0  0  0  0  0  0  0  0  0  0  0  0
   -1.8978   -0.4486   -0.2716 H   0  0  0  0  0  0  0  0  0  0  0  0
    0.1693   -0.2866    0.0854 C   0  0  1  0  0  0  0  0  0  0  0  0
    0.8425   -0.7905    0.7811 H   0  0  0  0  0  0  0  0  0  0  0  0
    0.7993   -0.3404   -1.3233 C   0  0  0  0  0  0  0  0  0  0  0  0
    0.9450   -1.3854   -1.6022 H   0  0  0  0  0  0  0  0  0  0  0  0
    0.1012    0.1008   -2.0381 H   0  0  0  0  0  0  0  0  0  0  0  0
    2.1590    0.3659   -1.4410 C   0  0  0  0  0  0  0  0  0  0  0  0
    3.1561   -0.3086   -1.7909 O   0  5  0  0  0  0  0  0  0  0  0  0
    2.1925    1.5829   -1.1583 O   0  0  0  0  0  0  0  0  0  0  0  0
   -0.0374    1.1645    0.5781 C   0  0  0  0  0  0  0  0  0  0  0  0
   -0.9816    1.8416    0.1544 O   0  0  0  0  0  0  0  0  0  0  0  0
    0.8235    1.6462    1.4801 N   0  0  0  0  0  0  0  0  0  0  0  0
    1.6183    1.0435    1.7020 H   0  0  0  0  0  0  0  0  0  0  0  0
    0.7895    2.9929    2.0404 C   0  0  0  0  0  0  0  0  0  0  0  0
   -0.2344    3.2522    2.3130 H   0  0  0  0  0  0  0  0  0  0  0  0
    1.4265    3.0377    2.9233 H   0  0  0  0  0  0  0  0  0  0  0  0
    1.1511    3.7014    1.2950 H   0  0  0  0  0  0  0  0  0  0  0  0
  5  6  2  0  0  0  0
  5  7  1  0  0  0  0
  2  3  1  0  0  0  0
  2  4  1  0  0  0  0
  2  5  1  0  0  0  0
  1  2  1  0  0  0  0
 17 18  2  0  0  0  0
 17 19  1  0  0  0  0
 14 15  1  0  0  0  0
 14 16  2  0  0  0  0
 11 12  1  0  0  0  0
 11 13  1  0  0  0  0
 11 14  1  0  0  0  0
  9 10  1  0  0  0  0
  9 11  1  0  0  0  0
  9 17  1  0  0  0  0
  7  8  1  0  0  0  0
  7  9  1  0  0  0  0
 21 22  1  0  0  0  0
 21 23  1  0  0  0  0
 21 24  1  0  0  0  0
 19 20  1  0  0  0  0
 19 21  1  0  0  0  0
M  CHG  1  15  -1
M  END
$$$$
default_name
  -OEChem-02102213163D

 24 23  0     1  0  0  0  0  0999 V2000
   -2.8347   -3.7166    0.8034 H   0  0  0  0  0  0  0  0  0  0  0  0
   -2.7728   -2.7096    0.3954 C   0  0  0  0  0  0  0  0  0  0  0  0
   -3.4267   -2.0426    0.9524 H   0  0  0  0  0  0  0  0  0  0  0  0
   -3.0538   -2.7186   -0.6556 H   0  0  0  0  0  0  0  0  0  0  0  0
   -1.3498   -2.2206    0.5184 C   0  0  0  0  0  0  0  0  0  0  0  0
   -0.4997   -2.9426    1.0194 O   0  0  0  0  0  0  0  0  0  0  0  0
   -1.1198   -0.9926    0.0674 N   0  0  0  0  0  0  0  0  0  0  0  0
   -1.8978   -0.4486   -0.2716 H   0  0  0  0  0  0  0  0  0  0  0  0
    0.1693   -0.2866    0.0854 C   0  0  1  0  0  0  0  0  0  0  0  0
    0.8425   -0.7905    0.7811 H   0  0  0  0  0  0  0  0  0  0  0  0
    0.7993   -0.3404   -1.3233 C   0  0  0  0  0  0  0  0  0  0  0  0
    0.9450   -1.3854   -1.6022 H   0  0  0  0  0  0  0  0  0  0  0  0
    0.1012    0.1008   -2.0381 H   0  0  0  0  0  0  0  0  0  0  0  0
    2.1590    0.3659   -1.4410 C   0  0  0  0  0  0  0  0  0  0  0  0
    3.0852   -0.2159   -2.0536 O   0  5  0  0  0  0  0  0  0  0  0  0
    2.2663    1.4849   -0.8947 O   0  0  0  0  0  0  0  0  0  0  0  0
   -0.0374    1.1645    0.5781 C   0  0  0  0  0  0  0  0  0  0  0  0
   -0.9816    1.8416    0.1544 O   0  0  0  0  0  0  0  0  0  0  0  0
    0.8235    1.6462    1.4801 N   0  0  0  0  0  0  0  0  0  0  0  0
    1.6183    1.0435    1.7020 H   0  0  0  0  0  0  0  0  0  0  0  0
    0.7895    2.9929    2.0404 C   0  0  0  0  0  0  0  0  0  0  0  0
   -0.2344    3.2522    2.3130 H   0  0  0  0  0  0  0  0  0  0  0  0
    1.4265    3.0377    2.9233 H   0  0  0  0  0  0  0  0  0  0  0  0
    1.1511    3.7014    1.2950 H   0  0  0  0  0  0  0  0  0  0  0  0
  5  6  2  0  0  0  0
  5  7  1  0  0  0  0
  2  3  1  0  0  0  0
  2  4  1  0  0  0  0
  2  5  1  0  0  0  0
  1  2  1  0  0  0  0
 17 18  2  0  0  0  0
 17 19  1  0  0  0  0
 14 15  1  0  0  0  0
 14 16  2  0  0  0  0
 11 12  1  0  0  0  0
 11 13  1  0  0  0  0
 11 14  1  0  0  0  0
  9 10  1  0  0  0  0
  9 11  1  0  0  0  0
  9 17  1  0  0  0  0
  7  8  1  0  0  0  0
  7  9  1  0  0  0  0
 21 22  1  0  0  0  0
 21 23  1  0  0  0  0
 21 24  1  0  0  0  0
 19 20  1  0  0  0  0
 19 21  1  0  0  0  0
M  CHG  1  15  -1
M  END
$$$$
default_name
  -OEChem-02102213163D

 24 23  0     1  0  0  0  0  0999 V2000
   -2.8347   -3.7166    0.8034 H   0  0  0  0  0  0  0  0  0  0  0  0
   -2.7728   -2.7096    0.3954 C   0  0  0  0  0  0  0  0  0  0  0  0
   -3.4267   -2.0426    0.9524 H   0  0  0  0  0  0  0  0  0  0  0  0
   -3.0538   -2.7186   -0.6556 H   0  0  0  0  0  0  0  0  0  0  0  0
   -1.3498   -2.2206    0.5184 C   0  0  0  0  0  0  0  0  0  0  0  0
   -0.4997   -2.9426    1.0194 O   0  0  0  0  0  0  0  0  0  0  0  0
   -1.1198   -0.9926    0.0674 N   0  0  0  0  0  0  0  0  0  0  0  0
   -1.8978   -0.4486   -0.2716 H   0  0  0  0  0  0  0  0  0  0  0  0
    0.1693   -0.2866    0.0854 C   0  0  1  0  0  0  0  0  0  0  0  0
    0.8425   -0.7905    0.7811 H   0  0  0  0  0  0  0  0  0  0  0  0
    0.7993   -0.3404   -1.3233 C   0  0  0  0  0  0  0  0  0  0  0  0
    0.9450   -1.3854   -1.6022 H   0  0  0  0  0  0  0  0  0  0  0  0
    0.1012    0.1008   -2.0381 H   0  0  0  0  0  0  0  0  0  0  0  0
    2.1590    0.3659   -1.4410 C   0  0  0  0  0  0  0  0  0  0  0  0
    2.9873   -0.0648   -2.2777 O   0  5  0  0  0  0  0  0  0  0  0  0
    2.3669    1.3284   -0.6713 O   0  0  0  0  0  0  0  0  0  0  0  0
   -0.0374    1.1645    0.5781 C   0  0  0  0  0  0  0  0  0  0  0  0
   -0.9816    1.8416    0.1544 O   0  0  0  0  0  0  0  0  0  0  0  0
    0.8235    1.6462    1.4801 N   0  0  0  0  0  0  0  0  0  0  0  0
    1.6183    1.0435    1.7020 H   0  0  0  0  0  0  0  0  0  0  0  0
    0.7895    2.9929    2.0404 C   0  0  0  0  0  0  0  0  0  0  0  0
   -0.2344    3.2522    2.3130 H   0  0  0  0  0  0  0  0  0  0  0  0
    1.4265    3.0377    2.9233 H   0  0  0  0  0  0  0  0  0  0  0  0
    1.1511    3.7014    1.2950 H   0  0  0  0  0  0  0  0  0  0  0  0
  5  6  2  0  0  0  0
  5  7  1  0  0  0  0
  2  3  1  0  0  0  0
  2  4  1  0  0  0  0
  2  5  1  0  0  0  0
  1  2  1  0  0  0  0
 17 18  2  0  0  0  0
 17 19  1  0  0  0  0
 14 15  1  0  0  0  0
 14 16  2  0  0  0  0
 11 12  1  0  0  0  0
 11 13  1  0  0  0  0
 11 14  1  0  0  0  0
  9 10  1  0  0  0  0
  9 11  1  0  0  0  0
  9 17  1  0  0  0  0
  7  8  1  0  0  0  0
  7  9  1  0  0  0  0
 21 22  1  0  0  0  0
 21 23  1  0  0  0  0
 21 24  1  0  0  0  0
 19 20  1  0  0  0  0
 19 21  1  0  0  0  0
M  CHG  1  15  -1
M  END
$$$$
default_name
  -OEChem-02102213163D

 24 23  0     1  0  0  0  0  0999 V2000
   -2.8347   -3.7166    0.8034 H   0  0  0  0  0  0  0  0  0  0  0  0
   -2.7728   -2.7096    0.3954 C   0  0  0  0  0  0  0  0  0  0  0  0
   -3.4267   -2.0426    0.9524 H   0  0  0  0  0  0  0  0  0  0  0  0
   -3.0538   -2.7186   -0.6556 H   0  0  0  0  0  0  0  0  0  0  0  0
   -1.3498   -2.2206    0.5184 C   0  0  0  0  0  0  0  0  0  0  0  0
   -0.4997   -2.9426    1.0194 O   0  0  0  0  0  0  0  0  0  0  0  0
   -1.1198   -0.9926    0.0674 N   0  0  0  0  0  0  0  0  0  0  0  0
   -1.8978   -0.4486   -0.2716 H   0  0  0  0  0  0  0  0  0  0  0  0
    0.1693   -0.2866    0.0854 C   0  0  1  0  0  0  0  0  0  0  0  0
    0.8425   -0.7905    0.7811 H   0  0  0  0  0  0  0  0  0  0  0  0
    0.7993   -0.3404   -1.3233 C   0  0  0  0  0  0  0  0  0  0  0  0
    0.9450   -1.3854   -1.6022 H   0  0  0  0  0  0  0  0  0  0  0  0
    0.1012    0.1008   -2.0381 H   0  0  0  0  0  0  0  0  0  0  0  0
    2.1590    0.3659   -1.4410 C   0  0  0  0  0  0  0  0  0  0  0  0
    2.8691    0.1345   -2.4479 O   0  5  0  0  0  0  0  0  0  0  0  0
    2.4876    1.1241   -0.5033 O   0  0  0  0  0  0  0  0  0  0  0  0
   -0.0374    1.1645    0.5781 C   0  0  0  0  0  0  0  0  0  0  0  0
   -0.9816    1.8416    0.1544 O   0  0  0  0  0  0  0  0  0  0  0  0
    0.8235    1.6462    1.4801 N   0  0  0  0  0  0  0  0  0  0  0  0
    1.6183    1.0435    1.7020 H   0  0  0  0  0  0  0  0  0  0  0  0
    0.7895    2.9929    2.0404 C   0  0  0  0  0  0  0  0  0  0  0  0
   -0.2344    3.2522    2.3130 H   0  0  0  0  0  0  0  0  0  0  0  0
    1.4265    3.0377    2.9233 H   0  0  0  0  0  0  0  0  0  0  0  0
    1.1511    3.7014    1.2950 H   0  0  0  0  0  0  0  0  0  0  0  0
  5  6  2  0  0  0  0
  5  7  1  0  0  0  0
  2  3  1  0  0  0  0
  2  4  1  0  0  0  0
  2  5  1  0  0  0  0
  1  2  1  0  0  0  0
 17 18  2  0  0  0  0
 17 19  1  0  0  0  0
 14 15  1  0  0  0  0
 14 16  2  0  0  0  0
 11 12  1  0  0  0  0
 11 13  1  0  0  0  0
 11 14  1  0  0  0  0
  9 10  1  0  0  0  0
  9 11  1  0  0  0  0
  9 17  1  0  0  0  0
  7  8  1  0  0  0  0
  7  9  1  0  0  0  0
 21 22  1  0  0  0  0
 21 23  1  0  0  0  0
 21 24  1  0  0  0  0
 19 20  1  0  0  0  0
 19 21  1  0  0  0  0
M  CHG  1  15  -1
M  END
$$$$
default_name
  -OEChem-02102213163D

 24 23  0     1  0  0  0  0  0999 V2000
   -2.8347   -3.7166    0.8034 H   0  0  0  0  0  0  0  0  0  0  0  0
   -2.7728   -2.7096    0.3954 C   0  0  0  0  0  0  0  0  0  0  0  0
   -3.4267   -2.0426    0.9524 H   0  0  0  0  0  0  0  0  0  0  0  0
   -3.0538   -2.7186   -0.6556 H   0  0  0  0  0  0  0  0  0  0  0  0
   -1.3498   -2.2206    0.5184 C   0  0  0  0  0  0  0  0  0  0  0  0
   -0.4997   -2.9426    1.0194 O   0  0  0  0  0  0  0  0  0  0  0  0
   -1.1198   -0.9926    0.0674 N   0  0  0  0  0  0  0  0  0  0  0  0
   -1.8978   -0.4486   -0.2716 H   0  0  0  0  0  0  0  0  0  0  0  0
    0.1693   -0.2866    0.0854 C   0  0  1  0  0  0  0  0  0  0  0  0
    0.8425   -0.7905    0.7811 H   0  0  0  0  0  0  0  0  0  0  0  0
    0.7993   -0.3404   -1.3233 C   0  0  0  0  0  0  0  0  0  0  0  0
    0.7007   -1.3552   -1.7126 H   0  0  0  0  0  0  0  0  0  0  0  0
    0.2405    0.3257   -1.9843 H   0  0  0  0  0  0  0  0  0  0  0  0
    2.2894    0.0325   -1.3700 C   0  0  0  0  0  0  0  0  0  0  0  0
    2.8772    0.0138   -2.4772 O   0  5  0  0  0  0  0  0  0  0  0  0
    2.8373    0.3171   -0.2833 O   0  0  0  0  0  0  0  0  0  0  0  0
   -0.0374    1.1645    0.5781 C   0  0  0  0  0  0  0  0  0  0  0  0
   -0.9816    1.8416    0.1544 O   0  0  0  0  0  0  0  0  0  0  0  0
    0.8235    1.6462    1.4801 N   0  0  0  0  0  0  0  0  0  0  0  0
    1.6183    1.0435    1.7020 H   0  0  0  0  0  0  0  0  0  0  0  0
    0.7895    2.9929    2.0404 C   0  0  0  0  0  0  0  0  0  0  0  0
   -0.2344    3.2522    2.3130 H   0  0  0  0  0  0  0  0  0  0  0  0
    1.4265    3.0377    2.9233 H   0  0  0  0  0  0  0  0  0  0  0  0
    1.1511    3.7014    1.2950 H   0  0  0  0  0  0  0  0  0  0  0  0
  5  6  2  0  0  0  0
  5  7  1  0  0  0  0
  2  3  1  0  0  0  0
  2  4  1  0  0  0  0
  2  5  1  0  0  0  0
  1  2  1  0  0  0  0
 17 18  2  0  0  0  0
 17 19  1  0  0  0  0
 14 15  1  0  0  0  0
 14 16  2  0  0  0  0
 11 12  1  0  0  0  0
 11 13  1  0  0  0  0
 11 14  1  0  0  0  0
  9 10  1  0  0  0  0
  9 11  1  0  0  0  0
  9 17  1  0  0  0  0
  7  8  1  0  0  0  0
  7  9  1  0  0  0  0
 21 22  1  0  0  0  0
 21 23  1  0  0  0  0
 21 24  1  0  0  0  0
 19 20  1  0  0  0  0
 19 21  1  0  0  0  0
M  CHG  1  15  -1
M  END
$$$$
default_name
  -OEChem-02102213163D

 24 23  0     1  0  0  0  0  0999 V2000
   -2.8347   -3.7166    0.8034 H   0  0  0  0  0  0  0  0  0  0  0  0
   -2.7728   -2.7096    0.3954 C   0  0  0  0  0  0  0  0  0  0  0  0
   -3.4267   -2.0426    0.9524 H   0  0  0  0  0  0  0  0  0  0  0  0
   -3.0538   -2.7186   -0.6556 H   0  0  0  0  0  0  0  0  0  0  0  0
   -1.3498   -2.2206    0.5184 C   0  0  0  0  0  0  0  0  0  0  0  0
   -0.4997   -2.9426    1.0194 O   0  0  0  0  0  0  0  0  0  0  0  0
   -1.1198   -0.9926    0.0674 N   0  0  0  0  0  0  0  0  0  0  0  0
   -1.8978   -0.4486   -0.2716 H   0  0  0  0  0  0  0  0  0  0  0  0
    0.1693   -0.2866    0.0854 C   0  0  1  0  0  0  0  0  0  0  0  0
    0.8425   -0.7905    0.7811 H   0  0  0  0  0  0  0  0  0  0  0  0
    0.7993   -0.3404   -1.3233 C   0  0  0  0  0  0  0  0  0  0  0  0
    0.7007   -1.3552   -1.7126 H   0  0  0  0  0  0  0  0  0  0  0  0
    0.2405    0.3257   -1.9843 H   0  0  0  0  0  0  0  0  0  0  0  0
    2.2894    0.0325   -1.3700 C   0  0  0  0  0  0  0  0  0  0  0  0
    2.8072    0.2926   -2.4816 O   0  5  0  0  0  0  0  0  0  0  0  0
    2.9079    0.0350   -0.2839 O   0  0  0  0  0  0  0  0  0  0  0  0
   -0.0374    1.1645    0.5781 C   0  0  0  0  0  0  0  0  0  0  0  0
   -0.9816    1.8416    0.1544 O   0  0  0  0  0  0  0  0  0  0  0  0
    0.8235    1.6462    1.4801 N   0  0  0  0  0  0  0  0  0  0  0  0
    1.6183    1.0435    1.7020 H   0  0  0  0  0  0  0  0  0  0  0  0
    0.7895    2.9929    2.0404 C   0  0  0  0  0  0  0  0  0  0  0  0
   -0.2344    3.2522    2.3130 H   0  0  0  0  0  0  0  0  0  0  0  0
    1.4265    3.0377    2.9233 H   0  0  0  0  0  0  0  0  0  0  0  0
    1.1511    3.7014    1.2950 H   0  0  0  0  0  0  0  0  0  0  0  0
  5  6  2  0  0  0  0
  5  7  1  0  0  0  0
  2  3  1  0  0  0  0
  2  4  1  0  0  0  0
  2  5  1  0  0  0  0
  1  2  1  0  0  0  0
 17 18  2  0  0  0  0
 17 19  1  0  0  0  0
 14 15  1  0  0  0  0
 14 16  2  0  0  0  0
 11 12  1  0  0  0  0
 11 13  1  0  0  0  0
 11 14  1  0  0  0  0
  9 10  1  0  0  0  0
  9 11  1  0  0  0  0
  9 17  1  0  0  0  0
  7  8  1  0  0  0  0
  7  9  1  0  0  0  0
 21 22  1  0  0  0  0
 21 23  1  0  0  0  0
 21 24  1  0  0  0  0
 19 20  1  0  0  0  0
 19 21  1  0  0  0  0
M  CHG  1  15  -1
M  END
$$$$
default_name
  -OEChem-02102213163D

 24 23  0     1  0  0  0  0  0999 V2000
   -2.8347   -3.7166    0.8034 H   0  0  0  0  0  0  0  0  0  0  0  0
   -2.7728   -2.7096    0.3954 C   0  0  0  0  0  0  0  0  0  0  0  0
   -3.4267   -2.0426    0.9524 H   0  0  0  0  0  0  0  0  0  0  0  0
   -3.0538   -2.7186   -0.6556 H   0  0  0  0  0  0  0  0  0  0  0  0
   -1.3498   -2.2206    0.5184 C   0  0  0  0  0  0  0  0  0  0  0  0
   -0.4997   -2.9426    1.0194 O   0  0  0  0  0  0  0  0  0  0  0  0
   -1.1198   -0.9926    0.0674 N   0  0  0  0  0  0  0  0  0  0  0  0
   -1.8978   -0.4486   -0.2716 H   0  0  0  0  0  0  0  0  0  0  0  0
    0.1693   -0.2866    0.0854 C   0  0  1  0  0  0  0  0  0  0  0  0
    0.8425   -0.7905    0.7811 H   0  0  0  0  0  0  0  0  0  0  0  0
    0.7993   -0.3404   -1.3233 C   0  0  0  0  0  0  0  0  0  0  0  0
    0.7007   -1.3552   -1.7126 H   0  0  0  0  0  0  0  0  0  0  0  0
    0.2405    0.3257   -1.9843 H   0  0  0  0  0  0  0  0  0  0  0  0
    2.2894    0.0325   -1.3700 C   0  0  0  0  0  0  0  0  0  0  0  0
    2.7416    0.5636   -2.4116 O   0  5  0  0  0  0  0  0  0  0  0  0
    2.9737   -0.2378   -0.3597 O   0  0  0  0  0  0  0  0  0  0  0  0
   -0.0374    1.1645    0.5781 C   0  0  0  0  0  0  0  0  0  0  0  0
   -0.9816    1.8416    0.1544 O   0  0  0  0  0  0  0  0  0  0  0  0
    0.8235    1.6462    1.4801 N   0  0  0  0  0  0  0  0  0  0  0  0
    1.6183    1.0435    1.7020 H   0  0  0  0  0  0  0  0  0  0  0  0
    0.7895    2.9929    2.0404 C   0  0  0  0  0  0  0  0  0  0  0  0
   -0.2344    3.2522    2.3130 H   0  0  0  0  0  0  0  0  0  0  0  0
    1.4265    3.0377    2.9233 H   0  0  0  0  0  0  0  0  0  0  0  0
    1.1511    3.7014    1.2950 H   0  0  0  0  0  0  0  0  0  0  0  0
  5  6  2  0  0  0  0
  5  7  1  0  0  0  0
  2  3  1  0  0  0  0
  2  4  1  0  0  0  0
  2  5  1  0  0  0  0
  1  2  1  0  0  0  0
 17 18  2  0  0  0  0
 17 19  1  0  0  0  0
 14 15  1  0  0  0  0
 14 16  2  0  0  0  0
 11 12  1  0  0  0  0
 11 13  1  0  0  0  0
 11 14  1  0  0  0  0
  9 10  1  0  0  0  0
  9 11  1  0  0  0  0
  9 17  1  0  0  0  0
  7  8  1  0  0  0  0
  7  9  1  0  0  0  0
 21 22  1  0  0  0  0
 21 23  1  0  0  0  0
 21 24  1  0  0  0  0
 19 20  1  0  0  0  0
 19 21  1  0  0  0  0
M  CHG  1  15  -1
M  END
$$$$
default_name
  -OEChem-02102213163D

 24 23  0     1  0  0  0  0  0999 V2000
   -2.8347   -3.7166    0.8034 H   0  0  0  0  0  0  0  0  0  0  0  0
   -2.7728   -2.7096    0.3954 C   0  0  0  0  0  0  0  0  0  0  0  0
   -3.4267   -2.0426    0.9524 H   0  0  0  0  0  0  0  0  0  0  0  0
   -3.0538   -2.7186   -0.6556 H   0  0  0  0  0  0  0  0  0  0  0  0
   -1.3498   -2.2206    0.5184 C   0  0  0  0  0  0  0  0  0  0  0  0
   -0.4997   -2.9426    1.0194 O   0  0  0  0  0  0  0  0  0  0  0  0
   -1.1198   -0.9926    0.0674 N   0  0  0  0  0  0  0  0  0  0  0  0
   -1.8978   -0.4486   -0.2716 H   0  0  0  0  0  0  0  0  0  0  0  0
    0.1693   -0.2866    0.0854 C   0  0  1  0  0  0  0  0  0  0  0  0
    0.8425   -0.7905    0.7811 H   0  0  0  0  0  0  0  0  0  0  0  0
    0.7993   -0.3404   -1.3233 C   0  0  0  0  0  0  0  0  0  0  0  0
    0.7007   -1.3552   -1.7126 H   0  0  0  0  0  0  0  0  0  0  0  0
    0.2405    0.3257   -1.9843 H   0  0  0  0  0  0  0  0  0  0  0  0
    2.2894    0.0325   -1.3700 C   0  0  0  0  0  0  0  0  0  0  0  0
    2.6848    0.8083   -2.2718 O   0  5  0  0  0  0  0  0  0  0  0  0
    3.0305   -0.4828   -0.5055 O   0  0  0  0  0  0  0  0  0  0  0  0
   -0.0374    1.1645    0.5781 C   0  0  0  0  0  0  0  0  0  0  0  0
   -0.9816    1.8416    0.1544 O   0  0  0  0  0  0  0  0  0  0  0  0
    0.8235    1.6462    1.4801 N   0  0  0  0  0  0  0  0  0  0  0  0
    1.6183    1.0435    1.7020 H   0  0  0  0  0  0  0  0  0  0  0  0
    0.7895    2.9929    2.0404 C   0  0  0  0  0  0  0  0  0  0  0  0
   -0.2344    3.2522    2.3130 H   0  0  0  0  0  0  0  0  0  0  0  0
    1.4265    3.0377    2.9233 H   0  0  0  0  0  0  0  0  0  0  0  0
    1.1511    3.7014    1.2950 H   0  0  0  0  0  0  0  0  0  0  0  0
  5  6  2  0  0  0  0
  5  7  1  0  0  0  0
  2  3  1  0  0  0  0
  2  4  1  0  0  0  0
  2  5  1  0  0  0  0
  1  2  1  0  0  0  0
 17 18  2  0  0  0  0
 17 19  1  0  0  0  0
 14 15  1  0  0  0  0
 14 16  2  0  0  0  0
 11 12  1  0  0  0  0
 11 13  1  0  0  0  0
 11 14  1  0  0  0  0
  9 10  1  0  0  0  0
  9 11  1  0  0  0  0
  9 17  1  0  0  0  0
  7  8  1  0  0  0  0
  7  9  1  0  0  0  0
 21 22  1  0  0  0  0
 21 23  1  0  0  0  0
 21 24  1  0  0  0  0
 19 20  1  0  0  0  0
 19 21  1  0  0  0  0
M  CHG  1  15  -1
M  END
$$$$
default_name
  -OEChem-02102213163D

 24 23  0     1  0  0  0  0  0999 V2000
   -2.8347   -3.7166    0.8034 H   0  0  0  0  0  0  0  0  0  0  0  0
   -2.7728   -2.7096    0.3954 C   0  0  0  0  0  0  0  0  0  0  0  0
   -3.4267   -2.0426    0.9524 H   0  0  0  0  0  0  0  0  0  0  0  0
   -3.0538   -2.7186   -0.6556 H   0  0  0  0  0  0  0  0  0  0  0  0
   -1.3498   -2.2206    0.5184 C   0  0  0  0  0  0  0  0  0  0  0  0
   -0.4997   -2.9426    1.0194 O   0  0  0  0  0  0  0  0  0  0  0  0
   -1.1198   -0.9926    0.0674 N   0  0  0  0  0  0  0  0  0  0  0  0
   -1.8978   -0.4486   -0.2716 H   0  0  0  0  0  0  0  0  0  0  0  0
    0.1693   -0.2866    0.0854 C   0  0  1  0  0  0  0  0  0  0  0  0
    0.8425   -0.7905    0.7811 H   0  0  0  0  0  0  0  0  0  0  0  0
    0.7993   -0.3404   -1.3233 C   0  0  0  0  0  0  0  0  0  0  0  0
    0.7007   -1.3552   -1.7126 H   0  0  0  0  0  0  0  0  0  0  0  0
    0.2405    0.3257   -1.9843 H   0  0  0  0  0  0  0  0  0  0  0  0
    2.2894    0.0325   -1.3700 C   0  0  0  0  0  0  0  0  0  0  0  0
    2.6406    1.0101   -2.0718 O   0  5  0  0  0  0  0  0  0  0  0  0
    3.0742   -0.6834   -0.7114 O   0  0  0  0  0  0  0  0  0  0  0  0
   -0.0374    1.1645    0.5781 C   0  0  0  0  0  0  0  0  0  0  0  0
   -0.9816    1.8416    0.1544 O   0  0  0  0  0  0  0  0  0  0  0  0
    0.8235    1.6462    1.4801 N   0  0  0  0  0  0  0  0  0  0  0  0
    1.6183    1.0435    1.7020 H   0  0  0  0  0  0  0  0  0  0  0  0
    0.7895    2.9929    2.0404 C   0  0  0  0  0  0  0  0  0  0  0  0
   -0.2344    3.2522    2.3130 H   0  0  0  0  0  0  0  0  0  0  0  0
    1.4265    3.0377    2.9233 H   0  0  0  0  0  0  0  0  0  0  0  0
    1.1511    3.7014    1.2950 H   0  0  0  0  0  0  0  0  0  0  0  0
  5  6  2  0  0  0  0
  5  7  1  0  0  0  0
  2  3  1  0  0  0  0
  2  4  1  0  0  0  0
  2  5  1  0  0  0  0
  1  2  1  0  0  0  0
 17 18  2  0  0  0  0
 17 19  1  0  0  0  0
 14 15  1  0  0  0  0
 14 16  2  0  0  0  0
 11 12  1  0  0  0  0
 11 13  1  0  0  0  0
 11 14  1  0  0  0  0
  9 10  1  0  0  0  0
  9 11  1  0  0  0  0
  9 17  1  0  0  0  0
  7  8  1  0  0  0  0
  7  9  1  0  0  0  0
 21 22  1  0  0  0  0
 21 23  1  0  0  0  0
 21 24  1  0  0  0  0
 19 20  1  0  0  0  0
 19 21  1  0  0  0  0
M  CHG  1  15  -1
M  END
$$$$
default_name
  -OEChem-02102213163D

 24 23  0     1  0  0  0  0  0999 V2000
   -2.8347   -3.7166    0.8034 H   0  0  0  0  0  0  0  0  0  0  0  0
   -2.7728   -2.7096    0.3954 C   0  0  0  0  0  0  0  0  0  0  0  0
   -3.4267   -2.0426    0.9524 H   0  0  0  0  0  0  0  0  0  0  0  0
   -3.0538   -2.7186   -0.6556 H   0  0  0  0  0  0  0  0  0  0  0  0
   -1.3498   -2.2206    0.5184 C   0  0  0  0  0  0  0  0  0  0  0  0
   -0.4997   -2.9426    1.0194 O   0  0  0  0  0  0  0  0  0  0  0  0
   -1.1198   -0.9926    0.0674 N   0  0  0  0  0  0  0  0  0  0  0  0
   -1.8978   -0.4486   -0.2716 H   0  0  0  0  0  0  0  0  0  0  0  0
    0.1693   -0.2866    0.0854 C   0  0  1  0  0  0  0  0  0  0  0  0
    0.8425   -0.7905    0.7811 H   0  0  0  0  0  0  0  0  0  0  0  0
    0.7993   -0.3404   -1.3233 C   0  0  0  0  0  0  0  0  0  0  0  0
    0.7007   -1.3552   -1.7126 H   0  0  0  0  0  0  0  0  0  0  0  0
    0.2405    0.3257   -1.9843 H   0  0  0  0  0  0  0  0  0  0  0  0
    2.2894    0.0325   -1.3700 C   0  0  0  0  0  0  0  0  0  0  0  0
    2.6120    1.1551   -1.8252 O   0  5  0  0  0  0  0  0  0  0  0  0
    3.1019   -0.8258   -0.9633 O   0  0  0  0  0  0  0  0  0  0  0  0
   -0.0374    1.1645    0.5781 C   0  0  0  0  0  0  0  0  0  0  0  0
   -0.9816    1.8416    0.1544 O   0  0  0  0  0  0  0  0  0  0  0  0
    0.8235    1.6462    1.4801 N   0  0  0  0  0  0  0  0  0  0  0  0
    1.6183    1.0435    1.7020 H   0  0  0  0  0  0  0  0  0  0  0  0
    0.7895    2.9929    2.0404 C   0  0  0  0  0  0  0  0  0  0  0  0
   -0.2344    3.2522    2.3130 H   0  0  0  0  0  0  0  0  0  0  0  0
    1.4265    3.0377    2.9233 H   0  0  0  0  0  0  0  0  0  0  0  0
    1.1511    3.7014    1.2950 H   0  0  0  0  0  0  0  0  0  0  0  0
  5  6  2  0  0  0  0
  5  7  1  0  0  0  0
  2  3  1  0  0  0  0
  2  4  1  0  0  0  0
  2  5  1  0  0  0  0
  1  2  1  0  0  0  0
 17 18  2  0  0  0  0
 17 19  1  0  0  0  0
 14 15  1  0  0  0  0
 14 16  2  0  0  0  0
 11 12  1  0  0  0  0
 11 13  1  0  0  0  0
 11 14  1  0  0  0  0
  9 10  1  0  0  0  0
  9 11  1  0  0  0  0
  9 17  1  0  0  0  0
  7  8  1  0  0  0  0
  7  9  1  0  0  0  0
 21 22  1  0  0  0  0
 21 23  1  0  0  0  0
 21 24  1  0  0  0  0
 19 20  1  0  0  0  0
 19 21  1  0  0  0  0
M  CHG  1  15  -1
M  END
$$$$
default_name
  -OEChem-02102213163D

 24 23  0     1  0  0  0  0  0999 V2000
   -2.8347   -3.7166    0.8034 H   0  0  0  0  0  0  0  0  0  0  0  0
   -2.7728   -2.7096    0.3954 C   0  0  0  0  0  0  0  0  0  0  0  0
   -3.4267   -2.0426    0.9524 H   0  0  0  0  0  0  0  0  0  0  0  0
   -3.0538   -2.7186   -0.6556 H   0  0  0  0  0  0  0  0  0  0  0  0
   -1.3498   -2.2206    0.5184 C   0  0  0  0  0  0  0  0  0  0  0  0
   -0.4997   -2.9426    1.0194 O   0  0  0  0  0  0  0  0  0  0  0  0
   -1.1198   -0.9926    0.0674 N   0  0  0  0  0  0  0  0  0  0  0  0
   -1.8978   -0.4486   -0.2716 H   0  0  0  0  0  0  0  0  0  0  0  0
    0.1693   -0.2866    0.0854 C   0  0  1  0  0  0  0  0  0  0  0  0
    0.8425   -0.7905    0.7811 H   0  0  0  0  0  0  0  0  0  0  0  0
    0.7993   -0.3404   -1.3233 C   0  0  0  0  0  0  0  0  0  0  0  0
    0.7007   -1.3552   -1.7126 H   0  0  0  0  0  0  0  0  0  0  0  0
    0.2405    0.3257   -1.9843 H   0  0  0  0  0  0  0  0  0  0  0  0
    2.2894    0.0325   -1.3700 C   0  0  0  0  0  0  0  0  0  0  0  0
    2.6011    1.2335   -1.5489 O   0  5  0  0  0  0  0  0  0  0  0  0
    3.1118   -0.9003   -1.2442 O   0  0  0  0  0  0  0  0  0  0  0  0
   -0.0374    1.1645    0.5781 C   0  0  0  0  0  0  0  0  0  0  0  0
   -0.9816    1.8416    0.1544 O   0  0  0  0  0  0  0  0  0  0  0  0
    0.8235    1.6462    1.4801 N   0  0  0  0  0  0  0  0  0  0  0  0
    1.6183    1.0435    1.7020 H   0  0  0  0  0  0  0  0  0  0  0  0
    0.7895    2.9929    2.0404 C   0  0  0  0  0  0  0  0  0  0  0  0
   -0.2344    3.2522    2.3130 H   0  0  0  0  0  0  0  0  0  0  0  0
    1.4265    3.0377    2.9233 H   0  0  0  0  0  0  0  0  0  0  0  0
    1.1511    3.7014    1.2950 H   0  0  0  0  0  0  0  0  0  0  0  0
  5  6  2  0  0  0  0
  5  7  1  0  0  0  0
  2  3  1  0  0  0  0
  2  4  1  0  0  0  0
  2  5  1  0  0  0  0
  1  2  1  0  0  0  0
 17 18  2  0  0  0  0
 17 19  1  0  0  0  0
 14 15  1  0  0  0  0
 14 16  2  0  0  0  0
 11 12  1  0  0  0  0
 11 13  1  0  0  0  0
 11 14  1  0  0  0  0
  9 10  1  0  0  0  0
  9 11  1  0  0  0  0
  9 17  1  0  0  0  0
  7  8  1  0  0  0  0
  7  9  1  0  0  0  0
 21 22  1  0  0  0  0
 21 23  1  0  0  0  0
 21 24  1  0  0  0  0
 19 20  1  0  0  0  0
 19 21  1  0  0  0  0
M  CHG  1  15  -1
M  END
$$$$
default_name
  -OEChem-02102213163D

 24 23  0     1  0  0  0  0  0999 V2000
   -2.8347   -3.7166    0.8034 H   0  0  0  0  0  0  0  0  0  0  0  0
   -2.7728   -2.7096    0.3954 C   0  0  0  0  0  0  0  0  0  0  0  0
   -3.4267   -2.0426    0.9524 H   0  0  0  0  0  0  0  0  0  0  0  0
   -3.0538   -2.7186   -0.6556 H   0  0  0  0  0  0  0  0  0  0  0  0
   -1.3498   -2.2206    0.5184 C   0  0  0  0  0  0  0  0  0  0  0  0
   -0.4997   -2.9426    1.0194 O   0  0  0  0  0  0  0  0  0  0  0  0
   -1.1198   -0.9926    0.0674 N   0  0  0  0  0  0  0  0  0  0  0  0
   -1.8978   -0.4486   -0.2716 H   0  0  0  0  0  0  0  0  0  0  0  0
    0.1693   -0.2866    0.0854 C   0  0  1  0  0  0  0  0  0  0  0  0
    0.8425   -0.7905    0.7811 H   0  0  0  0  0  0  0  0  0  0  0  0
    0.7993   -0.3404   -1.3233 C   0  0  0  0  0  0  0  0  0  0  0  0
    0.7007   -1.3552   -1.7126 H   0  0  0  0  0  0  0  0  0  0  0  0
    0.2405    0.3257   -1.9843 H   0  0  0  0  0  0  0  0  0  0  0  0
    2.2894    0.0325   -1.3700 C   0  0  0  0  0  0  0  0  0  0  0  0
    2.6085    1.2400   -1.2615 O   0  5  0  0  0  0  0  0  0  0  0  0
    3.1031   -0.9019   -1.5348 O   0  0  0  0  0  0  0  0  0  0  0  0
   -0.0374    1.1645    0.5781 C   0  0  0  0  0  0  0  0  0  0  0  0
   -0.9816    1.8416    0.1544 O   0  0  0  0  0  0  0  0  0  0  0  0
    0.8235    1.6462    1.4801 N   0  0  0  0  0  0  0  0  0  0  0  0
    1.6183    1.0435    1.7020 H   0  0  0  0  0  0  0  0  0  0  0  0
    0.7895    2.9929    2.0404 C   0  0  0  0  0  0  0  0  0  0  0  0
   -0.2344    3.2522    2.3130 H   0  0  0  0  0  0  0  0  0  0  0  0
    1.4265    3.0377    2.9233 H   0  0  0  0  0  0  0  0  0  0  0  0
    1.1511    3.7014    1.2950 H   0  0  0  0  0  0  0  0  0  0  0  0
  5  6  2  0  0  0  0
  5  7  1  0  0  0  0
  2  3  1  0  0  0  0
  2  4  1  0  0  0  0
  2  5  1  0  0  0  0
  1  2  1  0  0  0  0
 17 18  2  0  0  0  0
 17 19  1  0  0  0  0
 14 15  1  0  0  0  0
 14 16  2  0  0  0  0
 11 12  1  0  0  0  0
 11 13  1  0  0  0  0
 11 14  1  0  0  0  0
  9 10  1  0  0  0  0
  9 11  1  0  0  0  0
  9 17  1  0  0  0  0
  7  8  1  0  0  0  0
  7  9  1  0  0  0  0
 21 22  1  0  0  0  0
 21 23  1  0  0  0  0
 21 24  1  0  0  0  0
 19 20  1  0  0  0  0
 19 21  1  0  0  0  0
M  CHG  1  15  -1
M  END
$$$$
default_name
  -OEChem-02102213163D

 24 23  0     1  0  0  0  0  0999 V2000
   -2.8347   -3.7166    0.8034 H   0  0  0  0  0  0  0  0  0  0  0  0
   -2.7728   -2.7096    0.3954 C   0  0  0  0  0  0  0  0  0  0  0  0
   -3.4267   -2.0426    0.9524 H   0  0  0  0  0  0  0  0  0  0  0  0
   -3.0538   -2.7186   -0.6556 H   0  0  0  0  0  0  0  0  0  0  0  0
   -1.3498   -2.2206    0.5184 C   0  0  0  0  0  0  0  0  0  0  0  0
   -0.4997   -2.9426    1.0194 O   0  0  0  0  0  0  0  0  0  0  0  0
   -1.1198   -0.9926    0.0674 N   0  0  0  0  0  0  0  0  0  0  0  0
   -1.8978   -0.4486   -0.2716 H   0  0  0  0  0  0  0  0  0  0  0  0
    0.1693   -0.2866    0.0854 C   0  0  1  0  0  0  0  0  0  0  0  0
    0.8425   -0.7905    0.7811 H   0  0  0  0  0  0  0  0  0  0  0  0
    0.7993   -0.3404   -1.3233 C   0  0  0  0  0  0  0  0  0  0  0  0
    0.7007   -1.3552   -1.7126 H   0  0  0  0  0  0  0  0  0  0  0  0
    0.2405    0.3257   -1.9843 H   0  0  0  0  0  0  0  0  0  0  0  0
    2.2894    0.0325   -1.3700 C   0  0  0  0  0  0  0  0  0  0  0  0
    2.6337    1.1740   -0.9829 O   0  5  0  0  0  0  0  0  0  0  0  0
    3.0764   -0.8304   -1.8153 O   0  0  0  0  0  0  0  0  0  0  0  0
   -0.0374    1.1645    0.5781 C   0  0  0  0  0  0  0  0  0  0  0  0
   -0.9816    1.8416    0.1544 O   0  0  0  0  0  0  0  0  0  0  0  0
    0.8235    1.6462    1.4801 N   0  0  0  0  0  0  0  0  0  0  0  0
    1.6183    1.0435    1.7020 H   0  0  0  0  0  0  0  0  0  0  0  0
    0.7895    2.9929    2.0404 C   0  0  0  0  0  0  0  0  0  0  0  0
   -0.2344    3.2522    2.3130 H   0  0  0  0  0  0  0  0  0  0  0  0
    1.4265    3.0377    2.9233 H   0  0  0  0  0  0  0  0  0  0  0  0
    1.1511    3.7014    1.2950 H   0  0  0  0  0  0  0  0  0  0  0  0
  5  6  2  0  0  0  0
  5  7  1  0  0  0  0
  2  3  1  0  0  0  0
  2  4  1  0  0  0  0
  2  5  1  0  0  0  0
  1  2  1  0  0  0  0
 17 18  2  0  0  0  0
 17 19  1  0  0  0  0
 14 15  1  0  0  0  0
 14 16  2  0  0  0  0
 11 12  1  0  0  0  0
 11 13  1  0  0  0  0
 11 14  1  0  0  0  0
  9 10  1  0  0  0  0
  9 11  1  0  0  0  0
  9 17  1  0  0  0  0
  7  8  1  0  0  0  0
  7  9  1  0  0  0  0
 21 22  1  0  0  0  0
 21 23  1  0  0  0  0
 21 24  1  0  0  0  0
 19 20  1  0  0  0  0
 19 21  1  0  0  0  0
M  CHG  1  15  -1
M  END
$$$$
default_name
  -OEChem-02102213163D

 24 23  0     1  0  0  0  0  0999 V2000
   -2.8347   -3.7166    0.8034 H   0  0  0  0  0  0  0  0  0  0  0  0
   -2.7728   -2.7096    0.3954 C   0  0  0  0  0  0  0  0  0  0  0  0
   -3.4267   -2.0426    0.9524 H   0  0  0  0  0  0  0  0  0  0  0  0
   -3.0538   -2.7186   -0.6556 H   0  0  0  0  0  0  0  0  0  0  0  0
   -1.3498   -2.2206    0.5184 C   0  0  0  0  0  0  0  0  0  0  0  0
   -0.4997   -2.9426    1.0194 O   0  0  0  0  0  0  0  0  0  0  0  0
   -1.1198   -0.9926    0.0674 N   0  0  0  0  0  0  0  0  0  0  0  0
   -1.8978   -0.4486   -0.2716 H   0  0  0  0  0  0  0  0  0  0  0  0
    0.1693   -0.2866    0.0854 C   0  0  1  0  0  0  0  0  0  0  0  0
    0.8425   -0.7905    0.7811 H   0  0  0  0  0  0  0  0  0  0  0  0
    0.7993   -0.3404   -1.3233 C   0  0  0  0  0  0  0  0  0  0  0  0
    0.7007   -1.3552   -1.7126 H   0  0  0  0  0  0  0  0  0  0  0  0
    0.2405    0.3257   -1.9843 H   0  0  0  0  0  0  0  0  0  0  0  0
    2.2894    0.0325   -1.3700 C   0  0  0  0  0  0  0  0  0  0  0  0
    2.6751    1.0402   -0.7318 O   0  5  0  0  0  0  0  0  0  0  0  0
    3.0336   -0.6907   -2.0667 O   0  0  0  0  0  0  0  0  0  0  0  0
   -0.0374    1.1645    0.5781 C   0  0  0  0  0  0  0  0  0  0  0  0
   -0.9816    1.8416    0.1544 O   0  0  0  0  0  0  0  0  0  0  0  0
    0.8235    1.6462    1.4801 N   0  0  0  0  0  0  0  0  0  0  0  0
    1.6183    1.0435    1.7020 H   0  0  0  0  0  0  0  0  0  0  0  0
    0.7895    2.9929    2.0404 C   0  0  0  0  0  0  0  0  0  0  0  0
   -0.2344    3.2522    2.3130 H   0  0  0  0  0  0  0  0  0  0  0  0
    1.4265    3.0377    2.9233 H   0  0  0  0  0  0  0  0  0  0  0  0
    1.1511    3.7014    1.2950 H   0  0  0  0  0  0  0  0  0  0  0  0
  5  6  2  0  0  0  0
  5  7  1  0  0  0  0
  2  3  1  0  0  0  0
  2  4  1  0  0  0  0
  2  5  1  0  0  0  0
  1  2  1  0  0  0  0
 17 18  2  0  0  0  0
 17 19  1  0  0  0  0
 14 15  1  0  0  0  0
 14 16  2  0  0  0  0
 11 12  1  0  0  0  0
 11 13  1  0  0  0  0
 11 14  1  0  0  0  0
  9 10  1  0  0  0  0
  9 11  1  0  0  0  0
  9 17  1  0  0  0  0
  7  8  1  0  0  0  0
  7  9  1  0  0  0  0
 21 22  1  0  0  0  0
 21 23  1  0  0  0  0
 21 24  1  0  0  0  0
 19 20  1  0  0  0  0
 19 21  1  0  0  0  0
M  CHG  1  15  -1
M  END
$$$$
default_name
  -OEChem-02102213163D

 24 23  0     1  0  0  0  0  0999 V2000
   -2.8347   -3.7166    0.8034 H   0  0  0  0  0  0  0  0  0  0  0  0
   -2.7728   -2.7096    0.3954 C   0  0  0  0  0  0  0  0  0  0  0  0
   -3.4267   -2.0426    0.9524 H   0  0  0  0  0  0  0  0  0  0  0  0
   -3.0538   -2.7186   -0.6556 H   0  0  0  0  0  0  0  0  0  0  0  0
   -1.3498   -2.2206    0.5184 C   0  0  0  0  0  0  0  0  0  0  0  0
   -0.4997   -2.9426    1.0194 O   0  0  0  0  0  0  0  0  0  0  0  0
   -1.1198   -0.9926    0.0674 N   0  0  0  0  0  0  0  0  0  0  0  0
   -1.8978   -0.4486   -0.2716 H   0  0  0  0  0  0  0  0  0  0  0  0
    0.1693   -0.2866    0.0854 C   0  0  1  0  0  0  0  0  0  0  0  0
    0.8425   -0.7905    0.7811 H   0  0  0  0  0  0  0  0  0  0  0  0
    0.7993   -0.3404   -1.3233 C   0  0  0  0  0  0  0  0  0  0  0  0
    0.7007   -1.3552   -1.7126 H   0  0  0  0  0  0  0  0  0  0  0  0
    0.2405    0.3257   -1.9843 H   0  0  0  0  0  0  0  0  0  0  0  0
    2.2894    0.0325   -1.3700 C   0  0  0  0  0  0  0  0  0  0  0  0
    2.7297    0.8476   -0.5255 O   0  5  0  0  0  0  0  0  0  0  0  0
    2.9775   -0.4924   -2.2717 O   0  0  0  0  0  0  0  0  0  0  0  0
   -0.0374    1.1645    0.5781 C   0  0  0  0  0  0  0  0  0  0  0  0
   -0.9816    1.8416    0.1544 O   0  0  0  0  0  0  0  0  0  0  0  0
    0.8235    1.6462    1.4801 N   0  0  0  0  0  0  0  0  0  0  0  0
    1.6183    1.0435    1.7020 H   0  0  0  0  0  0  0  0  0  0  0  0
    0.7895    2.9929    2.0404 C   0  0  0  0  0  0  0  0  0  0  0  0
   -0.2344    3.2522    2.3130 H   0  0  0  0  0  0  0  0  0  0  0  0
    1.4265    3.0377    2.9233 H   0  0  0  0  0  0  0  0  0  0  0  0
    1.1511    3.7014    1.2950 H   0  0  0  0  0  0  0  0  0  0  0  0
  5  6  2  0  0  0  0
  5  7  1  0  0  0  0
  2  3  1  0  0  0  0
  2  4  1  0  0  0  0
  2  5  1  0  0  0  0
  1  2  1  0  0  0  0
 17 18  2  0  0  0  0
 17 19  1  0  0  0  0
 14 15  1  0  0  0  0
 14 16  2  0  0  0  0
 11 12  1  0  0  0  0
 11 13  1  0  0  0  0
 11 14  1  0  0  0  0
  9 10  1  0  0  0  0
  9 11  1  0  0  0  0
  9 17  1  0  0  0  0
  7  8  1  0  0  0  0
  7  9  1  0  0  0  0
 21 22  1  0  0  0  0
 21 23  1  0  0  0  0
 21 24  1  0  0  0  0
 19 20  1  0  0  0  0
 19 21  1  0  0  0  0
M  CHG  1  15  -1
M  END
$$$$
default_name
  -OEChem-02102213163D

 24 23  0     1  0  0  0  0  0999 V2000
   -2.8347   -3.7166    0.8034 H   0  0  0  0  0  0  0  0  0  0  0  0
   -2.7728   -2.7096    0.3954 C   0  0  0  0  0  0  0  0  0  0  0  0
   -3.4267   -2.0426    0.9524 H   0  0  0  0  0  0  0  0  0  0  0  0
   -3.0538   -2.7186   -0.6556 H   0  0  0  0  0  0  0  0  0  0  0  0
   -1.3498   -2.2206    0.5184 C   0  0  0  0  0  0  0  0  0  0  0  0
   -0.4997   -2.9426    1.0194 O   0  0  0  0  0  0  0  0  0  0  0  0
   -1.1198   -0.9926    0.0674 N   0  0  0  0  0  0  0  0  0  0  0  0
   -1.8978   -0.4486   -0.2716 H   0  0  0  0  0  0  0  0  0  0  0  0
    0.1693   -0.2866    0.0854 C   0  0  1  0  0  0  0  0  0  0  0  0
    0.8425   -0.7905    0.7811 H   0  0  0  0  0  0  0  0  0  0  0  0
    0.7993   -0.3404   -1.3233 C   0  0  0  0  0  0  0  0  0  0  0  0
    0.7007   -1.3552   -1.7126 H   0  0  0  0  0  0  0  0  0  0  0  0
    0.2405    0.3257   -1.9843 H   0  0  0  0  0  0  0  0  0  0  0  0
    2.2894    0.0325   -1.3700 C   0  0  0  0  0  0  0  0  0  0  0  0
    2.7939    0.6094   -0.3779 O   0  5  0  0  0  0  0  0  0  0  0  0
    2.9121   -0.2489   -2.4165 O   0  0  0  0  0  0  0  0  0  0  0  0
   -0.0374    1.1645    0.5781 C   0  0  0  0  0  0  0  0  0  0  0  0
   -0.9816    1.8416    0.1544 O   0  0  0  0  0  0  0  0  0  0  0  0
    0.8235    1.6462    1.4801 N   0  0  0  0  0  0  0  0  0  0  0  0
    1.6183    1.0435    1.7020 H   0  0  0  0  0  0  0  0  0  0  0  0
    0.7895    2.9929    2.0404 C   0  0  0  0  0  0  0  0  0  0  0  0
   -0.2344    3.2522    2.3130 H   0  0  0  0  0  0  0  0  0  0  0  0
    1.4265    3.0377    2.9233 H   0  0  0  0  0  0  0  0  0  0  0  0
    1.1511    3.7014    1.2950 H   0  0  0  0  0  0  0  0  0  0  0  0
  5  6  2  0  0  0  0
  5  7  1  0  0  0  0
  2  3  1  0  0  0  0
  2  4  1  0  0  0  0
  2  5  1  0  0  0  0
  1  2  1  0  0  0  0
 17 18  2  0  0  0  0
 17 19  1  0  0  0  0
 14 15  1  0  0  0  0
 14 16  2  0  0  0  0
 11 12  1  0  0  0  0
 11 13  1  0  0  0  0
 11 14  1  0  0  0  0
  9 10  1  0  0  0  0
  9 11  1  0  0  0  0
  9 17  1  0  0  0  0
  7  8  1  0  0  0  0
  7  9  1  0  0  0  0
 21 22  1  0  0  0  0
 21 23  1  0  0  0  0
 21 24  1  0  0  0  0
 19 20  1  0  0  0  0
 19 21  1  0  0  0  0
M  CHG  1  15  -1
M  END
$$$$
default_name
  -OEChem-02102213163D

 24 23  0     1  0  0  0  0  0999 V2000
   -2.8347   -3.7166    0.8034 H   0  0  0  0  0  0  0  0  0  0  0  0
   -2.7728   -2.7096    0.3954 C   0  0  0  0  0  0  0  0  0  0  0  0
   -3.4267   -2.0426    0.9524 H   0  0  0  0  0  0  0  0  0  0  0  0
   -3.0538   -2.7186   -0.6556 H   0  0  0  0  0  0  0  0  0  0  0  0
   -1.3498   -2.2206    0.5184 C   0  0  0  0  0  0  0  0  0  0  0  0
   -0.4997   -2.9426    1.0194 O   0  0  0  0  0  0  0  0  0  0  0  0
   -1.1198   -0.9926    0.0674 N   0  0  0  0  0  0  0  0  0  0  0  0
   -1.8978   -0.4486   -0.2716 H   0  0  0  0  0  0  0  0  0  0  0  0
    0.1693   -0.2866    0.0854 C   0  0  1  0  0  0  0  0  0  0  0  0
    0.8425   -0.7905    0.7811 H   0  0  0  0  0  0  0  0  0  0  0  0
    0.7993   -0.3404   -1.3233 C   0  0  0  0  0  0  0  0  0  0  0  0
    0.7007   -1.3552   -1.7126 H   0  0  0  0  0  0  0  0  0  0  0  0
    0.2405    0.3257   -1.9843 H   0  0  0  0  0  0  0  0  0  0  0  0
    2.2894    0.0325   -1.3700 C   0  0  0  0  0  0  0  0  0  0  0  0
    2.8634    0.3418   -0.2992 O   0  5  0  0  0  0  0  0  0  0  0  0
    2.8417    0.0231   -2.4912 O   0  0  0  0  0  0  0  0  0  0  0  0
   -0.0374    1.1645    0.5781 C   0  0  0  0  0  0  0  0  0  0  0  0
   -0.9816    1.8416    0.1544 O   0  0  0  0  0  0  0  0  0  0  0  0
    0.8235    1.6462    1.4801 N   0  0  0  0  0  0  0  0  0  0  0  0
    1.6183    1.0435    1.7020 H   0  0  0  0  0  0  0  0  0  0  0  0
    0.7895    2.9929    2.0404 C   0  0  0  0  0  0  0  0  0  0  0  0
   -0.2344    3.2522    2.3130 H   0  0  0  0  0  0  0  0  0  0  0  0
    1.4265    3.0377    2.9233 H   0  0  0  0  0  0  0  0  0  0  0  0
    1.1511    3.7014    1.2950 H   0  0  0  0  0  0  0  0  0  0  0  0
  5  6  2  0  0  0  0
  5  7  1  0  0  0  0
  2  3  1  0  0  0  0
  2  4  1  0  0  0  0
  2  5  1  0  0  0  0
  1  2  1  0  0  0  0
 17 18  2  0  0  0  0
 17 19  1  0  0  0  0
 14 15  1  0  0  0  0
 14 16  2  0  0  0  0
 11 12  1  0  0  0  0
 11 13  1  0  0  0  0
 11 14  1  0  0  0  0
  9 10  1  0  0  0  0
  9 11  1  0  0  0  0
  9 17  1  0  0  0  0
  7  8  1  0  0  0  0
  7  9  1  0  0  0  0
 21 22  1  0  0  0  0
 21 23  1  0  0  0  0
 21 24  1  0  0  0  0
 19 20  1  0  0  0  0
 19 21  1  0  0  0  0
M  CHG  1  15  -1
M  END
$$$$
default_name
  -OEChem-02102213163D

 24 23  0     1  0  0  0  0  0999 V2000
   -2.8347   -3.7166    0.8034 H   0  0  0  0  0  0  0  0  0  0  0  0
   -2.7728   -2.7096    0.3954 C   0  0  0  0  0  0  0  0  0  0  0  0
   -3.4267   -2.0426    0.9524 H   0  0  0  0  0  0  0  0  0  0  0  0
   -3.0538   -2.7186   -0.6556 H   0  0  0  0  0  0  0  0  0  0  0  0
   -1.3498   -2.2206    0.5184 C   0  0  0  0  0  0  0  0  0  0  0  0
   -0.4997   -2.9426    1.0194 O   0  0  0  0  0  0  0  0  0  0  0  0
   -1.1198   -0.9926    0.0674 N   0  0  0  0  0  0  0  0  0  0  0  0
   -1.8978   -0.4486   -0.2716 H   0  0  0  0  0  0  0  0  0  0  0  0
    0.1693   -0.2866    0.0854 C   0  0  1  0  0  0  0  0  0  0  0  0
    0.8425   -0.7905    0.7811 H   0  0  0  0  0  0  0  0  0  0  0  0
    0.7993   -0.3404   -1.3233 C   0  0  0  0  0  0  0  0  0  0  0  0
    0.7007   -1.3552   -1.7126 H   0  0  0  0  0  0  0  0  0  0  0  0
    0.2405    0.3257   -1.9843 H   0  0  0  0  0  0  0  0  0  0  0  0
    2.2894    0.0325   -1.3700 C   0  0  0  0  0  0  0  0  0  0  0  0
    2.9333    0.0629   -0.2948 O   0  5  0  0  0  0  0  0  0  0  0  0
    2.7711    0.3051   -2.4906 O   0  0  0  0  0  0  0  0  0  0  0  0
   -0.0374    1.1645    0.5781 C   0  0  0  0  0  0  0  0  0  0  0  0
   -0.9816    1.8416    0.1544 O   0  0  0  0  0  0  0  0  0  0  0  0
    0.8235    1.6462    1.4801 N   0  0  0  0  0  0  0  0  0  0  0  0
    1.6183    1.0435    1.7020 H   0  0  0  0  0  0  0  0  0  0  0  0
    0.7895    2.9929    2.0404 C   0  0  0  0  0  0  0  0  0  0  0  0
   -0.2344    3.2522    2.3130 H   0  0  0  0  0  0  0  0  0  0  0  0
    1.4265    3.0377    2.9233 H   0  0  0  0  0  0  0  0  0  0  0  0
    1.1511    3.7014    1.2950 H   0  0  0  0  0  0  0  0  0  0  0  0
  5  6  2  0  0  0  0
  5  7  1  0  0  0  0
  2  3  1  0  0  0  0
  2  4  1  0  0  0  0
  2  5  1  0  0  0  0
  1  2  1  0  0  0  0
 17 18  2  0  0  0  0
 17 19  1  0  0  0  0
 14 15  1  0  0  0  0
 14 16  2  0  0  0  0
 11 12  1  0  0  0  0
 11 13  1  0  0  0  0
 11 14  1  0  0  0  0
  9 10  1  0  0  0  0
  9 11  1  0  0  0  0
  9 17  1  0  0  0  0
  7  8  1  0  0  0  0
  7  9  1  0  0  0  0
 21 22  1  0  0  0  0
 21 23  1  0  0  0  0
 21 24  1  0  0  0  0
 19 20  1  0  0  0  0
 19 21  1  0  0  0  0
M  CHG  1  15  -1
M  END
$$$$
default_name
  -OEChem-02102213163D

 24 23  0     1  0  0  0  0  0999 V2000
   -2.8347   -3.7166    0.8034 H   0  0  0  0  0  0  0  0  0  0  0  0
   -2.7728   -2.7096    0.3954 C   0  0  0  0  0  0  0  0  0  0  0  0
   -3.4267   -2.0426    0.9524 H   0  0  0  0  0  0  0  0  0  0  0  0
   -3.0538   -2.7186   -0.6556 H   0  0  0  0  0  0  0  0  0  0  0  0
   -1.3498   -2.2206    0.5184 C   0  0  0  0  0  0  0  0  0  0  0  0
   -0.4997   -2.9426    1.0194 O   0  0  0  0  0  0  0  0  0  0  0  0
   -1.1198   -0.9926    0.0674 N   0  0  0  0  0  0  0  0  0  0  0  0
   -1.8978   -0.4486   -0.2716 H   0  0  0  0  0  0  0  0  0  0  0  0
    0.1693   -0.2866    0.0854 C   0  0  1  0  0  0  0  0  0  0  0  0
    0.8425   -0.7905    0.7811 H   0  0  0  0  0  0  0  0  0  0  0  0
    0.7993   -0.3404   -1.3233 C   0  0  0  0  0  0  0  0  0  0  0  0
    0.7007   -1.3552   -1.7126 H   0  0  0  0  0  0  0  0  0  0  0  0
    0.2405    0.3257   -1.9843 H   0  0  0  0  0  0  0  0  0  0  0  0
    2.2894    0.0325   -1.3700 C   0  0  0  0  0  0  0  0  0  0  0  0
    2.9989   -0.2081   -0.3648 O   0  5  0  0  0  0  0  0  0  0  0  0
    2.7052    0.5780   -2.4148 O   0  0  0  0  0  0  0  0  0  0  0  0
   -0.0374    1.1645    0.5781 C   0  0  0  0  0  0  0  0  0  0  0  0
   -0.9816    1.8416    0.1544 O   0  0  0  0  0  0  0  0  0  0  0  0
    0.8235    1.6462    1.4801 N   0  0  0  0  0  0  0  0  0  0  0  0
    1.6183    1.0435    1.7020 H   0  0  0  0  0  0  0  0  0  0  0  0
    0.7895    2.9929    2.0404 C   0  0  0  0  0  0  0  0  0  0  0  0
   -0.2344    3.2522    2.3130 H   0  0  0  0  0  0  0  0  0  0  0  0
    1.4265    3.0377    2.9233 H   0  0  0  0  0  0  0  0  0  0  0  0
    1.1511    3.7014    1.2950 H   0  0  0  0  0  0  0  0  0  0  0  0
  5  6  2  0  0  0  0
  5  7  1  0  0  0  0
  2  3  1  0  0  0  0
  2  4  1  0  0  0  0
  2  5  1  0  0  0  0
  1  2  1  0  0  0  0
 17 18  2  0  0  0  0
 17 19  1  0  0  0  0
 14 15  1  0  0  0  0
 14 16  2  0  0  0  0
 11 12  1  0  0  0  0
 11 13  1  0  0  0  0
 11 14  1  0  0  0  0
  9 10  1  0  0  0  0
  9 11  1  0  0  0  0
  9 17  1  0  0  0  0
  7  8  1  0  0  0  0
  7  9  1  0  0  0  0
 21 22  1  0  0  0  0
 21 23  1  0  0  0  0
 21 24  1  0  0  0  0
 19 20  1  0  0  0  0
 19 21  1  0  0  0  0
M  CHG  1  15  -1
M  END
$$$$
default_name
  -OEChem-02102213163D

 24 23  0     1  0  0  0  0  0999 V2000
   -2.8347   -3.7166    0.8034 H   0  0  0  0  0  0  0  0  0  0  0  0
   -2.7728   -2.7096    0.3954 C   0  0  0  0  0  0  0  0  0  0  0  0
   -3.4267   -2.0426    0.9524 H   0  0  0  0  0  0  0  0  0  0  0  0
   -3.0538   -2.7186   -0.6556 H   0  0  0  0  0  0  0  0  0  0  0  0
   -1.3498   -2.2206    0.5184 C   0  0  0  0  0  0  0  0  0  0  0  0
   -0.4997   -2.9426    1.0194 O   0  0  0  0  0  0  0  0  0  0  0  0
   -1.1198   -0.9926    0.0674 N   0  0  0  0  0  0  0  0  0  0  0  0
   -1.8978   -0.4486   -0.2716 H   0  0  0  0  0  0  0  0  0  0  0  0
    0.1693   -0.2866    0.0854 C   0  0  1  0  0  0  0  0  0  0  0  0
    0.8425   -0.7905    0.7811 H   0  0  0  0  0  0  0  0  0  0  0  0
    0.7993   -0.3404   -1.3233 C   0  0  0  0  0  0  0  0  0  0  0  0
    0.7007   -1.3552   -1.7126 H   0  0  0  0  0  0  0  0  0  0  0  0
    0.2405    0.3257   -1.9843 H   0  0  0  0  0  0  0  0  0  0  0  0
    2.2894    0.0325   -1.3700 C   0  0  0  0  0  0  0  0  0  0  0  0
    3.0557   -0.4528   -0.5046 O   0  5  0  0  0  0  0  0  0  0  0  0
    2.6485    0.8230   -2.2690 O   0  0  0  0  0  0  0  0  0  0  0  0
   -0.0374    1.1645    0.5781 C   0  0  0  0  0  0  0  0  0  0  0  0
   -0.9816    1.8416    0.1544 O   0  0  0  0  0  0  0  0  0  0  0  0
    0.8235    1.6462    1.4801 N   0  0  0  0  0  0  0  0  0  0  0  0
    1.6183    1.0435    1.7020 H   0  0  0  0  0  0  0  0  0  0  0  0
    0.7895    2.9929    2.0404 C   0  0  0  0  0  0  0  0  0  0  0  0
   -0.2344    3.2522    2.3130 H   0  0  0  0  0  0  0  0  0  0  0  0
    1.4265    3.0377    2.9233 H   0  0  0  0  0  0  0  0  0  0  0  0
    1.1511    3.7014    1.2950 H   0  0  0  0  0  0  0  0  0  0  0  0
  5  6  2  0  0  0  0
  5  7  1  0  0  0  0
  2  3  1  0  0  0  0
  2  4  1  0  0  0  0
  2  5  1  0  0  0  0
  1  2  1  0  0  0  0
 17 18  2  0  0  0  0
 17 19  1  0  0  0  0
 14 15  1  0  0  0  0
 14 16  2  0  0  0  0
 11 12  1  0  0  0  0
 11 13  1  0  0  0  0
 11 14  1  0  0  0  0
  9 10  1  0  0  0  0
  9 11  1  0  0  0  0
  9 17  1  0  0  0  0
  7  8  1  0  0  0  0
  7  9  1  0  0  0  0
 21 22  1  0  0  0  0
 21 23  1  0  0  0  0
 21 24  1  0  0  0  0
 19 20  1  0  0  0  0
 19 21  1  0  0  0  0
M  CHG  1  15  -1
M  END
$$$$
default_name
  -OEChem-02102213163D

 24 23  0     1  0  0  0  0  0999 V2000
   -2.8347   -3.7166    0.8034 H   0  0  0  0  0  0  0  0  0  0  0  0
   -2.7728   -2.7096    0.3954 C   0  0  0  0  0  0  0  0  0  0  0  0
   -3.4267   -2.0426    0.9524 H   0  0  0  0  0  0  0  0  0  0  0  0
   -3.0538   -2.7186   -0.6556 H   0  0  0  0  0  0  0  0  0  0  0  0
   -1.3498   -2.2206    0.5184 C   0  0  0  0  0  0  0  0  0  0  0  0
   -0.4997   -2.9426    1.0194 O   0  0  0  0  0  0  0  0  0  0  0  0
   -1.1198   -0.9926    0.0674 N   0  0  0  0  0  0  0  0  0  0  0  0
   -1.8978   -0.4486   -0.2716 H   0  0  0  0  0  0  0  0  0  0  0  0
    0.1693   -0.2866    0.0854 C   0  0  1  0  0  0  0  0  0  0  0  0
    0.8425   -0.7905    0.7811 H   0  0  0  0  0  0  0  0  0  0  0  0
    0.7993   -0.3404   -1.3233 C   0  0  0  0  0  0  0  0  0  0  0  0
    0.7007   -1.3552   -1.7126 H   0  0  0  0  0  0  0  0  0  0  0  0
    0.2405    0.3257   -1.9843 H   0  0  0  0  0  0  0  0  0  0  0  0
    2.2894    0.0325   -1.3700 C   0  0  0  0  0  0  0  0  0  0  0  0
    3.0999   -0.6545   -0.7046 O   0  5  0  0  0  0  0  0  0  0  0  0
    2.6048    1.0236   -2.0631 O   0  0  0  0  0  0  0  0  0  0  0  0
   -0.0374    1.1645    0.5781 C   0  0  0  0  0  0  0  0  0  0  0  0
   -0.9816    1.8416    0.1544 O   0  0  0  0  0  0  0  0  0  0  0  0
    0.8235    1.6462    1.4801 N   0  0  0  0  0  0  0  0  0  0  0  0
    1.6183    1.0435    1.7020 H   0  0  0  0  0  0  0  0  0  0  0  0
    0.7895    2.9929    2.0404 C   0  0  0  0  0  0  0  0  0  0  0  0
   -0.2344    3.2522    2.3130 H   0  0  0  0  0  0  0  0  0  0  0  0
    1.4265    3.0377    2.9233 H   0  0  0  0  0  0  0  0  0  0  0  0
    1.1511    3.7014    1.2950 H   0  0  0  0  0  0  0  0  0  0  0  0
  5  6  2  0  0  0  0
  5  7  1  0  0  0  0
  2  3  1  0  0  0  0
  2  4  1  0  0  0  0
  2  5  1  0  0  0  0
  1  2  1  0  0  0  0
 17 18  2  0  0  0  0
 17 19  1  0  0  0  0
 14 15  1  0  0  0  0
 14 16  2  0  0  0  0
 11 12  1  0  0  0  0
 11 13  1  0  0  0  0
 11 14  1  0  0  0  0
  9 10  1  0  0  0  0
  9 11  1  0  0  0  0
  9 17  1  0  0  0  0
  7  8  1  0  0  0  0
  7  9  1  0  0  0  0
 21 22  1  0  0  0  0
 21 23  1  0  0  0  0
 21 24  1  0  0  0  0
 19 20  1  0  0  0  0
 19 21  1  0  0  0  0
M  CHG  1  15  -1
M  END
$$$$
default_name
  -OEChem-02102213163D

 24 23  0     1  0  0  0  0  0999 V2000
   -2.8347   -3.7166    0.8034 H   0  0  0  0  0  0  0  0  0  0  0  0
   -2.7728   -2.7096    0.3954 C   0  0  0  0  0  0  0  0  0  0  0  0
   -3.4267   -2.0426    0.9524 H   0  0  0  0  0  0  0  0  0  0  0  0
   -3.0538   -2.7186   -0.6556 H   0  0  0  0  0  0  0  0  0  0  0  0
   -1.3498   -2.2206    0.5184 C   0  0  0  0  0  0  0  0  0  0  0  0
   -0.4997   -2.9426    1.0194 O   0  0  0  0  0  0  0  0  0  0  0  0
   -1.1198   -0.9926    0.0674 N   0  0  0  0  0  0  0  0  0  0  0  0
   -1.8978   -0.4486   -0.2716 H   0  0  0  0  0  0  0  0  0  0  0  0
    0.1693   -0.2866    0.0854 C   0  0  1  0  0  0  0  0  0  0  0  0
    0.8425   -0.7905    0.7811 H   0  0  0  0  0  0  0  0  0  0  0  0
    0.7993   -0.3404   -1.3233 C   0  0  0  0  0  0  0  0  0  0  0  0
    0.7007   -1.3552   -1.7126 H   0  0  0  0  0  0  0  0  0  0  0  0
    0.2405    0.3257   -1.9843 H   0  0  0  0  0  0  0  0  0  0  0  0
    2.2894    0.0325   -1.3700 C   0  0  0  0  0  0  0  0  0  0  0  0
    3.1285   -0.7995   -0.9512 O   0  5  0  0  0  0  0  0  0  0  0  0
    2.5770    1.1659   -1.8111 O   0  0  0  0  0  0  0  0  0  0  0  0
   -0.0374    1.1645    0.5781 C   0  0  0  0  0  0  0  0  0  0  0  0
   -0.9816    1.8416    0.1544 O   0  0  0  0  0  0  0  0  0  0  0  0
    0.8235    1.6462    1.4801 N   0  0  0  0  0  0  0  0  0  0  0  0
    1.6183    1.0435    1.7020 H   0  0  0  0  0  0  0  0  0  0  0  0
    0.7895    2.9929    2.0404 C   0  0  0  0  0  0  0  0  0  0  0  0
   -0.2344    3.2522    2.3130 H   0  0  0  0  0  0  0  0  0  0  0  0
    1.4265    3.0377    2.9233 H   0  0  0  0  0  0  0  0  0  0  0  0
    1.1511    3.7014    1.2950 H   0  0  0  0  0  0  0  0  0  0  0  0
  5  6  2  0  0  0  0
  5  7  1  0  0  0  0
  2  3  1  0  0  0  0
  2  4  1  0  0  0  0
  2  5  1  0  0  0  0
  1  2  1  0  0  0  0
 17 18  2  0  0  0  0
 17 19  1  0  0  0  0
 14 15  1  0  0  0  0
 14 16  2  0  0  0  0
 11 12  1  0  0  0  0
 11 13  1  0  0  0  0
 11 14  1  0  0  0  0
  9 10  1  0  0  0  0
  9 11  1  0  0  0  0
  9 17  1  0  0  0  0
  7  8  1  0  0  0  0
  7  9  1  0  0  0  0
 21 22  1  0  0  0  0
 21 23  1  0  0  0  0
 21 24  1  0  0  0  0
 19 20  1  0  0  0  0
 19 21  1  0  0  0  0
M  CHG  1  15  -1
M  END
$$$$
default_name
  -OEChem-02102213163D

 24 23  0     1  0  0  0  0  0999 V2000
   -2.8347   -3.7166    0.8034 H   0  0  0  0  0  0  0  0  0  0  0  0
   -2.7728   -2.7096    0.3954 C   0  0  0  0  0  0  0  0  0  0  0  0
   -3.4267   -2.0426    0.9524 H   0  0  0  0  0  0  0  0  0  0  0  0
   -3.0538   -2.7186   -0.6556 H   0  0  0  0  0  0  0  0  0  0  0  0
   -1.3498   -2.2206    0.5184 C   0  0  0  0  0  0  0  0  0  0  0  0
   -0.4997   -2.9426    1.0194 O   0  0  0  0  0  0  0  0  0  0  0  0
   -1.1198   -0.9926    0.0674 N   0  0  0  0  0  0  0  0  0  0  0  0
   -1.8978   -0.4486   -0.2716 H   0  0  0  0  0  0  0  0  0  0  0  0
    0.1693   -0.2866    0.0854 C   0  0  1  0  0  0  0  0  0  0  0  0
    0.8425   -0.7905    0.7811 H   0  0  0  0  0  0  0  0  0  0  0  0
    0.7993   -0.3404   -1.3233 C   0  0  0  0  0  0  0  0  0  0  0  0
    0.7007   -1.3552   -1.7126 H   0  0  0  0  0  0  0  0  0  0  0  0
    0.2405    0.3257   -1.9843 H   0  0  0  0  0  0  0  0  0  0  0  0
    2.2894    0.0325   -1.3700 C   0  0  0  0  0  0  0  0  0  0  0  0
    3.1394   -0.8779   -1.2275 O   0  5  0  0  0  0  0  0  0  0  0  0
    2.5672    1.2405   -1.5303 O   0  0  0  0  0  0  0  0  0  0  0  0
   -0.0374    1.1645    0.5781 C   0  0  0  0  0  0  0  0  0  0  0  0
   -0.9816    1.8416    0.1544 O   0  0  0  0  0  0  0  0  0  0  0  0
    0.8235    1.6462    1.4801 N   0  0  0  0  0  0  0  0  0  0  0  0
    1.6183    1.0435    1.7020 H   0  0  0  0  0  0  0  0  0  0  0  0
    0.7895    2.9929    2.0404 C   0  0  0  0  0  0  0  0  0  0  0  0
   -0.2344    3.2522    2.3130 H   0  0  0  0  0  0  0  0  0  0  0  0
    1.4265    3.0377    2.9233 H   0  0  0  0  0  0  0  0  0  0  0  0
    1.1511    3.7014    1.2950 H   0  0  0  0  0  0  0  0  0  0  0  0
  5  6  2  0  0  0  0
  5  7  1  0  0  0  0
  2  3  1  0  0  0  0
  2  4  1  0  0  0  0
  2  5  1  0  0  0  0
  1  2  1  0  0  0  0
 17 18  2  0  0  0  0
 17 19  1  0  0  0  0
 14 15  1  0  0  0  0
 14 16  2  0  0  0  0
 11 12  1  0  0  0  0
 11 13  1  0  0  0  0
 11 14  1  0  0  0  0
  9 10  1  0  0  0  0
  9 11  1  0  0  0  0
  9 17  1  0  0  0  0
  7  8  1  0  0  0  0
  7  9  1  0  0  0  0
 21 22  1  0  0  0  0
 21 23  1  0  0  0  0
 21 24  1  0  0  0  0
 19 20  1  0  0  0  0
 19 21  1  0  0  0  0
M  CHG  1  15  -1
M  END
$$$$
default_name
  -OEChem-02102213163D

 24 23  0     1  0  0  0  0  0999 V2000
   -2.8347   -3.7166    0.8034 H   0  0  0  0  0  0  0  0  0  0  0  0
   -2.7728   -2.7096    0.3954 C   0  0  0  0  0  0  0  0  0  0  0  0
   -3.4267   -2.0426    0.9524 H   0  0  0  0  0  0  0  0  0  0  0  0
   -3.0538   -2.7186   -0.6556 H   0  0  0  0  0  0  0  0  0  0  0  0
   -1.3498   -2.2206    0.5184 C   0  0  0  0  0  0  0  0  0  0  0  0
   -0.4997   -2.9426    1.0194 O   0  0  0  0  0  0  0  0  0  0  0  0
   -1.1198   -0.9926    0.0674 N   0  0  0  0  0  0  0  0  0  0  0  0
   -1.8978   -0.4486   -0.2716 H   0  0  0  0  0  0  0  0  0  0  0  0
    0.1693   -0.2866    0.0854 C   0  0  1  0  0  0  0  0  0  0  0  0
    0.8425   -0.7905    0.7811 H   0  0  0  0  0  0  0  0  0  0  0  0
    0.7993   -0.3404   -1.3233 C   0  0  0  0  0  0  0  0  0  0  0  0
    0.7007   -1.3552   -1.7126 H   0  0  0  0  0  0  0  0  0  0  0  0
    0.2405    0.3257   -1.9843 H   0  0  0  0  0  0  0  0  0  0  0  0
    2.2894    0.0325   -1.3700 C   0  0  0  0  0  0  0  0  0  0  0  0
    3.1320   -0.8844   -1.5148 O   0  5  0  0  0  0  0  0  0  0  0  0
    2.5759    1.2420   -1.2397 O   0  0  0  0  0  0  0  0  0  0  0  0
   -0.0374    1.1645    0.5781 C   0  0  0  0  0  0  0  0  0  0  0  0
   -0.9816    1.8416    0.1544 O   0  0  0  0  0  0  0  0  0  0  0  0
    0.8235    1.6462    1.4801 N   0  0  0  0  0  0  0  0  0  0  0  0
    1.6183    1.0435    1.7020 H   0  0  0  0  0  0  0  0  0  0  0  0
    0.7895    2.9929    2.0404 C   0  0  0  0  0  0  0  0  0  0  0  0
   -0.2344    3.2522    2.3130 H   0  0  0  0  0  0  0  0  0  0  0  0
    1.4265    3.0377    2.9233 H   0  0  0  0  0  0  0  0  0  0  0  0
    1.1511    3.7014    1.2950 H   0  0  0  0  0  0  0  0  0  0  0  0
  5  6  2  0  0  0  0
  5  7  1  0  0  0  0
  2  3  1  0  0  0  0
  2  4  1  0  0  0  0
  2  5  1  0  0  0  0
  1  2  1  0  0  0  0
 17 18  2  0  0  0  0
 17 19  1  0  0  0  0
 14 15  1  0  0  0  0
 14 16  2  0  0  0  0
 11 12  1  0  0  0  0
 11 13  1  0  0  0  0
 11 14  1  0  0  0  0
  9 10  1  0  0  0  0
  9 11  1  0  0  0  0
  9 17  1  0  0  0  0
  7  8  1  0  0  0  0
  7  9  1  0  0  0  0
 21 22  1  0  0  0  0
 21 23  1  0  0  0  0
 21 24  1  0  0  0  0
 19 20  1  0  0  0  0
 19 21  1  0  0  0  0
M  CHG  1  15  -1
M  END
$$$$
default_name
  -OEChem-02102213163D

 24 23  0     1  0  0  0  0  0999 V2000
   -2.8347   -3.7166    0.8034 H   0  0  0  0  0  0  0  0  0  0  0  0
   -2.7728   -2.7096    0.3954 C   0  0  0  0  0  0  0  0  0  0  0  0
   -3.4267   -2.0426    0.9524 H   0  0  0  0  0  0  0  0  0  0  0  0
   -3.0538   -2.7186   -0.6556 H   0  0  0  0  0  0  0  0  0  0  0  0
   -1.3498   -2.2206    0.5184 C   0  0  0  0  0  0  0  0  0  0  0  0
   -0.4997   -2.9426    1.0194 O   0  0  0  0  0  0  0  0  0  0  0  0
   -1.1198   -0.9926    0.0674 N   0  0  0  0  0  0  0  0  0  0  0  0
   -1.8978   -0.4486   -0.2716 H   0  0  0  0  0  0  0  0  0  0  0  0
    0.1693   -0.2866    0.0854 C   0  0  1  0  0  0  0  0  0  0  0  0
    0.8425   -0.7905    0.7811 H   0  0  0  0  0  0  0  0  0  0  0  0
    0.7993   -0.3404   -1.3233 C   0  0  0  0  0  0  0  0  0  0  0  0
    0.7007   -1.3552   -1.7126 H   0  0  0  0  0  0  0  0  0  0  0  0
    0.2405    0.3257   -1.9843 H   0  0  0  0  0  0  0  0  0  0  0  0
    2.2894    0.0325   -1.3700 C   0  0  0  0  0  0  0  0  0  0  0  0
    3.1068   -0.8185   -1.7935 O   0  5  0  0  0  0  0  0  0  0  0  0
    2.6026    1.1706   -0.9592 O   0  0  0  0  0  0  0  0  0  0  0  0
   -0.0374    1.1645    0.5781 C   0  0  0  0  0  0  0  0  0  0  0  0
   -0.9816    1.8416    0.1544 O   0  0  0  0  0  0  0  0  0  0  0  0
    0.8235    1.6462    1.4801 N   0  0  0  0  0  0  0  0  0  0  0  0
    1.6183    1.0435    1.7020 H   0  0  0  0  0  0  0  0  0  0  0  0
    0.7895    2.9929    2.0404 C   0  0  0  0  0  0  0  0  0  0  0  0
   -0.2344    3.2522    2.3130 H   0  0  0  0  0  0  0  0  0  0  0  0
    1.4265    3.0377    2.9233 H   0  0  0  0  0  0  0  0  0  0  0  0
    1.1511    3.7014    1.2950 H   0  0  0  0  0  0  0  0  0  0  0  0
  5  6  2  0  0  0  0
  5  7  1  0  0  0  0
  2  3  1  0  0  0  0
  2  4  1  0  0  0  0
  2  5  1  0  0  0  0
  1  2  1  0  0  0  0
 17 18  2  0  0  0  0
 17 19  1  0  0  0  0
 14 15  1  0  0  0  0
 14 16  2  0  0  0  0
 11 12  1  0  0  0  0
 11 13  1  0  0  0  0
 11 14  1  0  0  0  0
  9 10  1  0  0  0  0
  9 11  1  0  0  0  0
  9 17  1  0  0  0  0
  7  8  1  0  0  0  0
  7  9  1  0  0  0  0
 21 22  1  0  0  0  0
 21 23  1  0  0  0  0
 21 24  1  0  0  0  0
 19 20  1  0  0  0  0
 19 21  1  0  0  0  0
M  CHG  1  15  -1
M  END
$$$$
default_name
  -OEChem-02102213163D

 24 23  0     1  0  0  0  0  0999 V2000
   -2.8347   -3.7166    0.8034 H   0  0  0  0  0  0  0  0  0  0  0  0
   -2.7728   -2.7096    0.3954 C   0  0  0  0  0  0  0  0  0  0  0  0
   -3.4267   -2.0426    0.9524 H   0  0  0  0  0  0  0  0  0  0  0  0
   -3.0538   -2.7186   -0.6556 H   0  0  0  0  0  0  0  0  0  0  0  0
   -1.3498   -2.2206    0.5184 C   0  0  0  0  0  0  0  0  0  0  0  0
   -0.4997   -2.9426    1.0194 O   0  0  0  0  0  0  0  0  0  0  0  0
   -1.1198   -0.9926    0.0674 N   0  0  0  0  0  0  0  0  0  0  0  0
   -1.8978   -0.4486   -0.2716 H   0  0  0  0  0  0  0  0  0  0  0  0
    0.1693   -0.2866    0.0854 C   0  0  1  0  0  0  0  0  0  0  0  0
    0.8425   -0.7905    0.7811 H   0  0  0  0  0  0  0  0  0  0  0  0
    0.7993   -0.3404   -1.3233 C   0  0  0  0  0  0  0  0  0  0  0  0
    0.7007   -1.3552   -1.7126 H   0  0  0  0  0  0  0  0  0  0  0  0
    0.2405    0.3257   -1.9843 H   0  0  0  0  0  0  0  0  0  0  0  0
    2.2894    0.0325   -1.3700 C   0  0  0  0  0  0  0  0  0  0  0  0
    3.0655   -0.6846   -2.0446 O   0  5  0  0  0  0  0  0  0  0  0  0
    2.6454    1.0309   -0.7078 O   0  0  0  0  0  0  0  0  0  0  0  0
   -0.0374    1.1645    0.5781 C   0  0  0  0  0  0  0  0  0  0  0  0
   -0.9816    1.8416    0.1544 O   0  0  0  0  0  0  0  0  0  0  0  0
    0.8235    1.6462    1.4801 N   0  0  0  0  0  0  0  0  0  0  0  0
    1.6183    1.0435    1.7020 H   0  0  0  0  0  0  0  0  0  0  0  0
    0.7895    2.9929    2.0404 C   0  0  0  0  0  0  0  0  0  0  0  0
   -0.2344    3.2522    2.3130 H   0  0  0  0  0  0  0  0  0  0  0  0
    1.4265    3.0377    2.9233 H   0  0  0  0  0  0  0  0  0  0  0  0
    1.1511    3.7014    1.2950 H   0  0  0  0  0  0  0  0  0  0  0  0
  5  6  2  0  0  0  0
  5  7  1  0  0  0  0
  2  3  1  0  0  0  0
  2  4  1  0  0  0  0
  2  5  1  0  0  0  0
  1  2  1  0  0  0  0
 17 18  2  0  0  0  0
 17 19  1  0  0  0  0
 14 15  1  0  0  0  0
 14 16  2  0  0  0  0
 11 12  1  0  0  0  0
 11 13  1  0  0  0  0
 11 14  1  0  0  0  0
  9 10  1  0  0  0  0
  9 11  1  0  0  0  0
  9 17  1  0  0  0  0
  7  8  1  0  0  0  0
  7  9  1  0  0  0  0
 21 22  1  0  0  0  0
 21 23  1  0  0  0  0
 21 24  1  0  0  0  0
 19 20  1  0  0  0  0
 19 21  1  0  0  0  0
M  CHG  1  15  -1
M  END
$$$$
default_name
  -OEChem-02102213163D

 24 23  0     1  0  0  0  0  0999 V2000
   -2.8347   -3.7166    0.8034 H   0  0  0  0  0  0  0  0  0  0  0  0
   -2.7728   -2.7096    0.3954 C   0  0  0  0  0  0  0  0  0  0  0  0
   -3.4267   -2.0426    0.9524 H   0  0  0  0  0  0  0  0  0  0  0  0
   -3.0538   -2.7186   -0.6556 H   0  0  0  0  0  0  0  0  0  0  0  0
   -1.3498   -2.2206    0.5184 C   0  0  0  0  0  0  0  0  0  0  0  0
   -0.4997   -2.9426    1.0194 O   0  0  0  0  0  0  0  0  0  0  0  0
   -1.1198   -0.9926    0.0674 N   0  0  0  0  0  0  0  0  0  0  0  0
   -1.8978   -0.4486   -0.2716 H   0  0  0  0  0  0  0  0  0  0  0  0
    0.1693   -0.2866    0.0854 C   0  0  1  0  0  0  0  0  0  0  0  0
    0.8425   -0.7905    0.7811 H   0  0  0  0  0  0  0  0  0  0  0  0
    0.7993   -0.3404   -1.3233 C   0  0  0  0  0  0  0  0  0  0  0  0
    0.7007   -1.3552   -1.7126 H   0  0  0  0  0  0  0  0  0  0  0  0
    0.2405    0.3257   -1.9843 H   0  0  0  0  0  0  0  0  0  0  0  0
    2.2894    0.0325   -1.3700 C   0  0  0  0  0  0  0  0  0  0  0  0
    3.0108   -0.4921   -2.2509 O   0  5  0  0  0  0  0  0  0  0  0  0
    2.7015    0.8326   -0.5027 O   0  0  0  0  0  0  0  0  0  0  0  0
   -0.0374    1.1645    0.5781 C   0  0  0  0  0  0  0  0  0  0  0  0
   -0.9816    1.8416    0.1544 O   0  0  0  0  0  0  0  0  0  0  0  0
    0.8235    1.6462    1.4801 N   0  0  0  0  0  0  0  0  0  0  0  0
    1.6183    1.0435    1.7020 H   0  0  0  0  0  0  0  0  0  0  0  0
    0.7895    2.9929    2.0404 C   0  0  0  0  0  0  0  0  0  0  0  0
   -0.2344    3.2522    2.3130 H   0  0  0  0  0  0  0  0  0  0  0  0
    1.4265    3.0377    2.9233 H   0  0  0  0  0  0  0  0  0  0  0  0
    1.1511    3.7014    1.2950 H   0  0  0  0  0  0  0  0  0  0  0  0
  5  6  2  0  0  0  0
  5  7  1  0  0  0  0
  2  3  1  0  0  0  0
  2  4  1  0  0  0  0
  2  5  1  0  0  0  0
  1  2  1  0  0  0  0
 17 18  2  0  0  0  0
 17 19  1  0  0  0  0
 14 15  1  0  0  0  0
 14 16  2  0  0  0  0
 11 12  1  0  0  0  0
 11 13  1  0  0  0  0
 11 14  1  0  0  0  0
  9 10  1  0  0  0  0
  9 11  1  0  0  0  0
  9 17  1  0  0  0  0
  7  8  1  0  0  0  0
  7  9  1  0  0  0  0
 21 22  1  0  0  0  0
 21 23  1  0  0  0  0
 21 24  1  0  0  0  0
 19 20  1  0  0  0  0
 19 21  1  0  0  0  0
M  CHG  1  15  -1
M  END
$$$$
default_name
  -OEChem-02102213163D

 24 23  0     1  0  0  0  0  0999 V2000
   -2.8347   -3.7166    0.8034 H   0  0  0  0  0  0  0  0  0  0  0  0
   -2.7728   -2.7096    0.3954 C   0  0  0  0  0  0  0  0  0  0  0  0
   -3.4267   -2.0426    0.9524 H   0  0  0  0  0  0  0  0  0  0  0  0
   -3.0538   -2.7186   -0.6556 H   0  0  0  0  0  0  0  0  0  0  0  0
   -1.3498   -2.2206    0.5184 C   0  0  0  0  0  0  0  0  0  0  0  0
   -0.4997   -2.9426    1.0194 O   0  0  0  0  0  0  0  0  0  0  0  0
   -1.1198   -0.9926    0.0674 N   0  0  0  0  0  0  0  0  0  0  0  0
   -1.8978   -0.4486   -0.2716 H   0  0  0  0  0  0  0  0  0  0  0  0
    0.1693   -0.2866    0.0854 C   0  0  1  0  0  0  0  0  0  0  0  0
    0.8425   -0.7905    0.7811 H   0  0  0  0  0  0  0  0  0  0  0  0
    0.7993   -0.3404   -1.3233 C   0  0  0  0  0  0  0  0  0  0  0  0
    0.7007   -1.3552   -1.7126 H   0  0  0  0  0  0  0  0  0  0  0  0
    0.2405    0.3257   -1.9843 H   0  0  0  0  0  0  0  0  0  0  0  0
    2.2894    0.0325   -1.3700 C   0  0  0  0  0  0  0  0  0  0  0  0
    2.9466   -0.2538   -2.3985 O   0  5  0  0  0  0  0  0  0  0  0  0
    2.7669    0.5891   -0.3579 O   0  0  0  0  0  0  0  0  0  0  0  0
   -0.0374    1.1645    0.5781 C   0  0  0  0  0  0  0  0  0  0  0  0
   -0.9816    1.8416    0.1544 O   0  0  0  0  0  0  0  0  0  0  0  0
    0.8235    1.6462    1.4801 N   0  0  0  0  0  0  0  0  0  0  0  0
    1.6183    1.0435    1.7020 H   0  0  0  0  0  0  0  0  0  0  0  0
    0.7895    2.9929    2.0404 C   0  0  0  0  0  0  0  0  0  0  0  0
   -0.2344    3.2522    2.3130 H   0  0  0  0  0  0  0  0  0  0  0  0
    1.4265    3.0377    2.9233 H   0  0  0  0  0  0  0  0  0  0  0  0
    1.1511    3.7014    1.2950 H   0  0  0  0  0  0  0  0  0  0  0  0
  5  6  2  0  0  0  0
  5  7  1  0  0  0  0
  2  3  1  0  0  0  0
  2  4  1  0  0  0  0
  2  5  1  0  0  0  0
  1  2  1  0  0  0  0
 17 18  2  0  0  0  0
 17 19  1  0  0  0  0
 14 15  1  0  0  0  0
 14 16  2  0  0  0  0
 11 12  1  0  0  0  0
 11 13  1  0  0  0  0
 11 14  1  0  0  0  0
  9 10  1  0  0  0  0
  9 11  1  0  0  0  0
  9 17  1  0  0  0  0
  7  8  1  0  0  0  0
  7  9  1  0  0  0  0
 21 22  1  0  0  0  0
 21 23  1  0  0  0  0
 21 24  1  0  0  0  0
 19 20  1  0  0  0  0
 19 21  1  0  0  0  0
M  CHG  1  15  -1
M  END
$$$$
default_name
  -OEChem-02102213163D

 24 23  0     1  0  0  0  0  0999 V2000
   -2.8347   -3.7166    0.8034 H   0  0  0  0  0  0  0  0  0  0  0  0
   -2.7728   -2.7096    0.3954 C   0  0  0  0  0  0  0  0  0  0  0  0
   -3.4267   -2.0426    0.9524 H   0  0  0  0  0  0  0  0  0  0  0  0
   -3.0538   -2.7186   -0.6556 H   0  0  0  0  0  0  0  0  0  0  0  0
   -1.3498   -2.2206    0.5184 C   0  0  0  0  0  0  0  0  0  0  0  0
   -0.4997   -2.9426    1.0194 O   0  0  0  0  0  0  0  0  0  0  0  0
   -1.1198   -0.9926    0.0674 N   0  0  0  0  0  0  0  0  0  0  0  0
   -1.8978   -0.4486   -0.2716 H   0  0  0  0  0  0  0  0  0  0  0  0
    0.1693   -0.2866    0.0854 C   0  0  1  0  0  0  0  0  0  0  0  0
    0.8425   -0.7905    0.7811 H   0  0  0  0  0  0  0  0  0  0  0  0
    0.7993   -0.3404   -1.3233 C   0  0  0  0  0  0  0  0  0  0  0  0
    0.4728   -1.2566   -1.8183 H   0  0  0  0  0  0  0  0  0  0  0  0
    0.4277    0.5043   -1.9074 H   0  0  0  0  0  0  0  0  0  0  0  0
    2.3359   -0.3279   -1.3354 C   0  0  0  0  0  0  0  0  0  0  0  0
    2.9266   -0.3692   -2.4404 O   0  5  0  0  0  0  0  0  0  0  0  0
    2.9118   -0.2962   -0.2266 O   0  0  0  0  0  0  0  0  0  0  0  0
   -0.0374    1.1645    0.5781 C   0  0  0  0  0  0  0  0  0  0  0  0
   -0.9816    1.8416    0.1544 O   0  0  0  0  0  0  0  0  0  0  0  0
    0.8235    1.6462    1.4801 N   0  0  0  0  0  0  0  0  0  0  0  0
    1.6183    1.0435    1.7020 H   0  0  0  0  0  0  0  0  0  0  0  0
    0.7895    2.9929    2.0404 C   0  0  0  0  0  0  0  0  0  0  0  0
   -0.2344    3.2522    2.3130 H   0  0  0  0  0  0  0  0  0  0  0  0
    1.4265    3.0377    2.9233 H   0  0  0  0  0  0  0  0  0  0  0  0
    1.1511    3.7014    1.2950 H   0  0  0  0  0  0  0  0  0  0  0  0
  5  6  2  0  0  0  0
  5  7  1  0  0  0  0
  2  3  1  0  0  0  0
  2  4  1  0  0  0  0
  2  5  1  0  0  0  0
  1  2  1  0  0  0  0
 17 18  2  0  0  0  0
 17 19  1  0  0  0  0
 14 15  1  0  0  0  0
 14 16  2  0  0  0  0
 11 12  1  0  0  0  0
 11 13  1  0  0  0  0
 11 14  1  0  0  0  0
  9 10  1  0  0  0  0
  9 11  1  0  0  0  0
  9 17  1  0  0  0  0
  7  8  1  0  0  0  0
  7  9  1  0  0  0  0
 21 22  1  0  0  0  0
 21 23  1  0  0  0  0
 21 24  1  0  0  0  0
 19 20  1  0  0  0  0
 19 21  1  0  0  0  0
M  CHG  1  15  -1
M  END
$$$$
default_name
  -OEChem-02102213163D

 24 23  0     1  0  0  0  0  0999 V2000
   -2.8347   -3.7166    0.8034 H   0  0  0  0  0  0  0  0  0  0  0  0
   -2.7728   -2.7096    0.3954 C   0  0  0  0  0  0  0  0  0  0  0  0
   -3.4267   -2.0426    0.9524 H   0  0  0  0  0  0  0  0  0  0  0  0
   -3.0538   -2.7186   -0.6556 H   0  0  0  0  0  0  0  0  0  0  0  0
   -1.3498   -2.2206    0.5184 C   0  0  0  0  0  0  0  0  0  0  0  0
   -0.4997   -2.9426    1.0194 O   0  0  0  0  0  0  0  0  0  0  0  0
   -1.1198   -0.9926    0.0674 N   0  0  0  0  0  0  0  0  0  0  0  0
   -1.8978   -0.4486   -0.2716 H   0  0  0  0  0  0  0  0  0  0  0  0
    0.1693   -0.2866    0.0854 C   0  0  1  0  0  0  0  0  0  0  0  0
    0.8425   -0.7905    0.7811 H   0  0  0  0  0  0  0  0  0  0  0  0
    0.7993   -0.3404   -1.3233 C   0  0  0  0  0  0  0  0  0  0  0  0
    0.4728   -1.2566   -1.8183 H   0  0  0  0  0  0  0  0  0  0  0  0
    0.4277    0.5043   -1.9074 H   0  0  0  0  0  0  0  0  0  0  0  0
    2.3359   -0.3279   -1.3354 C   0  0  0  0  0  0  0  0  0  0  0  0
    2.9245   -0.0829   -2.4149 O   0  5  0  0  0  0  0  0  0  0  0  0
    2.9139   -0.5853   -0.2575 O   0  0  0  0  0  0  0  0  0  0  0  0
   -0.0374    1.1645    0.5781 C   0  0  0  0  0  0  0  0  0  0  0  0
   -0.9816    1.8416    0.1544 O   0  0  0  0  0  0  0  0  0  0  0  0
    0.8235    1.6462    1.4801 N   0  0  0  0  0  0  0  0  0  0  0  0
    1.6183    1.0435    1.7020 H   0  0  0  0  0  0  0  0  0  0  0  0
    0.7895    2.9929    2.0404 C   0  0  0  0  0  0  0  0  0  0  0  0
   -0.2344    3.2522    2.3130 H   0  0  0  0  0  0  0  0  0  0  0  0
    1.4265    3.0377    2.9233 H   0  0  0  0  0  0  0  0  0  0  0  0
    1.1511    3.7014    1.2950 H   0  0  0  0  0  0  0  0  0  0  0  0
  5  6  2  0  0  0  0
  5  7  1  0  0  0  0
  2  3  1  0  0  0  0
  2  4  1  0  0  0  0
  2  5  1  0  0  0  0
  1  2  1  0  0  0  0
 17 18  2  0  0  0  0
 17 19  1  0  0  0  0
 14 15  1  0  0  0  0
 14 16  2  0  0  0  0
 11 12  1  0  0  0  0
 11 13  1  0  0  0  0
 11 14  1  0  0  0  0
  9 10  1  0  0  0  0
  9 11  1  0  0  0  0
  9 17  1  0  0  0  0
  7  8  1  0  0  0  0
  7  9  1  0  0  0  0
 21 22  1  0  0  0  0
 21 23  1  0  0  0  0
 21 24  1  0  0  0  0
 19 20  1  0  0  0  0
 19 21  1  0  0  0  0
M  CHG  1  15  -1
M  END
$$$$
default_name
  -OEChem-02102213163D

 24 23  0     1  0  0  0  0  0999 V2000
   -2.8347   -3.7166    0.8034 H   0  0  0  0  0  0  0  0  0  0  0  0
   -2.7728   -2.7096    0.3954 C   0  0  0  0  0  0  0  0  0  0  0  0
   -3.4267   -2.0426    0.9524 H   0  0  0  0  0  0  0  0  0  0  0  0
   -3.0538   -2.7186   -0.6556 H   0  0  0  0  0  0  0  0  0  0  0  0
   -1.3498   -2.2206    0.5184 C   0  0  0  0  0  0  0  0  0  0  0  0
   -0.4997   -2.9426    1.0194 O   0  0  0  0  0  0  0  0  0  0  0  0
   -1.1198   -0.9926    0.0674 N   0  0  0  0  0  0  0  0  0  0  0  0
   -1.8978   -0.4486   -0.2716 H   0  0  0  0  0  0  0  0  0  0  0  0
    0.1693   -0.2866    0.0854 C   0  0  1  0  0  0  0  0  0  0  0  0
    0.8425   -0.7905    0.7811 H   0  0  0  0  0  0  0  0  0  0  0  0
    0.7993   -0.3404   -1.3233 C   0  0  0  0  0  0  0  0  0  0  0  0
    0.4728   -1.2566   -1.8183 H   0  0  0  0  0  0  0  0  0  0  0  0
    0.4277    0.5043   -1.9074 H   0  0  0  0  0  0  0  0  0  0  0  0
    2.3359   -0.3279   -1.3354 C   0  0  0  0  0  0  0  0  0  0  0  0
    2.9231    0.1871   -2.3161 O   0  5  0  0  0  0  0  0  0  0  0  0
    2.9153   -0.8565   -0.3622 O   0  0  0  0  0  0  0  0  0  0  0  0
   -0.0374    1.1645    0.5781 C   0  0  0  0  0  0  0  0  0  0  0  0
   -0.9816    1.8416    0.1544 O   0  0  0  0  0  0  0  0  0  0  0  0
    0.8235    1.6462    1.4801 N   0  0  0  0  0  0  0  0  0  0  0  0
    1.6183    1.0435    1.7020 H   0  0  0  0  0  0  0  0  0  0  0  0
    0.7895    2.9929    2.0404 C   0  0  0  0  0  0  0  0  0  0  0  0
   -0.2344    3.2522    2.3130 H   0  0  0  0  0  0  0  0  0  0  0  0
    1.4265    3.0377    2.9233 H   0  0  0  0  0  0  0  0  0  0  0  0
    1.1511    3.7014    1.2950 H   0  0  0  0  0  0  0  0  0  0  0  0
  5  6  2  0  0  0  0
  5  7  1  0  0  0  0
  2  3  1  0  0  0  0
  2  4  1  0  0  0  0
  2  5  1  0  0  0  0
  1  2  1  0  0  0  0
 17 18  2  0  0  0  0
 17 19  1  0  0  0  0
 14 15  1  0  0  0  0
 14 16  2  0  0  0  0
 11 12  1  0  0  0  0
 11 13  1  0  0  0  0
 11 14  1  0  0  0  0
  9 10  1  0  0  0  0
  9 11  1  0  0  0  0
  9 17  1  0  0  0  0
  7  8  1  0  0  0  0
  7  9  1  0  0  0  0
 21 22  1  0  0  0  0
 21 23  1  0  0  0  0
 21 24  1  0  0  0  0
 19 20  1  0  0  0  0
 19 21  1  0  0  0  0
M  CHG  1  15  -1
M  END
$$$$
default_name
  -OEChem-02102213163D

 24 23  0     1  0  0  0  0  0999 V2000
   -2.8347   -3.7166    0.8034 H   0  0  0  0  0  0  0  0  0  0  0  0
   -2.7728   -2.7096    0.3954 C   0  0  0  0  0  0  0  0  0  0  0  0
   -3.4267   -2.0426    0.9524 H   0  0  0  0  0  0  0  0  0  0  0  0
   -3.0538   -2.7186   -0.6556 H   0  0  0  0  0  0  0  0  0  0  0  0
   -1.3498   -2.2206    0.5184 C   0  0  0  0  0  0  0  0  0  0  0  0
   -0.4997   -2.9426    1.0194 O   0  0  0  0  0  0  0  0  0  0  0  0
   -1.1198   -0.9926    0.0674 N   0  0  0  0  0  0  0  0  0  0  0  0
   -1.8978   -0.4486   -0.2716 H   0  0  0  0  0  0  0  0  0  0  0  0
    0.1693   -0.2866    0.0854 C   0  0  1  0  0  0  0  0  0  0  0  0
    0.8425   -0.7905    0.7811 H   0  0  0  0  0  0  0  0  0  0  0  0
    0.7993   -0.3404   -1.3233 C   0  0  0  0  0  0  0  0  0  0  0  0
    0.4728   -1.2566   -1.8183 H   0  0  0  0  0  0  0  0  0  0  0  0
    0.4277    0.5043   -1.9074 H   0  0  0  0  0  0  0  0  0  0  0  0
    2.3359   -0.3279   -1.3354 C   0  0  0  0  0  0  0  0  0  0  0  0
    2.9225    0.4223   -2.1508 O   0  5  0  0  0  0  0  0  0  0  0  0
    2.9158   -1.0914   -0.5335 O   0  0  0  0  0  0  0  0  0  0  0  0
   -0.0374    1.1645    0.5781 C   0  0  0  0  0  0  0  0  0  0  0  0
   -0.9816    1.8416    0.1544 O   0  0  0  0  0  0  0  0  0  0  0  0
    0.8235    1.6462    1.4801 N   0  0  0  0  0  0  0  0  0  0  0  0
    1.6183    1.0435    1.7020 H   0  0  0  0  0  0  0  0  0  0  0  0
    0.7895    2.9929    2.0404 C   0  0  0  0  0  0  0  0  0  0  0  0
   -0.2344    3.2522    2.3130 H   0  0  0  0  0  0  0  0  0  0  0  0
    1.4265    3.0377    2.9233 H   0  0  0  0  0  0  0  0  0  0  0  0
    1.1511    3.7014    1.2950 H   0  0  0  0  0  0  0  0  0  0  0  0
  5  6  2  0  0  0  0
  5  7  1  0  0  0  0
  2  3  1  0  0  0  0
  2  4  1  0  0  0  0
  2  5  1  0  0  0  0
  1  2  1  0  0  0  0
 17 18  2  0  0  0  0
 17 19  1  0  0  0  0
 14 15  1  0  0  0  0
 14 16  2  0  0  0  0
 11 12  1  0  0  0  0
 11 13  1  0  0  0  0
 11 14  1  0  0  0  0
  9 10  1  0  0  0  0
  9 11  1  0  0  0  0
  9 17  1  0  0  0  0
  7  8  1  0  0  0  0
  7  9  1  0  0  0  0
 21 22  1  0  0  0  0
 21 23  1  0  0  0  0
 21 24  1  0  0  0  0
 19 20  1  0  0  0  0
 19 21  1  0  0  0  0
M  CHG  1  15  -1
M  END
$$$$
default_name
  -OEChem-02102213163D

 24 23  0     1  0  0  0  0  0999 V2000
   -2.8347   -3.7166    0.8034 H   0  0  0  0  0  0  0  0  0  0  0  0
   -2.7728   -2.7096    0.3954 C   0  0  0  0  0  0  0  0  0  0  0  0
   -3.4267   -2.0426    0.9524 H   0  0  0  0  0  0  0  0  0  0  0  0
   -3.0538   -2.7186   -0.6556 H   0  0  0  0  0  0  0  0  0  0  0  0
   -1.3498   -2.2206    0.5184 C   0  0  0  0  0  0  0  0  0  0  0  0
   -0.4997   -2.9426    1.0194 O   0  0  0  0  0  0  0  0  0  0  0  0
   -1.1198   -0.9926    0.0674 N   0  0  0  0  0  0  0  0  0  0  0  0
   -1.8978   -0.4486   -0.2716 H   0  0  0  0  0  0  0  0  0  0  0  0
    0.1693   -0.2866    0.0854 C   0  0  1  0  0  0  0  0  0  0  0  0
    0.8425   -0.7905    0.7811 H   0  0  0  0  0  0  0  0  0  0  0  0
    0.7993   -0.3404   -1.3233 C   0  0  0  0  0  0  0  0  0  0  0  0
    0.4728   -1.2566   -1.8183 H   0  0  0  0  0  0  0  0  0  0  0  0
    0.4277    0.5043   -1.9074 H   0  0  0  0  0  0  0  0  0  0  0  0
    2.3359   -0.3279   -1.3354 C   0  0  0  0  0  0  0  0  0  0  0  0
    2.9227    0.6067   -1.9302 O   0  5  0  0  0  0  0  0  0  0  0  0
    2.9155   -1.2739   -0.7598 O   0  0  0  0  0  0  0  0  0  0  0  0
   -0.0374    1.1645    0.5781 C   0  0  0  0  0  0  0  0  0  0  0  0
   -0.9816    1.8416    0.1544 O   0  0  0  0  0  0  0  0  0  0  0  0
    0.8235    1.6462    1.4801 N   0  0  0  0  0  0  0  0  0  0  0  0
    1.6183    1.0435    1.7020 H   0  0  0  0  0  0  0  0  0  0  0  0
    0.7895    2.9929    2.0404 C   0  0  0  0  0  0  0  0  0  0  0  0
   -0.2344    3.2522    2.3130 H   0  0  0  0  0  0  0  0  0  0  0  0
    1.4265    3.0377    2.9233 H   0  0  0  0  0  0  0  0  0  0  0  0
    1.1511    3.7014    1.2950 H   0  0  0  0  0  0  0  0  0  0  0  0
  5  6  2  0  0  0  0
  5  7  1  0  0  0  0
  2  3  1  0  0  0  0
  2  4  1  0  0  0  0
  2  5  1  0  0  0  0
  1  2  1  0  0  0  0
 17 18  2  0  0  0  0
 17 19  1  0  0  0  0
 14 15  1  0  0  0  0
 14 16  2  0  0  0  0
 11 12  1  0  0  0  0
 11 13  1  0  0  0  0
 11 14  1  0  0  0  0
  9 10  1  0  0  0  0
  9 11  1  0  0  0  0
  9 17  1  0  0  0  0
  7  8  1  0  0  0  0
  7  9  1  0  0  0  0
 21 22  1  0  0  0  0
 21 23  1  0  0  0  0
 21 24  1  0  0  0  0
 19 20  1  0  0  0  0
 19 21  1  0  0  0  0
M  CHG  1  15  -1
M  END
$$$$
default_name
  -OEChem-02102213163D

 24 23  0     1  0  0  0  0  0999 V2000
   -2.8347   -3.7166    0.8034 H   0  0  0  0  0  0  0  0  0  0  0  0
   -2.7728   -2.7096    0.3954 C   0  0  0  0  0  0  0  0  0  0  0  0
   -3.4267   -2.0426    0.9524 H   0  0  0  0  0  0  0  0  0  0  0  0
   -3.0538   -2.7186   -0.6556 H   0  0  0  0  0  0  0  0  0  0  0  0
   -1.3498   -2.2206    0.5184 C   0  0  0  0  0  0  0  0  0  0  0  0
   -0.4997   -2.9426    1.0194 O   0  0  0  0  0  0  0  0  0  0  0  0
   -1.1198   -0.9926    0.0674 N   0  0  0  0  0  0  0  0  0  0  0  0
   -1.8978   -0.4486   -0.2716 H   0  0  0  0  0  0  0  0  0  0  0  0
    0.1693   -0.2866    0.0854 C   0  0  1  0  0  0  0  0  0  0  0  0
    0.8425   -0.7905    0.7811 H   0  0  0  0  0  0  0  0  0  0  0  0
    0.7993   -0.3404   -1.3233 C   0  0  0  0  0  0  0  0  0  0  0  0
    0.4728   -1.2566   -1.8183 H   0  0  0  0  0  0  0  0  0  0  0  0
    0.4277    0.5043   -1.9074 H   0  0  0  0  0  0  0  0  0  0  0  0
    2.3359   -0.3279   -1.3354 C   0  0  0  0  0  0  0  0  0  0  0  0
    2.9238    0.7278   -1.6695 O   0  5  0  0  0  0  0  0  0  0  0  0
    2.9144   -1.3917   -1.0256 O   0  0  0  0  0  0  0  0  0  0  0  0
   -0.0374    1.1645    0.5781 C   0  0  0  0  0  0  0  0  0  0  0  0
   -0.9816    1.8416    0.1544 O   0  0  0  0  0  0  0  0  0  0  0  0
    0.8235    1.6462    1.4801 N   0  0  0  0  0  0  0  0  0  0  0  0
    1.6183    1.0435    1.7020 H   0  0  0  0  0  0  0  0  0  0  0  0
    0.7895    2.9929    2.0404 C   0  0  0  0  0  0  0  0  0  0  0  0
   -0.2344    3.2522    2.3130 H   0  0  0  0  0  0  0  0  0  0  0  0
    1.4265    3.0377    2.9233 H   0  0  0  0  0  0  0  0  0  0  0  0
    1.1511    3.7014    1.2950 H   0  0  0  0  0  0  0  0  0  0  0  0
  5  6  2  0  0  0  0
  5  7  1  0  0  0  0
  2  3  1  0  0  0  0
  2  4  1  0  0  0  0
  2  5  1  0  0  0  0
  1  2  1  0  0  0  0
 17 18  2  0  0  0  0
 17 19  1  0  0  0  0
 14 15  1  0  0  0  0
 14 16  2  0  0  0  0
 11 12  1  0  0  0  0
 11 13  1  0  0  0  0
 11 14  1  0  0  0  0
  9 10  1  0  0  0  0
  9 11  1  0  0  0  0
  9 17  1  0  0  0  0
  7  8  1  0  0  0  0
  7  9  1  0  0  0  0
 21 22  1  0  0  0  0
 21 23  1  0  0  0  0
 21 24  1  0  0  0  0
 19 20  1  0  0  0  0
 19 21  1  0  0  0  0
M  CHG  1  15  -1
M  END
$$$$
default_name
  -OEChem-02102213163D

 24 23  0     1  0  0  0  0  0999 V2000
   -2.8347   -3.7166    0.8034 H   0  0  0  0  0  0  0  0  0  0  0  0
   -2.7728   -2.7096    0.3954 C   0  0  0  0  0  0  0  0  0  0  0  0
   -3.4267   -2.0426    0.9524 H   0  0  0  0  0  0  0  0  0  0  0  0
   -3.0538   -2.7186   -0.6556 H   0  0  0  0  0  0  0  0  0  0  0  0
   -1.3498   -2.2206    0.5184 C   0  0  0  0  0  0  0  0  0  0  0  0
   -0.4997   -2.9426    1.0194 O   0  0  0  0  0  0  0  0  0  0  0  0
   -1.1198   -0.9926    0.0674 N   0  0  0  0  0  0  0  0  0  0  0  0
   -1.8978   -0.4486   -0.2716 H   0  0  0  0  0  0  0  0  0  0  0  0
    0.1693   -0.2866    0.0854 C   0  0  1  0  0  0  0  0  0  0  0  0
    0.8425   -0.7905    0.7811 H   0  0  0  0  0  0  0  0  0  0  0  0
    0.7993   -0.3404   -1.3233 C   0  0  0  0  0  0  0  0  0  0  0  0
    0.4728   -1.2566   -1.8183 H   0  0  0  0  0  0  0  0  0  0  0  0
    0.4277    0.5043   -1.9074 H   0  0  0  0  0  0  0  0  0  0  0  0
    2.3359   -0.3279   -1.3354 C   0  0  0  0  0  0  0  0  0  0  0  0
    2.9257    0.7772   -1.3863 O   0  5  0  0  0  0  0  0  0  0  0  0
    2.9124   -1.4366   -1.3129 O   0  0  0  0  0  0  0  0  0  0  0  0
   -0.0374    1.1645    0.5781 C   0  0  0  0  0  0  0  0  0  0  0  0
   -0.9816    1.8416    0.1544 O   0  0  0  0  0  0  0  0  0  0  0  0
    0.8235    1.6462    1.4801 N   0  0  0  0  0  0  0  0  0  0  0  0
    1.6183    1.0435    1.7020 H   0  0  0  0  0  0  0  0  0  0  0  0
    0.7895    2.9929    2.0404 C   0  0  0  0  0  0  0  0  0  0  0  0
   -0.2344    3.2522    2.3130 H   0  0  0  0  0  0  0  0  0  0  0  0
    1.4265    3.0377    2.9233 H   0  0  0  0  0  0  0  0  0  0  0  0
    1.1511    3.7014    1.2950 H   0  0  0  0  0  0  0  0  0  0  0  0
  5  6  2  0  0  0  0
  5  7  1  0  0  0  0
  2  3  1  0  0  0  0
  2  4  1  0  0  0  0
  2  5  1  0  0  0  0
  1  2  1  0  0  0  0
 17 18  2  0  0  0  0
 17 19  1  0  0  0  0
 14 15  1  0  0  0  0
 14 16  2  0  0  0  0
 11 12  1  0  0  0  0
 11 13  1  0  0  0  0
 11 14  1  0  0  0  0
  9 10  1  0  0  0  0
  9 11  1  0  0  0  0
  9 17  1  0  0  0  0
  7  8  1  0  0  0  0
  7  9  1  0  0  0  0
 21 22  1  0  0  0  0
 21 23  1  0  0  0  0
 21 24  1  0  0  0  0
 19 20  1  0  0  0  0
 19 21  1  0  0  0  0
M  CHG  1  15  -1
M  END
$$$$
default_name
  -OEChem-02102213163D

 24 23  0     1  0  0  0  0  0999 V2000
   -2.8347   -3.7166    0.8034 H   0  0  0  0  0  0  0  0  0  0  0  0
   -2.7728   -2.7096    0.3954 C   0  0  0  0  0  0  0  0  0  0  0  0
   -3.4267   -2.0426    0.9524 H   0  0  0  0  0  0  0  0  0  0  0  0
   -3.0538   -2.7186   -0.6556 H   0  0  0  0  0  0  0  0  0  0  0  0
   -1.3498   -2.2206    0.5184 C   0  0  0  0  0  0  0  0  0  0  0  0
   -0.4997   -2.9426    1.0194 O   0  0  0  0  0  0  0  0  0  0  0  0
   -1.1198   -0.9926    0.0674 N   0  0  0  0  0  0  0  0  0  0  0  0
   -1.8978   -0.4486   -0.2716 H   0  0  0  0  0  0  0  0  0  0  0  0
    0.1693   -0.2866    0.0854 C   0  0  1  0  0  0  0  0  0  0  0  0
    0.8425   -0.7905    0.7811 H   0  0  0  0  0  0  0  0  0  0  0  0
    0.7993   -0.3404   -1.3233 C   0  0  0  0  0  0  0  0  0  0  0  0
    0.4728   -1.2566   -1.8183 H   0  0  0  0  0  0  0  0  0  0  0  0
    0.4277    0.5043   -1.9074 H   0  0  0  0  0  0  0  0  0  0  0  0
    2.3359   -0.3279   -1.3354 C   0  0  0  0  0  0  0  0  0  0  0  0
    2.9281    0.7517   -1.0999 O   0  5  0  0  0  0  0  0  0  0  0  0
    2.9099   -1.4057   -1.6019 O   0  0  0  0  0  0  0  0  0  0  0  0
   -0.0374    1.1645    0.5781 C   0  0  0  0  0  0  0  0  0  0  0  0
   -0.9816    1.8416    0.1544 O   0  0  0  0  0  0  0  0  0  0  0  0
    0.8235    1.6462    1.4801 N   0  0  0  0  0  0  0  0  0  0  0  0
    1.6183    1.0435    1.7020 H   0  0  0  0  0  0  0  0  0  0  0  0
    0.7895    2.9929    2.0404 C   0  0  0  0  0  0  0  0  0  0  0  0
   -0.2344    3.2522    2.3130 H   0  0  0  0  0  0  0  0  0  0  0  0
    1.4265    3.0377    2.9233 H   0  0  0  0  0  0  0  0  0  0  0  0
    1.1511    3.7014    1.2950 H   0  0  0  0  0  0  0  0  0  0  0  0
  5  6  2  0  0  0  0
  5  7  1  0  0  0  0
  2  3  1  0  0  0  0
  2  4  1  0  0  0  0
  2  5  1  0  0  0  0
  1  2  1  0  0  0  0
 17 18  2  0  0  0  0
 17 19  1  0  0  0  0
 14 15  1  0  0  0  0
 14 16  2  0  0  0  0
 11 12  1  0  0  0  0
 11 13  1  0  0  0  0
 11 14  1  0  0  0  0
  9 10  1  0  0  0  0
  9 11  1  0  0  0  0
  9 17  1  0  0  0  0
  7  8  1  0  0  0  0
  7  9  1  0  0  0  0
 21 22  1  0  0  0  0
 21 23  1  0  0  0  0
 21 24  1  0  0  0  0
 19 20  1  0  0  0  0
 19 21  1  0  0  0  0
M  CHG  1  15  -1
M  END
$$$$
default_name
  -OEChem-02102213163D

 24 23  0     1  0  0  0  0  0999 V2000
   -2.8347   -3.7166    0.8034 H   0  0  0  0  0  0  0  0  0  0  0  0
   -2.7728   -2.7096    0.3954 C   0  0  0  0  0  0  0  0  0  0  0  0
   -3.4267   -2.0426    0.9524 H   0  0  0  0  0  0  0  0  0  0  0  0
   -3.0538   -2.7186   -0.6556 H   0  0  0  0  0  0  0  0  0  0  0  0
   -1.3498   -2.2206    0.5184 C   0  0  0  0  0  0  0  0  0  0  0  0
   -0.4997   -2.9426    1.0194 O   0  0  0  0  0  0  0  0  0  0  0  0
   -1.1198   -0.9926    0.0674 N   0  0  0  0  0  0  0  0  0  0  0  0
   -1.8978   -0.4486   -0.2716 H   0  0  0  0  0  0  0  0  0  0  0  0
    0.1693   -0.2866    0.0854 C   0  0  1  0  0  0  0  0  0  0  0  0
    0.8425   -0.7905    0.7811 H   0  0  0  0  0  0  0  0  0  0  0  0
    0.7993   -0.3404   -1.3233 C   0  0  0  0  0  0  0  0  0  0  0  0
    0.4728   -1.2566   -1.8183 H   0  0  0  0  0  0  0  0  0  0  0  0
    0.4277    0.5043   -1.9074 H   0  0  0  0  0  0  0  0  0  0  0  0
    2.3359   -0.3279   -1.3354 C   0  0  0  0  0  0  0  0  0  0  0  0
    2.9311    0.6529   -0.8300 O   0  5  0  0  0  0  0  0  0  0  0  0
    2.9069   -1.3010   -1.8732 O   0  0  0  0  0  0  0  0  0  0  0  0
   -0.0374    1.1645    0.5781 C   0  0  0  0  0  0  0  0  0  0  0  0
   -0.9816    1.8416    0.1544 O   0  0  0  0  0  0  0  0  0  0  0  0
    0.8235    1.6462    1.4801 N   0  0  0  0  0  0  0  0  0  0  0  0
    1.6183    1.0435    1.7020 H   0  0  0  0  0  0  0  0  0  0  0  0
    0.7895    2.9929    2.0404 C   0  0  0  0  0  0  0  0  0  0  0  0
   -0.2344    3.2522    2.3130 H   0  0  0  0  0  0  0  0  0  0  0  0
    1.4265    3.0377    2.9233 H   0  0  0  0  0  0  0  0  0  0  0  0
    1.1511    3.7014    1.2950 H   0  0  0  0  0  0  0  0  0  0  0  0
  5  6  2  0  0  0  0
  5  7  1  0  0  0  0
  2  3  1  0  0  0  0
  2  4  1  0  0  0  0
  2  5  1  0  0  0  0
  1  2  1  0  0  0  0
 17 18  2  0  0  0  0
 17 19  1  0  0  0  0
 14 15  1  0  0  0  0
 14 16  2  0  0  0  0
 11 12  1  0  0  0  0
 11 13  1  0  0  0  0
 11 14  1  0  0  0  0
  9 10  1  0  0  0  0
  9 11  1  0  0  0  0
  9 17  1  0  0  0  0
  7  8  1  0  0  0  0
  7  9  1  0  0  0  0
 21 22  1  0  0  0  0
 21 23  1  0  0  0  0
 21 24  1  0  0  0  0
 19 20  1  0  0  0  0
 19 21  1  0  0  0  0
M  CHG  1  15  -1
M  END
$$$$
default_name
  -OEChem-02102213163D

 24 23  0     1  0  0  0  0  0999 V2000
   -2.8347   -3.7166    0.8034 H   0  0  0  0  0  0  0  0  0  0  0  0
   -2.7728   -2.7096    0.3954 C   0  0  0  0  0  0  0  0  0  0  0  0
   -3.4267   -2.0426    0.9524 H   0  0  0  0  0  0  0  0  0  0  0  0
   -3.0538   -2.7186   -0.6556 H   0  0  0  0  0  0  0  0  0  0  0  0
   -1.3498   -2.2206    0.5184 C   0  0  0  0  0  0  0  0  0  0  0  0
   -0.4997   -2.9426    1.0194 O   0  0  0  0  0  0  0  0  0  0  0  0
   -1.1198   -0.9926    0.0674 N   0  0  0  0  0  0  0  0  0  0  0  0
   -1.8978   -0.4486   -0.2716 H   0  0  0  0  0  0  0  0  0  0  0  0
    0.1693   -0.2866    0.0854 C   0  0  1  0  0  0  0  0  0  0  0  0
    0.8425   -0.7905    0.7811 H   0  0  0  0  0  0  0  0  0  0  0  0
    0.7993   -0.3404   -1.3233 C   0  0  0  0  0  0  0  0  0  0  0  0
    0.4728   -1.2566   -1.8183 H   0  0  0  0  0  0  0  0  0  0  0  0
    0.4277    0.5043   -1.9074 H   0  0  0  0  0  0  0  0  0  0  0  0
    2.3359   -0.3279   -1.3354 C   0  0  0  0  0  0  0  0  0  0  0  0
    2.9343    0.4876   -0.5948 O   0  5  0  0  0  0  0  0  0  0  0  0
    2.9037   -1.1297   -2.1080 O   0  0  0  0  0  0  0  0  0  0  0  0
   -0.0374    1.1645    0.5781 C   0  0  0  0  0  0  0  0  0  0  0  0
   -0.9816    1.8416    0.1544 O   0  0  0  0  0  0  0  0  0  0  0  0
    0.8235    1.6462    1.4801 N   0  0  0  0  0  0  0  0  0  0  0  0
    1.6183    1.0435    1.7020 H   0  0  0  0  0  0  0  0  0  0  0  0
    0.7895    2.9929    2.0404 C   0  0  0  0  0  0  0  0  0  0  0  0
   -0.2344    3.2522    2.3130 H   0  0  0  0  0  0  0  0  0  0  0  0
    1.4265    3.0377    2.9233 H   0  0  0  0  0  0  0  0  0  0  0  0
    1.1511    3.7014    1.2950 H   0  0  0  0  0  0  0  0  0  0  0  0
  5  6  2  0  0  0  0
  5  7  1  0  0  0  0
  2  3  1  0  0  0  0
  2  4  1  0  0  0  0
  2  5  1  0  0  0  0
  1  2  1  0  0  0  0
 17 18  2  0  0  0  0
 17 19  1  0  0  0  0
 14 15  1  0  0  0  0
 14 16  2  0  0  0  0
 11 12  1  0  0  0  0
 11 13  1  0  0  0  0
 11 14  1  0  0  0  0
  9 10  1  0  0  0  0
  9 11  1  0  0  0  0
  9 17  1  0  0  0  0
  7  8  1  0  0  0  0
  7  9  1  0  0  0  0
 21 22  1  0  0  0  0
 21 23  1  0  0  0  0
 21 24  1  0  0  0  0
 19 20  1  0  0  0  0
 19 21  1  0  0  0  0
M  CHG  1  15  -1
M  END
$$$$
default_name
  -OEChem-02102213163D

 24 23  0     1  0  0  0  0  0999 V2000
   -2.8347   -3.7166    0.8034 H   0  0  0  0  0  0  0  0  0  0  0  0
   -2.7728   -2.7096    0.3954 C   0  0  0  0  0  0  0  0  0  0  0  0
   -3.4267   -2.0426    0.9524 H   0  0  0  0  0  0  0  0  0  0  0  0
   -3.0538   -2.7186   -0.6556 H   0  0  0  0  0  0  0  0  0  0  0  0
   -1.3498   -2.2206    0.5184 C   0  0  0  0  0  0  0  0  0  0  0  0
   -0.4997   -2.9426    1.0194 O   0  0  0  0  0  0  0  0  0  0  0  0
   -1.1198   -0.9926    0.0674 N   0  0  0  0  0  0  0  0  0  0  0  0
   -1.8978   -0.4486   -0.2716 H   0  0  0  0  0  0  0  0  0  0  0  0
    0.1693   -0.2866    0.0854 C   0  0  1  0  0  0  0  0  0  0  0  0
    0.8425   -0.7905    0.7811 H   0  0  0  0  0  0  0  0  0  0  0  0
    0.7993   -0.3404   -1.3233 C   0  0  0  0  0  0  0  0  0  0  0  0
    0.4728   -1.2566   -1.8183 H   0  0  0  0  0  0  0  0  0  0  0  0
    0.4277    0.5043   -1.9074 H   0  0  0  0  0  0  0  0  0  0  0  0
    2.3359   -0.3279   -1.3354 C   0  0  0  0  0  0  0  0  0  0  0  0
    2.9375    0.2671   -0.4104 O   0  5  0  0  0  0  0  0  0  0  0  0
    2.9004   -0.9034   -2.2906 O   0  0  0  0  0  0  0  0  0  0  0  0
   -0.0374    1.1645    0.5781 C   0  0  0  0  0  0  0  0  0  0  0  0
   -0.9816    1.8416    0.1544 O   0  0  0  0  0  0  0  0  0  0  0  0
    0.8235    1.6462    1.4801 N   0  0  0  0  0  0  0  0  0  0  0  0
    1.6183    1.0435    1.7020 H   0  0  0  0  0  0  0  0  0  0  0  0
    0.7895    2.9929    2.0404 C   0  0  0  0  0  0  0  0  0  0  0  0
   -0.2344    3.2522    2.3130 H   0  0  0  0  0  0  0  0  0  0  0  0
    1.4265    3.0377    2.9233 H   0  0  0  0  0  0  0  0  0  0  0  0
    1.1511    3.7014    1.2950 H   0  0  0  0  0  0  0  0  0  0  0  0
  5  6  2  0  0  0  0
  5  7  1  0  0  0  0
  2  3  1  0  0  0  0
  2  4  1  0  0  0  0
  2  5  1  0  0  0  0
  1  2  1  0  0  0  0
 17 18  2  0  0  0  0
 17 19  1  0  0  0  0
 14 15  1  0  0  0  0
 14 16  2  0  0  0  0
 11 12  1  0  0  0  0
 11 13  1  0  0  0  0
 11 14  1  0  0  0  0
  9 10  1  0  0  0  0
  9 11  1  0  0  0  0
  9 17  1  0  0  0  0
  7  8  1  0  0  0  0
  7  9  1  0  0  0  0
 21 22  1  0  0  0  0
 21 23  1  0  0  0  0
 21 24  1  0  0  0  0
 19 20  1  0  0  0  0
 19 21  1  0  0  0  0
M  CHG  1  15  -1
M  END
$$$$
default_name
  -OEChem-02102213163D

 24 23  0     1  0  0  0  0  0999 V2000
   -2.8347   -3.7166    0.8034 H   0  0  0  0  0  0  0  0  0  0  0  0
   -2.7728   -2.7096    0.3954 C   0  0  0  0  0  0  0  0  0  0  0  0
   -3.4267   -2.0426    0.9524 H   0  0  0  0  0  0  0  0  0  0  0  0
   -3.0538   -2.7186   -0.6556 H   0  0  0  0  0  0  0  0  0  0  0  0
   -1.3498   -2.2206    0.5184 C   0  0  0  0  0  0  0  0  0  0  0  0
   -0.4997   -2.9426    1.0194 O   0  0  0  0  0  0  0  0  0  0  0  0
   -1.1198   -0.9926    0.0674 N   0  0  0  0  0  0  0  0  0  0  0  0
   -1.8978   -0.4486   -0.2716 H   0  0  0  0  0  0  0  0  0  0  0  0
    0.1693   -0.2866    0.0854 C   0  0  1  0  0  0  0  0  0  0  0  0
    0.8425   -0.7905    0.7811 H   0  0  0  0  0  0  0  0  0  0  0  0
    0.7993   -0.3404   -1.3233 C   0  0  0  0  0  0  0  0  0  0  0  0
    0.4728   -1.2566   -1.8183 H   0  0  0  0  0  0  0  0  0  0  0  0
    0.4277    0.5043   -1.9074 H   0  0  0  0  0  0  0  0  0  0  0  0
    2.3359   -0.3279   -1.3354 C   0  0  0  0  0  0  0  0  0  0  0  0
    2.9406    0.0063   -0.2893 O   0  5  0  0  0  0  0  0  0  0  0  0
    2.8973   -0.6376   -2.4083 O   0  0  0  0  0  0  0  0  0  0  0  0
   -0.0374    1.1645    0.5781 C   0  0  0  0  0  0  0  0  0  0  0  0
   -0.9816    1.8416    0.1544 O   0  0  0  0  0  0  0  0  0  0  0  0
    0.8235    1.6462    1.4801 N   0  0  0  0  0  0  0  0  0  0  0  0
    1.6183    1.0435    1.7020 H   0  0  0  0  0  0  0  0  0  0  0  0
    0.7895    2.9929    2.0404 C   0  0  0  0  0  0  0  0  0  0  0  0
   -0.2344    3.2522    2.3130 H   0  0  0  0  0  0  0  0  0  0  0  0
    1.4265    3.0377    2.9233 H   0  0  0  0  0  0  0  0  0  0  0  0
    1.1511    3.7014    1.2950 H   0  0  0  0  0  0  0  0  0  0  0  0
  5  6  2  0  0  0  0
  5  7  1  0  0  0  0
  2  3  1  0  0  0  0
  2  4  1  0  0  0  0
  2  5  1  0  0  0  0
  1  2  1  0  0  0  0
 17 18  2  0  0  0  0
 17 19  1  0  0  0  0
 14 15  1  0  0  0  0
 14 16  2  0  0  0  0
 11 12  1  0  0  0  0
 11 13  1  0  0  0  0
 11 14  1  0  0  0  0
  9 10  1  0  0  0  0
  9 11  1  0  0  0  0
  9 17  1  0  0  0  0
  7  8  1  0  0  0  0
  7  9  1  0  0  0  0
 21 22  1  0  0  0  0
 21 23  1  0  0  0  0
 21 24  1  0  0  0  0
 19 20  1  0  0  0  0
 19 21  1  0  0  0  0
M  CHG  1  15  -1
M  END
$$$$
default_name
  -OEChem-02102213163D

 24 23  0     1  0  0  0  0  0999 V2000
   -2.8347   -3.7166    0.8034 H   0  0  0  0  0  0  0  0  0  0  0  0
   -2.7728   -2.7096    0.3954 C   0  0  0  0  0  0  0  0  0  0  0  0
   -3.4267   -2.0426    0.9524 H   0  0  0  0  0  0  0  0  0  0  0  0
   -3.0538   -2.7186   -0.6556 H   0  0  0  0  0  0  0  0  0  0  0  0
   -1.3498   -2.2206    0.5184 C   0  0  0  0  0  0  0  0  0  0  0  0
   -0.4997   -2.9426    1.0194 O   0  0  0  0  0  0  0  0  0  0  0  0
   -1.1198   -0.9926    0.0674 N   0  0  0  0  0  0  0  0  0  0  0  0
   -1.8978   -0.4486   -0.2716 H   0  0  0  0  0  0  0  0  0  0  0  0
    0.1693   -0.2866    0.0854 C   0  0  1  0  0  0  0  0  0  0  0  0
    0.8425   -0.7905    0.7811 H   0  0  0  0  0  0  0  0  0  0  0  0
    0.7993   -0.3404   -1.3233 C   0  0  0  0  0  0  0  0  0  0  0  0
    0.4728   -1.2566   -1.8183 H   0  0  0  0  0  0  0  0  0  0  0  0
    0.4277    0.5043   -1.9074 H   0  0  0  0  0  0  0  0  0  0  0  0
    2.3359   -0.3279   -1.3354 C   0  0  0  0  0  0  0  0  0  0  0  0
    2.9433   -0.2769   -0.2399 O   0  5  0  0  0  0  0  0  0  0  0  0
    2.8946   -0.3504   -2.4532 O   0  0  0  0  0  0  0  0  0  0  0  0
   -0.0374    1.1645    0.5781 C   0  0  0  0  0  0  0  0  0  0  0  0
   -0.9816    1.8416    0.1544 O   0  0  0  0  0  0  0  0  0  0  0  0
    0.8235    1.6462    1.4801 N   0  0  0  0  0  0  0  0  0  0  0  0
    1.6183    1.0435    1.7020 H   0  0  0  0  0  0  0  0  0  0  0  0
    0.7895    2.9929    2.0404 C   0  0  0  0  0  0  0  0  0  0  0  0
   -0.2344    3.2522    2.3130 H   0  0  0  0  0  0  0  0  0  0  0  0
    1.4265    3.0377    2.9233 H   0  0  0  0  0  0  0  0  0  0  0  0
    1.1511    3.7014    1.2950 H   0  0  0  0  0  0  0  0  0  0  0  0
  5  6  2  0  0  0  0
  5  7  1  0  0  0  0
  2  3  1  0  0  0  0
  2  4  1  0  0  0  0
  2  5  1  0  0  0  0
  1  2  1  0  0  0  0
 17 18  2  0  0  0  0
 17 19  1  0  0  0  0
 14 15  1  0  0  0  0
 14 16  2  0  0  0  0
 11 12  1  0  0  0  0
 11 13  1  0  0  0  0
 11 14  1  0  0  0  0
  9 10  1  0  0  0  0
  9 11  1  0  0  0  0
  9 17  1  0  0  0  0
  7  8  1  0  0  0  0
  7  9  1  0  0  0  0
 21 22  1  0  0  0  0
 21 23  1  0  0  0  0
 21 24  1  0  0  0  0
 19 20  1  0  0  0  0
 19 21  1  0  0  0  0
M  CHG  1  15  -1
M  END
$$$$
default_name
  -OEChem-02102213163D

 24 23  0     1  0  0  0  0  0999 V2000
   -2.8347   -3.7166    0.8034 H   0  0  0  0  0  0  0  0  0  0  0  0
   -2.7728   -2.7096    0.3954 C   0  0  0  0  0  0  0  0  0  0  0  0
   -3.4267   -2.0426    0.9524 H   0  0  0  0  0  0  0  0  0  0  0  0
   -3.0538   -2.7186   -0.6556 H   0  0  0  0  0  0  0  0  0  0  0  0
   -1.3498   -2.2206    0.5184 C   0  0  0  0  0  0  0  0  0  0  0  0
   -0.4997   -2.9426    1.0194 O   0  0  0  0  0  0  0  0  0  0  0  0
   -1.1198   -0.9926    0.0674 N   0  0  0  0  0  0  0  0  0  0  0  0
   -1.8978   -0.4486   -0.2716 H   0  0  0  0  0  0  0  0  0  0  0  0
    0.1693   -0.2866    0.0854 C   0  0  1  0  0  0  0  0  0  0  0  0
    0.8425   -0.7905    0.7811 H   0  0  0  0  0  0  0  0  0  0  0  0
    0.7993   -0.3404   -1.3233 C   0  0  0  0  0  0  0  0  0  0  0  0
    0.4728   -1.2566   -1.8183 H   0  0  0  0  0  0  0  0  0  0  0  0
    0.4277    0.5043   -1.9074 H   0  0  0  0  0  0  0  0  0  0  0  0
    2.3359   -0.3279   -1.3354 C   0  0  0  0  0  0  0  0  0  0  0  0
    2.9454   -0.5632   -0.2655 O   0  5  0  0  0  0  0  0  0  0  0  0
    2.8925   -0.0613   -2.4223 O   0  0  0  0  0  0  0  0  0  0  0  0
   -0.0374    1.1645    0.5781 C   0  0  0  0  0  0  0  0  0  0  0  0
   -0.9816    1.8416    0.1544 O   0  0  0  0  0  0  0  0  0  0  0  0
    0.8235    1.6462    1.4801 N   0  0  0  0  0  0  0  0  0  0  0  0
    1.6183    1.0435    1.7020 H   0  0  0  0  0  0  0  0  0  0  0  0
    0.7895    2.9929    2.0404 C   0  0  0  0  0  0  0  0  0  0  0  0
   -0.2344    3.2522    2.3130 H   0  0  0  0  0  0  0  0  0  0  0  0
    1.4265    3.0377    2.9233 H   0  0  0  0  0  0  0  0  0  0  0  0
    1.1511    3.7014    1.2950 H   0  0  0  0  0  0  0  0  0  0  0  0
  5  6  2  0  0  0  0
  5  7  1  0  0  0  0
  2  3  1  0  0  0  0
  2  4  1  0  0  0  0
  2  5  1  0  0  0  0
  1  2  1  0  0  0  0
 17 18  2  0  0  0  0
 17 19  1  0  0  0  0
 14 15  1  0  0  0  0
 14 16  2  0  0  0  0
 11 12  1  0  0  0  0
 11 13  1  0  0  0  0
 11 14  1  0  0  0  0
  9 10  1  0  0  0  0
  9 11  1  0  0  0  0
  9 17  1  0  0  0  0
  7  8  1  0  0  0  0
  7  9  1  0  0  0  0
 21 22  1  0  0  0  0
 21 23  1  0  0  0  0
 21 24  1  0  0  0  0
 19 20  1  0  0  0  0
 19 21  1  0  0  0  0
M  CHG  1  15  -1
M  END
$$$$
default_name
  -OEChem-02102213163D

 24 23  0     1  0  0  0  0  0999 V2000
   -2.8347   -3.7166    0.8034 H   0  0  0  0  0  0  0  0  0  0  0  0
   -2.7728   -2.7096    0.3954 C   0  0  0  0  0  0  0  0  0  0  0  0
   -3.4267   -2.0426    0.9524 H   0  0  0  0  0  0  0  0  0  0  0  0
   -3.0538   -2.7186   -0.6556 H   0  0  0  0  0  0  0  0  0  0  0  0
   -1.3498   -2.2206    0.5184 C   0  0  0  0  0  0  0  0  0  0  0  0
   -0.4997   -2.9426    1.0194 O   0  0  0  0  0  0  0  0  0  0  0  0
   -1.1198   -0.9926    0.0674 N   0  0  0  0  0  0  0  0  0  0  0  0
   -1.8978   -0.4486   -0.2716 H   0  0  0  0  0  0  0  0  0  0  0  0
    0.1693   -0.2866    0.0854 C   0  0  1  0  0  0  0  0  0  0  0  0
    0.8425   -0.7905    0.7811 H   0  0  0  0  0  0  0  0  0  0  0  0
    0.7993   -0.3404   -1.3233 C   0  0  0  0  0  0  0  0  0  0  0  0
    0.4728   -1.2566   -1.8183 H   0  0  0  0  0  0  0  0  0  0  0  0
    0.4277    0.5043   -1.9074 H   0  0  0  0  0  0  0  0  0  0  0  0
    2.3359   -0.3279   -1.3354 C   0  0  0  0  0  0  0  0  0  0  0  0
    2.9468   -0.8332   -0.3642 O   0  5  0  0  0  0  0  0  0  0  0  0
    2.8912    0.2099   -2.3176 O   0  0  0  0  0  0  0  0  0  0  0  0
   -0.0374    1.1645    0.5781 C   0  0  0  0  0  0  0  0  0  0  0  0
   -0.9816    1.8416    0.1544 O   0  0  0  0  0  0  0  0  0  0  0  0
    0.8235    1.6462    1.4801 N   0  0  0  0  0  0  0  0  0  0  0  0
    1.6183    1.0435    1.7020 H   0  0  0  0  0  0  0  0  0  0  0  0
    0.7895    2.9929    2.0404 C   0  0  0  0  0  0  0  0  0  0  0  0
   -0.2344    3.2522    2.3130 H   0  0  0  0  0  0  0  0  0  0  0  0
    1.4265    3.0377    2.9233 H   0  0  0  0  0  0  0  0  0  0  0  0
    1.1511    3.7014    1.2950 H   0  0  0  0  0  0  0  0  0  0  0  0
  5  6  2  0  0  0  0
  5  7  1  0  0  0  0
  2  3  1  0  0  0  0
  2  4  1  0  0  0  0
  2  5  1  0  0  0  0
  1  2  1  0  0  0  0
 17 18  2  0  0  0  0
 17 19  1  0  0  0  0
 14 15  1  0  0  0  0
 14 16  2  0  0  0  0
 11 12  1  0  0  0  0
 11 13  1  0  0  0  0
 11 14  1  0  0  0  0
  9 10  1  0  0  0  0
  9 11  1  0  0  0  0
  9 17  1  0  0  0  0
  7  8  1  0  0  0  0
  7  9  1  0  0  0  0
 21 22  1  0  0  0  0
 21 23  1  0  0  0  0
 21 24  1  0  0  0  0
 19 20  1  0  0  0  0
 19 21  1  0  0  0  0
M  CHG  1  15  -1
M  END
$$$$
default_name
  -OEChem-02102213163D

 24 23  0     1  0  0  0  0  0999 V2000
   -2.8347   -3.7166    0.8034 H   0  0  0  0  0  0  0  0  0  0  0  0
   -2.7728   -2.7096    0.3954 C   0  0  0  0  0  0  0  0  0  0  0  0
   -3.4267   -2.0426    0.9524 H   0  0  0  0  0  0  0  0  0  0  0  0
   -3.0538   -2.7186   -0.6556 H   0  0  0  0  0  0  0  0  0  0  0  0
   -1.3498   -2.2206    0.5184 C   0  0  0  0  0  0  0  0  0  0  0  0
   -0.4997   -2.9426    1.0194 O   0  0  0  0  0  0  0  0  0  0  0  0
   -1.1198   -0.9926    0.0674 N   0  0  0  0  0  0  0  0  0  0  0  0
   -1.8978   -0.4486   -0.2716 H   0  0  0  0  0  0  0  0  0  0  0  0
    0.1693   -0.2866    0.0854 C   0  0  1  0  0  0  0  0  0  0  0  0
    0.8425   -0.7905    0.7811 H   0  0  0  0  0  0  0  0  0  0  0  0
    0.7993   -0.3404   -1.3233 C   0  0  0  0  0  0  0  0  0  0  0  0
    0.4728   -1.2566   -1.8183 H   0  0  0  0  0  0  0  0  0  0  0  0
    0.4277    0.5043   -1.9074 H   0  0  0  0  0  0  0  0  0  0  0  0
    2.3359   -0.3279   -1.3354 C   0  0  0  0  0  0  0  0  0  0  0  0
    2.9474   -1.0684   -0.5295 O   0  5  0  0  0  0  0  0  0  0  0  0
    2.8906    0.4448   -2.1463 O   0  0  0  0  0  0  0  0  0  0  0  0
   -0.0374    1.1645    0.5781 C   0  0  0  0  0  0  0  0  0  0  0  0
   -0.9816    1.8416    0.1544 O   0  0  0  0  0  0  0  0  0  0  0  0
    0.8235    1.6462    1.4801 N   0  0  0  0  0  0  0  0  0  0  0  0
    1.6183    1.0435    1.7020 H   0  0  0  0  0  0  0  0  0  0  0  0
    0.7895    2.9929    2.0404 C   0  0  0  0  0  0  0  0  0  0  0  0
   -0.2344    3.2522    2.3130 H   0  0  0  0  0  0  0  0  0  0  0  0
    1.4265    3.0377    2.9233 H   0  0  0  0  0  0  0  0  0  0  0  0
    1.1511    3.7014    1.2950 H   0  0  0  0  0  0  0  0  0  0  0  0
  5  6  2  0  0  0  0
  5  7  1  0  0  0  0
  2  3  1  0  0  0  0
  2  4  1  0  0  0  0
  2  5  1  0  0  0  0
  1  2  1  0  0  0  0
 17 18  2  0  0  0  0
 17 19  1  0  0  0  0
 14 15  1  0  0  0  0
 14 16  2  0  0  0  0
 11 12  1  0  0  0  0
 11 13  1  0  0  0  0
 11 14  1  0  0  0  0
  9 10  1  0  0  0  0
  9 11  1  0  0  0  0
  9 17  1  0  0  0  0
  7  8  1  0  0  0  0
  7  9  1  0  0  0  0
 21 22  1  0  0  0  0
 21 23  1  0  0  0  0
 21 24  1  0  0  0  0
 19 20  1  0  0  0  0
 19 21  1  0  0  0  0
M  CHG  1  15  -1
M  END
$$$$
default_name
  -OEChem-02102213163D

 24 23  0     1  0  0  0  0  0999 V2000
   -2.8347   -3.7166    0.8034 H   0  0  0  0  0  0  0  0  0  0  0  0
   -2.7728   -2.7096    0.3954 C   0  0  0  0  0  0  0  0  0  0  0  0
   -3.4267   -2.0426    0.9524 H   0  0  0  0  0  0  0  0  0  0  0  0
   -3.0538   -2.7186   -0.6556 H   0  0  0  0  0  0  0  0  0  0  0  0
   -1.3498   -2.2206    0.5184 C   0  0  0  0  0  0  0  0  0  0  0  0
   -0.4997   -2.9426    1.0194 O   0  0  0  0  0  0  0  0  0  0  0  0
   -1.1198   -0.9926    0.0674 N   0  0  0  0  0  0  0  0  0  0  0  0
   -1.8978   -0.4486   -0.2716 H   0  0  0  0  0  0  0  0  0  0  0  0
    0.1693   -0.2866    0.0854 C   0  0  1  0  0  0  0  0  0  0  0  0
    0.8425   -0.7905    0.7811 H   0  0  0  0  0  0  0  0  0  0  0  0
    0.7993   -0.3404   -1.3233 C   0  0  0  0  0  0  0  0  0  0  0  0
    0.4728   -1.2566   -1.8183 H   0  0  0  0  0  0  0  0  0  0  0  0
    0.4277    0.5043   -1.9074 H   0  0  0  0  0  0  0  0  0  0  0  0
    2.3359   -0.3279   -1.3354 C   0  0  0  0  0  0  0  0  0  0  0  0
    2.9472   -1.2528   -0.7501 O   0  5  0  0  0  0  0  0  0  0  0  0
    2.8909    0.6273   -1.9200 O   0  0  0  0  0  0  0  0  0  0  0  0
   -0.0374    1.1645    0.5781 C   0  0  0  0  0  0  0  0  0  0  0  0
   -0.9816    1.8416    0.1544 O   0  0  0  0  0  0  0  0  0  0  0  0
    0.8235    1.6462    1.4801 N   0  0  0  0  0  0  0  0  0  0  0  0
    1.6183    1.0435    1.7020 H   0  0  0  0  0  0  0  0  0  0  0  0
    0.7895    2.9929    2.0404 C   0  0  0  0  0  0  0  0  0  0  0  0
   -0.2344    3.2522    2.3130 H   0  0  0  0  0  0  0  0  0  0  0  0
    1.4265    3.0377    2.9233 H   0  0  0  0  0  0  0  0  0  0  0  0
    1.1511    3.7014    1.2950 H   0  0  0  0  0  0  0  0  0  0  0  0
  5  6  2  0  0  0  0
  5  7  1  0  0  0  0
  2  3  1  0  0  0  0
  2  4  1  0  0  0  0
  2  5  1  0  0  0  0
  1  2  1  0  0  0  0
 17 18  2  0  0  0  0
 17 19  1  0  0  0  0
 14 15  1  0  0  0  0
 14 16  2  0  0  0  0
 11 12  1  0  0  0  0
 11 13  1  0  0  0  0
 11 14  1  0  0  0  0
  9 10  1  0  0  0  0
  9 11  1  0  0  0  0
  9 17  1  0  0  0  0
  7  8  1  0  0  0  0
  7  9  1  0  0  0  0
 21 22  1  0  0  0  0
 21 23  1  0  0  0  0
 21 24  1  0  0  0  0
 19 20  1  0  0  0  0
 19 21  1  0  0  0  0
M  CHG  1  15  -1
M  END
$$$$
default_name
  -OEChem-02102213163D

 24 23  0     1  0  0  0  0  0999 V2000
   -2.8347   -3.7166    0.8034 H   0  0  0  0  0  0  0  0  0  0  0  0
   -2.7728   -2.7096    0.3954 C   0  0  0  0  0  0  0  0  0  0  0  0
   -3.4267   -2.0426    0.9524 H   0  0  0  0  0  0  0  0  0  0  0  0
   -3.0538   -2.7186   -0.6556 H   0  0  0  0  0  0  0  0  0  0  0  0
   -1.3498   -2.2206    0.5184 C   0  0  0  0  0  0  0  0  0  0  0  0
   -0.4997   -2.9426    1.0194 O   0  0  0  0  0  0  0  0  0  0  0  0
   -1.1198   -0.9926    0.0674 N   0  0  0  0  0  0  0  0  0  0  0  0
   -1.8978   -0.4486   -0.2716 H   0  0  0  0  0  0  0  0  0  0  0  0
    0.1693   -0.2866    0.0854 C   0  0  1  0  0  0  0  0  0  0  0  0
    0.8425   -0.7905    0.7811 H   0  0  0  0  0  0  0  0  0  0  0  0
    0.7993   -0.3404   -1.3233 C   0  0  0  0  0  0  0  0  0  0  0  0
    0.4728   -1.2566   -1.8183 H   0  0  0  0  0  0  0  0  0  0  0  0
    0.4277    0.5043   -1.9074 H   0  0  0  0  0  0  0  0  0  0  0  0
    2.3359   -0.3279   -1.3354 C   0  0  0  0  0  0  0  0  0  0  0  0
    2.9461   -1.3739   -1.0108 O   0  5  0  0  0  0  0  0  0  0  0  0
    2.8921    0.7451   -1.6542 O   0  0  0  0  0  0  0  0  0  0  0  0
   -0.0374    1.1645    0.5781 C   0  0  0  0  0  0  0  0  0  0  0  0
   -0.9816    1.8416    0.1544 O   0  0  0  0  0  0  0  0  0  0  0  0
    0.8235    1.6462    1.4801 N   0  0  0  0  0  0  0  0  0  0  0  0
    1.6183    1.0435    1.7020 H   0  0  0  0  0  0  0  0  0  0  0  0
    0.7895    2.9929    2.0404 C   0  0  0  0  0  0  0  0  0  0  0  0
   -0.2344    3.2522    2.3130 H   0  0  0  0  0  0  0  0  0  0  0  0
    1.4265    3.0377    2.9233 H   0  0  0  0  0  0  0  0  0  0  0  0
    1.1511    3.7014    1.2950 H   0  0  0  0  0  0  0  0  0  0  0  0
  5  6  2  0  0  0  0
  5  7  1  0  0  0  0
  2  3  1  0  0  0  0
  2  4  1  0  0  0  0
  2  5  1  0  0  0  0
  1  2  1  0  0  0  0
 17 18  2  0  0  0  0
 17 19  1  0  0  0  0
 14 15  1  0  0  0  0
 14 16  2  0  0  0  0
 11 12  1  0  0  0  0
 11 13  1  0  0  0  0
 11 14  1  0  0  0  0
  9 10  1  0  0  0  0
  9 11  1  0  0  0  0
  9 17  1  0  0  0  0
  7  8  1  0  0  0  0
  7  9  1  0  0  0  0
 21 22  1  0  0  0  0
 21 23  1  0  0  0  0
 21 24  1  0  0  0  0
 19 20  1  0  0  0  0
 19 21  1  0  0  0  0
M  CHG  1  15  -1
M  END
$$$$
default_name
  -OEChem-02102213163D

 24 23  0     1  0  0  0  0  0999 V2000
   -2.8347   -3.7166    0.8034 H   0  0  0  0  0  0  0  0  0  0  0  0
   -2.7728   -2.7096    0.3954 C   0  0  0  0  0  0  0  0  0  0  0  0
   -3.4267   -2.0426    0.9524 H   0  0  0  0  0  0  0  0  0  0  0  0
   -3.0538   -2.7186   -0.6556 H   0  0  0  0  0  0  0  0  0  0  0  0
   -1.3498   -2.2206    0.5184 C   0  0  0  0  0  0  0  0  0  0  0  0
   -0.4997   -2.9426    1.0194 O   0  0  0  0  0  0  0  0  0  0  0  0
   -1.1198   -0.9926    0.0674 N   0  0  0  0  0  0  0  0  0  0  0  0
   -1.8978   -0.4486   -0.2716 H   0  0  0  0  0  0  0  0  0  0  0  0
    0.1693   -0.2866    0.0854 C   0  0  1  0  0  0  0  0  0  0  0  0
    0.8425   -0.7905    0.7811 H   0  0  0  0  0  0  0  0  0  0  0  0
    0.7993   -0.3404   -1.3233 C   0  0  0  0  0  0  0  0  0  0  0  0
    0.4728   -1.2566   -1.8183 H   0  0  0  0  0  0  0  0  0  0  0  0
    0.4277    0.5043   -1.9074 H   0  0  0  0  0  0  0  0  0  0  0  0
    2.3359   -0.3279   -1.3354 C   0  0  0  0  0  0  0  0  0  0  0  0
    2.9442   -1.4233   -1.2940 O   0  5  0  0  0  0  0  0  0  0  0  0
    2.8940    0.7900   -1.3669 O   0  0  0  0  0  0  0  0  0  0  0  0
   -0.0374    1.1645    0.5781 C   0  0  0  0  0  0  0  0  0  0  0  0
   -0.9816    1.8416    0.1544 O   0  0  0  0  0  0  0  0  0  0  0  0
    0.8235    1.6462    1.4801 N   0  0  0  0  0  0  0  0  0  0  0  0
    1.6183    1.0435    1.7020 H   0  0  0  0  0  0  0  0  0  0  0  0
    0.7895    2.9929    2.0404 C   0  0  0  0  0  0  0  0  0  0  0  0
   -0.2344    3.2522    2.3130 H   0  0  0  0  0  0  0  0  0  0  0  0
    1.4265    3.0377    2.9233 H   0  0  0  0  0  0  0  0  0  0  0  0
    1.1511    3.7014    1.2950 H   0  0  0  0  0  0  0  0  0  0  0  0
  5  6  2  0  0  0  0
  5  7  1  0  0  0  0
  2  3  1  0  0  0  0
  2  4  1  0  0  0  0
  2  5  1  0  0  0  0
  1  2  1  0  0  0  0
 17 18  2  0  0  0  0
 17 19  1  0  0  0  0
 14 15  1  0  0  0  0
 14 16  2  0  0  0  0
 11 12  1  0  0  0  0
 11 13  1  0  0  0  0
 11 14  1  0  0  0  0
  9 10  1  0  0  0  0
  9 11  1  0  0  0  0
  9 17  1  0  0  0  0
  7  8  1  0  0  0  0
  7  9  1  0  0  0  0
 21 22  1  0  0  0  0
 21 23  1  0  0  0  0
 21 24  1  0  0  0  0
 19 20  1  0  0  0  0
 19 21  1  0  0  0  0
M  CHG  1  15  -1
M  END
$$$$
default_name
  -OEChem-02102213163D

 24 23  0     1  0  0  0  0  0999 V2000
   -2.8347   -3.7166    0.8034 H   0  0  0  0  0  0  0  0  0  0  0  0
   -2.7728   -2.7096    0.3954 C   0  0  0  0  0  0  0  0  0  0  0  0
   -3.4267   -2.0426    0.9524 H   0  0  0  0  0  0  0  0  0  0  0  0
   -3.0538   -2.7186   -0.6556 H   0  0  0  0  0  0  0  0  0  0  0  0
   -1.3498   -2.2206    0.5184 C   0  0  0  0  0  0  0  0  0  0  0  0
   -0.4997   -2.9426    1.0194 O   0  0  0  0  0  0  0  0  0  0  0  0
   -1.1198   -0.9926    0.0674 N   0  0  0  0  0  0  0  0  0  0  0  0
   -1.8978   -0.4486   -0.2716 H   0  0  0  0  0  0  0  0  0  0  0  0
    0.1693   -0.2866    0.0854 C   0  0  1  0  0  0  0  0  0  0  0  0
    0.8425   -0.7905    0.7811 H   0  0  0  0  0  0  0  0  0  0  0  0
    0.7993   -0.3404   -1.3233 C   0  0  0  0  0  0  0  0  0  0  0  0
    0.4728   -1.2566   -1.8183 H   0  0  0  0  0  0  0  0  0  0  0  0
    0.4277    0.5043   -1.9074 H   0  0  0  0  0  0  0  0  0  0  0  0
    2.3359   -0.3279   -1.3354 C   0  0  0  0  0  0  0  0  0  0  0  0
    2.9418   -1.3978   -1.5804 O   0  5  0  0  0  0  0  0  0  0  0  0
    2.8965    0.7591   -1.0779 O   0  0  0  0  0  0  0  0  0  0  0  0
   -0.0374    1.1645    0.5781 C   0  0  0  0  0  0  0  0  0  0  0  0
   -0.9816    1.8416    0.1544 O   0  0  0  0  0  0  0  0  0  0  0  0
    0.8235    1.6462    1.4801 N   0  0  0  0  0  0  0  0  0  0  0  0
    1.6183    1.0435    1.7020 H   0  0  0  0  0  0  0  0  0  0  0  0
    0.7895    2.9929    2.0404 C   0  0  0  0  0  0  0  0  0  0  0  0
   -0.2344    3.2522    2.3130 H   0  0  0  0  0  0  0  0  0  0  0  0
    1.4265    3.0377    2.9233 H   0  0  0  0  0  0  0  0  0  0  0  0
    1.1511    3.7014    1.2950 H   0  0  0  0  0  0  0  0  0  0  0  0
  5  6  2  0  0  0  0
  5  7  1  0  0  0  0
  2  3  1  0  0  0  0
  2  4  1  0  0  0  0
  2  5  1  0  0  0  0
  1  2  1  0  0  0  0
 17 18  2  0  0  0  0
 17 19  1  0  0  0  0
 14 15  1  0  0  0  0
 14 16  2  0  0  0  0
 11 12  1  0  0  0  0
 11 13  1  0  0  0  0
 11 14  1  0  0  0  0
  9 10  1  0  0  0  0
  9 11  1  0  0  0  0
  9 17  1  0  0  0  0
  7  8  1  0  0  0  0
  7  9  1  0  0  0  0
 21 22  1  0  0  0  0
 21 23  1  0  0  0  0
 21 24  1  0  0  0  0
 19 20  1  0  0  0  0
 19 21  1  0  0  0  0
M  CHG  1  15  -1
M  END
$$$$
default_name
  -OEChem-02102213163D

 24 23  0     1  0  0  0  0  0999 V2000
   -2.8347   -3.7166    0.8034 H   0  0  0  0  0  0  0  0  0  0  0  0
   -2.7728   -2.7096    0.3954 C   0  0  0  0  0  0  0  0  0  0  0  0
   -3.4267   -2.0426    0.9524 H   0  0  0  0  0  0  0  0  0  0  0  0
   -3.0538   -2.7186   -0.6556 H   0  0  0  0  0  0  0  0  0  0  0  0
   -1.3498   -2.2206    0.5184 C   0  0  0  0  0  0  0  0  0  0  0  0
   -0.4997   -2.9426    1.0194 O   0  0  0  0  0  0  0  0  0  0  0  0
   -1.1198   -0.9926    0.0674 N   0  0  0  0  0  0  0  0  0  0  0  0
   -1.8978   -0.4486   -0.2716 H   0  0  0  0  0  0  0  0  0  0  0  0
    0.1693   -0.2866    0.0854 C   0  0  1  0  0  0  0  0  0  0  0  0
    0.8425   -0.7905    0.7811 H   0  0  0  0  0  0  0  0  0  0  0  0
    0.7993   -0.3404   -1.3233 C   0  0  0  0  0  0  0  0  0  0  0  0
    0.4728   -1.2566   -1.8183 H   0  0  0  0  0  0  0  0  0  0  0  0
    0.4277    0.5043   -1.9074 H   0  0  0  0  0  0  0  0  0  0  0  0
    2.3359   -0.3279   -1.3354 C   0  0  0  0  0  0  0  0  0  0  0  0
    2.9388   -1.2990   -1.8503 O   0  5  0  0  0  0  0  0  0  0  0  0
    2.8995    0.6544   -0.8067 O   0  0  0  0  0  0  0  0  0  0  0  0
   -0.0374    1.1645    0.5781 C   0  0  0  0  0  0  0  0  0  0  0  0
   -0.9816    1.8416    0.1544 O   0  0  0  0  0  0  0  0  0  0  0  0
    0.8235    1.6462    1.4801 N   0  0  0  0  0  0  0  0  0  0  0  0
    1.6183    1.0435    1.7020 H   0  0  0  0  0  0  0  0  0  0  0  0
    0.7895    2.9929    2.0404 C   0  0  0  0  0  0  0  0  0  0  0  0
   -0.2344    3.2522    2.3130 H   0  0  0  0  0  0  0  0  0  0  0  0
    1.4265    3.0377    2.9233 H   0  0  0  0  0  0  0  0  0  0  0  0
    1.1511    3.7014    1.2950 H   0  0  0  0  0  0  0  0  0  0  0  0
  5  6  2  0  0  0  0
  5  7  1  0  0  0  0
  2  3  1  0  0  0  0
  2  4  1  0  0  0  0
  2  5  1  0  0  0  0
  1  2  1  0  0  0  0
 17 18  2  0  0  0  0
 17 19  1  0  0  0  0
 14 15  1  0  0  0  0
 14 16  2  0  0  0  0
 11 12  1  0  0  0  0
 11 13  1  0  0  0  0
 11 14  1  0  0  0  0
  9 10  1  0  0  0  0
  9 11  1  0  0  0  0
  9 17  1  0  0  0  0
  7  8  1  0  0  0  0
  7  9  1  0  0  0  0
 21 22  1  0  0  0  0
 21 23  1  0  0  0  0
 21 24  1  0  0  0  0
 19 20  1  0  0  0  0
 19 21  1  0  0  0  0
M  CHG  1  15  -1
M  END
$$$$
default_name
  -OEChem-02102213163D

 24 23  0     1  0  0  0  0  0999 V2000
   -2.8347   -3.7166    0.8034 H   0  0  0  0  0  0  0  0  0  0  0  0
   -2.7728   -2.7096    0.3954 C   0  0  0  0  0  0  0  0  0  0  0  0
   -3.4267   -2.0426    0.9524 H   0  0  0  0  0  0  0  0  0  0  0  0
   -3.0538   -2.7186   -0.6556 H   0  0  0  0  0  0  0  0  0  0  0  0
   -1.3498   -2.2206    0.5184 C   0  0  0  0  0  0  0  0  0  0  0  0
   -0.4997   -2.9426    1.0194 O   0  0  0  0  0  0  0  0  0  0  0  0
   -1.1198   -0.9926    0.0674 N   0  0  0  0  0  0  0  0  0  0  0  0
   -1.8978   -0.4486   -0.2716 H   0  0  0  0  0  0  0  0  0  0  0  0
    0.1693   -0.2866    0.0854 C   0  0  1  0  0  0  0  0  0  0  0  0
    0.8425   -0.7905    0.7811 H   0  0  0  0  0  0  0  0  0  0  0  0
    0.7993   -0.3404   -1.3233 C   0  0  0  0  0  0  0  0  0  0  0  0
    0.4728   -1.2566   -1.8183 H   0  0  0  0  0  0  0  0  0  0  0  0
    0.4277    0.5043   -1.9074 H   0  0  0  0  0  0  0  0  0  0  0  0
    2.3359   -0.3279   -1.3354 C   0  0  0  0  0  0  0  0  0  0  0  0
    2.9356   -1.1337   -2.0855 O   0  5  0  0  0  0  0  0  0  0  0  0
    2.9027    0.4831   -0.5718 O   0  0  0  0  0  0  0  0  0  0  0  0
   -0.0374    1.1645    0.5781 C   0  0  0  0  0  0  0  0  0  0  0  0
   -0.9816    1.8416    0.1544 O   0  0  0  0  0  0  0  0  0  0  0  0
    0.8235    1.6462    1.4801 N   0  0  0  0  0  0  0  0  0  0  0  0
    1.6183    1.0435    1.7020 H   0  0  0  0  0  0  0  0  0  0  0  0
    0.7895    2.9929    2.0404 C   0  0  0  0  0  0  0  0  0  0  0  0
   -0.2344    3.2522    2.3130 H   0  0  0  0  0  0  0  0  0  0  0  0
    1.4265    3.0377    2.9233 H   0  0  0  0  0  0  0  0  0  0  0  0
    1.1511    3.7014    1.2950 H   0  0  0  0  0  0  0  0  0  0  0  0
  5  6  2  0  0  0  0
  5  7  1  0  0  0  0
  2  3  1  0  0  0  0
  2  4  1  0  0  0  0
  2  5  1  0  0  0  0
  1  2  1  0  0  0  0
 17 18  2  0  0  0  0
 17 19  1  0  0  0  0
 14 15  1  0  0  0  0
 14 16  2  0  0  0  0
 11 12  1  0  0  0  0
 11 13  1  0  0  0  0
 11 14  1  0  0  0  0
  9 10  1  0  0  0  0
  9 11  1  0  0  0  0
  9 17  1  0  0  0  0
  7  8  1  0  0  0  0
  7  9  1  0  0  0  0
 21 22  1  0  0  0  0
 21 23  1  0  0  0  0
 21 24  1  0  0  0  0
 19 20  1  0  0  0  0
 19 21  1  0  0  0  0
M  CHG  1  15  -1
M  END
$$$$
default_name
  -OEChem-02102213163D

 24 23  0     1  0  0  0  0  0999 V2000
   -2.8347   -3.7166    0.8034 H   0  0  0  0  0  0  0  0  0  0  0  0
   -2.7728   -2.7096    0.3954 C   0  0  0  0  0  0  0  0  0  0  0  0
   -3.4267   -2.0426    0.9524 H   0  0  0  0  0  0  0  0  0  0  0  0
   -3.0538   -2.7186   -0.6556 H   0  0  0  0  0  0  0  0  0  0  0  0
   -1.3498   -2.2206    0.5184 C   0  0  0  0  0  0  0  0  0  0  0  0
   -0.4997   -2.9426    1.0194 O   0  0  0  0  0  0  0  0  0  0  0  0
   -1.1198   -0.9926    0.0674 N   0  0  0  0  0  0  0  0  0  0  0  0
   -1.8978   -0.4486   -0.2716 H   0  0  0  0  0  0  0  0  0  0  0  0
    0.1693   -0.2866    0.0854 C   0  0  1  0  0  0  0  0  0  0  0  0
    0.8425   -0.7905    0.7811 H   0  0  0  0  0  0  0  0  0  0  0  0
    0.7993   -0.3404   -1.3233 C   0  0  0  0  0  0  0  0  0  0  0  0
    0.4728   -1.2566   -1.8183 H   0  0  0  0  0  0  0  0  0  0  0  0
    0.4277    0.5043   -1.9074 H   0  0  0  0  0  0  0  0  0  0  0  0
    2.3359   -0.3279   -1.3354 C   0  0  0  0  0  0  0  0  0  0  0  0
    2.9324   -0.9132   -2.2699 O   0  5  0  0  0  0  0  0  0  0  0  0
    2.9060    0.2568   -0.3893 O   0  0  0  0  0  0  0  0  0  0  0  0
   -0.0374    1.1645    0.5781 C   0  0  0  0  0  0  0  0  0  0  0  0
   -0.9816    1.8416    0.1544 O   0  0  0  0  0  0  0  0  0  0  0  0
    0.8235    1.6462    1.4801 N   0  0  0  0  0  0  0  0  0  0  0  0
    1.6183    1.0435    1.7020 H   0  0  0  0  0  0  0  0  0  0  0  0
    0.7895    2.9929    2.0404 C   0  0  0  0  0  0  0  0  0  0  0  0
   -0.2344    3.2522    2.3130 H   0  0  0  0  0  0  0  0  0  0  0  0
    1.4265    3.0377    2.9233 H   0  0  0  0  0  0  0  0  0  0  0  0
    1.1511    3.7014    1.2950 H   0  0  0  0  0  0  0  0  0  0  0  0
  5  6  2  0  0  0  0
  5  7  1  0  0  0  0
  2  3  1  0  0  0  0
  2  4  1  0  0  0  0
  2  5  1  0  0  0  0
  1  2  1  0  0  0  0
 17 18  2  0  0  0  0
 17 19  1  0  0  0  0
 14 15  1  0  0  0  0
 14 16  2  0  0  0  0
 11 12  1  0  0  0  0
 11 13  1  0  0  0  0
 11 14  1  0  0  0  0
  9 10  1  0  0  0  0
  9 11  1  0  0  0  0
  9 17  1  0  0  0  0
  7  8  1  0  0  0  0
  7  9  1  0  0  0  0
 21 22  1  0  0  0  0
 21 23  1  0  0  0  0
 21 24  1  0  0  0  0
 19 20  1  0  0  0  0
 19 21  1  0  0  0  0
M  CHG  1  15  -1
M  END
$$$$
default_name
  -OEChem-02102213163D

 24 23  0     1  0  0  0  0  0999 V2000
   -2.8347   -3.7166    0.8034 H   0  0  0  0  0  0  0  0  0  0  0  0
   -2.7728   -2.7096    0.3954 C   0  0  0  0  0  0  0  0  0  0  0  0
   -3.4267   -2.0426    0.9524 H   0  0  0  0  0  0  0  0  0  0  0  0
   -3.0538   -2.7186   -0.6556 H   0  0  0  0  0  0  0  0  0  0  0  0
   -1.3498   -2.2206    0.5184 C   0  0  0  0  0  0  0  0  0  0  0  0
   -0.4997   -2.9426    1.0194 O   0  0  0  0  0  0  0  0  0  0  0  0
   -1.1198   -0.9926    0.0674 N   0  0  0  0  0  0  0  0  0  0  0  0
   -1.8978   -0.4486   -0.2716 H   0  0  0  0  0  0  0  0  0  0  0  0
    0.1693   -0.2866    0.0854 C   0  0  1  0  0  0  0  0  0  0  0  0
    0.8425   -0.7905    0.7811 H   0  0  0  0  0  0  0  0  0  0  0  0
    0.7993   -0.3404   -1.3233 C   0  0  0  0  0  0  0  0  0  0  0  0
    0.4728   -1.2566   -1.8183 H   0  0  0  0  0  0  0  0  0  0  0  0
    0.4277    0.5043   -1.9074 H   0  0  0  0  0  0  0  0  0  0  0  0
    2.3359   -0.3279   -1.3354 C   0  0  0  0  0  0  0  0  0  0  0  0
    2.9293   -0.6524   -2.3910 O   0  5  0  0  0  0  0  0  0  0  0  0
    2.9091   -0.0090   -0.2715 O   0  0  0  0  0  0  0  0  0  0  0  0
   -0.0374    1.1645    0.5781 C   0  0  0  0  0  0  0  0  0  0  0  0
   -0.9816    1.8416    0.1544 O   0  0  0  0  0  0  0  0  0  0  0  0
    0.8235    1.6462    1.4801 N   0  0  0  0  0  0  0  0  0  0  0  0
    1.6183    1.0435    1.7020 H   0  0  0  0  0  0  0  0  0  0  0  0
    0.7895    2.9929    2.0404 C   0  0  0  0  0  0  0  0  0  0  0  0
   -0.2344    3.2522    2.3130 H   0  0  0  0  0  0  0  0  0  0  0  0
    1.4265    3.0377    2.9233 H   0  0  0  0  0  0  0  0  0  0  0  0
    1.1511    3.7014    1.2950 H   0  0  0  0  0  0  0  0  0  0  0  0
  5  6  2  0  0  0  0
  5  7  1  0  0  0  0
  2  3  1  0  0  0  0
  2  4  1  0  0  0  0
  2  5  1  0  0  0  0
  1  2  1  0  0  0  0
 17 18  2  0  0  0  0
 17 19  1  0  0  0  0
 14 15  1  0  0  0  0
 14 16  2  0  0  0  0
 11 12  1  0  0  0  0
 11 13  1  0  0  0  0
 11 14  1  0  0  0  0
  9 10  1  0  0  0  0
  9 11  1  0  0  0  0
  9 17  1  0  0  0  0
  7  8  1  0  0  0  0
  7  9  1  0  0  0  0
 21 22  1  0  0  0  0
 21 23  1  0  0  0  0
 21 24  1  0  0  0  0
 19 20  1  0  0  0  0
 19 21  1  0  0  0  0
M  CHG  1  15  -1
M  END
$$$$
default_name
  -OEChem-02102213163D

 24 23  0     1  0  0  0  0  0999 V2000
   -2.8347   -3.7166    0.8034 H   0  0  0  0  0  0  0  0  0  0  0  0
   -2.7728   -2.7096    0.3954 C   0  0  0  0  0  0  0  0  0  0  0  0
   -3.4267   -2.0426    0.9524 H   0  0  0  0  0  0  0  0  0  0  0  0
   -3.0538   -2.7186   -0.6556 H   0  0  0  0  0  0  0  0  0  0  0  0
   -1.3498   -2.2206    0.5184 C   0  0  0  0  0  0  0  0  0  0  0  0
   -0.4997   -2.9426    1.0194 O   0  0  0  0  0  0  0  0  0  0  0  0
   -1.1198   -0.9926    0.0674 N   0  0  0  0  0  0  0  0  0  0  0  0
   -1.8978   -0.4486   -0.2716 H   0  0  0  0  0  0  0  0  0  0  0  0
    0.1693   -0.2866    0.0854 C   0  0  1  0  0  0  0  0  0  0  0  0
    0.8425   -0.7905    0.7811 H   0  0  0  0  0  0  0  0  0  0  0  0
    0.7993   -0.3404   -1.3233 C   0  0  0  0  0  0  0  0  0  0  0  0
    0.2769   -1.0964   -1.9120 H   0  0  0  0  0  0  0  0  0  0  0  0
    0.6500    0.6246   -1.8126 H   0  0  0  0  0  0  0  0  0  0  0  0
    2.2955   -0.6906   -1.3397 C   0  0  0  0  0  0  0  0  0  0  0  0
    2.8836   -0.7548   -2.4449 O   0  5  0  0  0  0  0  0  0  0  0  0
    2.8384   -0.9121   -0.2359 O   0  0  0  0  0  0  0  0  0  0  0  0
   -0.0374    1.1645    0.5781 C   0  0  0  0  0  0  0  0  0  0  0  0
   -0.9816    1.8416    0.1544 O   0  0  0  0  0  0  0  0  0  0  0  0
    0.8235    1.6462    1.4801 N   0  0  0  0  0  0  0  0  0  0  0  0
    1.6183    1.0435    1.7020 H   0  0  0  0  0  0  0  0  0  0  0  0
    0.7895    2.9929    2.0404 C   0  0  0  0  0  0  0  0  0  0  0  0
   -0.2344    3.2522    2.3130 H   0  0  0  0  0  0  0  0  0  0  0  0
    1.4265    3.0377    2.9233 H   0  0  0  0  0  0  0  0  0  0  0  0
    1.1511    3.7014    1.2950 H   0  0  0  0  0  0  0  0  0  0  0  0
  5  6  2  0  0  0  0
  5  7  1  0  0  0  0
  2  3  1  0  0  0  0
  2  4  1  0  0  0  0
  2  5  1  0  0  0  0
  1  2  1  0  0  0  0
 17 18  2  0  0  0  0
 17 19  1  0  0  0  0
 14 15  1  0  0  0  0
 14 16  2  0  0  0  0
 11 12  1  0  0  0  0
 11 13  1  0  0  0  0
 11 14  1  0  0  0  0
  9 10  1  0  0  0  0
  9 11  1  0  0  0  0
  9 17  1  0  0  0  0
  7  8  1  0  0  0  0
  7  9  1  0  0  0  0
 21 22  1  0  0  0  0
 21 23  1  0  0  0  0
 21 24  1  0  0  0  0
 19 20  1  0  0  0  0
 19 21  1  0  0  0  0
M  CHG  1  15  -1
M  END
$$$$
default_name
  -OEChem-02102213163D

 24 23  0     1  0  0  0  0  0999 V2000
   -2.8347   -3.7166    0.8034 H   0  0  0  0  0  0  0  0  0  0  0  0
   -2.7728   -2.7096    0.3954 C   0  0  0  0  0  0  0  0  0  0  0  0
   -3.4267   -2.0426    0.9524 H   0  0  0  0  0  0  0  0  0  0  0  0
   -3.0538   -2.7186   -0.6556 H   0  0  0  0  0  0  0  0  0  0  0  0
   -1.3498   -2.2206    0.5184 C   0  0  0  0  0  0  0  0  0  0  0  0
   -0.4997   -2.9426    1.0194 O   0  0  0  0  0  0  0  0  0  0  0  0
   -1.1198   -0.9926    0.0674 N   0  0  0  0  0  0  0  0  0  0  0  0
   -1.8978   -0.4486   -0.2716 H   0  0  0  0  0  0  0  0  0  0  0  0
    0.1693   -0.2866    0.0854 C   0  0  1  0  0  0  0  0  0  0  0  0
    0.8425   -0.7905    0.7811 H   0  0  0  0  0  0  0  0  0  0  0  0
    0.7993   -0.3404   -1.3233 C   0  0  0  0  0  0  0  0  0  0  0  0
    0.2769   -1.0964   -1.9120 H   0  0  0  0  0  0  0  0  0  0  0  0
    0.6500    0.6246   -1.8126 H   0  0  0  0  0  0  0  0  0  0  0  0
    2.2955   -0.6906   -1.3397 C   0  0  0  0  0  0  0  0  0  0  0  0
    2.9485   -0.4804   -2.3890 O   0  5  0  0  0  0  0  0  0  0  0  0
    2.7730   -1.1886   -0.2975 O   0  0  0  0  0  0  0  0  0  0  0  0
   -0.0374    1.1645    0.5781 C   0  0  0  0  0  0  0  0  0  0  0  0
   -0.9816    1.8416    0.1544 O   0  0  0  0  0  0  0  0  0  0  0  0
    0.8235    1.6462    1.4801 N   0  0  0  0  0  0  0  0  0  0  0  0
    1.6183    1.0435    1.7020 H   0  0  0  0  0  0  0  0  0  0  0  0
    0.7895    2.9929    2.0404 C   0  0  0  0  0  0  0  0  0  0  0  0
   -0.2344    3.2522    2.3130 H   0  0  0  0  0  0  0  0  0  0  0  0
    1.4265    3.0377    2.9233 H   0  0  0  0  0  0  0  0  0  0  0  0
    1.1511    3.7014    1.2950 H   0  0  0  0  0  0  0  0  0  0  0  0
  5  6  2  0  0  0  0
  5  7  1  0  0  0  0
  2  3  1  0  0  0  0
  2  4  1  0  0  0  0
  2  5  1  0  0  0  0
  1  2  1  0  0  0  0
 17 18  2  0  0  0  0
 17 19  1  0  0  0  0
 14 15  1  0  0  0  0
 14 16  2  0  0  0  0
 11 12  1  0  0  0  0
 11 13  1  0  0  0  0
 11 14  1  0  0  0  0
  9 10  1  0  0  0  0
  9 11  1  0  0  0  0
  9 17  1  0  0  0  0
  7  8  1  0  0  0  0
  7  9  1  0  0  0  0
 21 22  1  0  0  0  0
 21 23  1  0  0  0  0
 21 24  1  0  0  0  0
 19 20  1  0  0  0  0
 19 21  1  0  0  0  0
M  CHG  1  15  -1
M  END
$$$$
default_name
  -OEChem-02102213163D

 24 23  0     1  0  0  0  0  0999 V2000
   -2.8347   -3.7166    0.8034 H   0  0  0  0  0  0  0  0  0  0  0  0
   -2.7728   -2.7096    0.3954 C   0  0  0  0  0  0  0  0  0  0  0  0
   -3.4267   -2.0426    0.9524 H   0  0  0  0  0  0  0  0  0  0  0  0
   -3.0538   -2.7186   -0.6556 H   0  0  0  0  0  0  0  0  0  0  0  0
   -1.3498   -2.2206    0.5184 C   0  0  0  0  0  0  0  0  0  0  0  0
   -0.4997   -2.9426    1.0194 O   0  0  0  0  0  0  0  0  0  0  0  0
   -1.1198   -0.9926    0.0674 N   0  0  0  0  0  0  0  0  0  0  0  0
   -1.8978   -0.4486   -0.2716 H   0  0  0  0  0  0  0  0  0  0  0  0
    0.1693   -0.2866    0.0854 C   0  0  1  0  0  0  0  0  0  0  0  0
    0.8425   -0.7905    0.7811 H   0  0  0  0  0  0  0  0  0  0  0  0
    0.7993   -0.3404   -1.3233 C   0  0  0  0  0  0  0  0  0  0  0  0
    0.2769   -1.0964   -1.9120 H   0  0  0  0  0  0  0  0  0  0  0  0
    0.6500    0.6246   -1.8126 H   0  0  0  0  0  0  0  0  0  0  0  0
    2.2955   -0.6906   -1.3397 C   0  0  0  0  0  0  0  0  0  0  0  0
    3.0086   -0.2296   -2.2619 O   0  5  0  0  0  0  0  0  0  0  0  0
    2.7127   -1.4400   -0.4306 O   0  0  0  0  0  0  0  0  0  0  0  0
   -0.0374    1.1645    0.5781 C   0  0  0  0  0  0  0  0  0  0  0  0
   -0.9816    1.8416    0.1544 O   0  0  0  0  0  0  0  0  0  0  0  0
    0.8235    1.6462    1.4801 N   0  0  0  0  0  0  0  0  0  0  0  0
    1.6183    1.0435    1.7020 H   0  0  0  0  0  0  0  0  0  0  0  0
    0.7895    2.9929    2.0404 C   0  0  0  0  0  0  0  0  0  0  0  0
   -0.2344    3.2522    2.3130 H   0  0  0  0  0  0  0  0  0  0  0  0
    1.4265    3.0377    2.9233 H   0  0  0  0  0  0  0  0  0  0  0  0
    1.1511    3.7014    1.2950 H   0  0  0  0  0  0  0  0  0  0  0  0
  5  6  2  0  0  0  0
  5  7  1  0  0  0  0
  2  3  1  0  0  0  0
  2  4  1  0  0  0  0
  2  5  1  0  0  0  0
  1  2  1  0  0  0  0
 17 18  2  0  0  0  0
 17 19  1  0  0  0  0
 14 15  1  0  0  0  0
 14 16  2  0  0  0  0
 11 12  1  0  0  0  0
 11 13  1  0  0  0  0
 11 14  1  0  0  0  0
  9 10  1  0  0  0  0
  9 11  1  0  0  0  0
  9 17  1  0  0  0  0
  7  8  1  0  0  0  0
  7  9  1  0  0  0  0
 21 22  1  0  0  0  0
 21 23  1  0  0  0  0
 21 24  1  0  0  0  0
 19 20  1  0  0  0  0
 19 21  1  0  0  0  0
M  CHG  1  15  -1
M  END
$$$$
default_name
  -OEChem-02102213163D

 24 23  0     1  0  0  0  0  0999 V2000
   -2.8347   -3.7166    0.8034 H   0  0  0  0  0  0  0  0  0  0  0  0
   -2.7728   -2.7096    0.3954 C   0  0  0  0  0  0  0  0  0  0  0  0
   -3.4267   -2.0426    0.9524 H   0  0  0  0  0  0  0  0  0  0  0  0
   -3.0538   -2.7186   -0.6556 H   0  0  0  0  0  0  0  0  0  0  0  0
   -1.3498   -2.2206    0.5184 C   0  0  0  0  0  0  0  0  0  0  0  0
   -0.4997   -2.9426    1.0194 O   0  0  0  0  0  0  0  0  0  0  0  0
   -1.1198   -0.9926    0.0674 N   0  0  0  0  0  0  0  0  0  0  0  0
   -1.8978   -0.4486   -0.2716 H   0  0  0  0  0  0  0  0  0  0  0  0
    0.1693   -0.2866    0.0854 C   0  0  1  0  0  0  0  0  0  0  0  0
    0.8425   -0.7905    0.7811 H   0  0  0  0  0  0  0  0  0  0  0  0
    0.7993   -0.3404   -1.3233 C   0  0  0  0  0  0  0  0  0  0  0  0
    0.2769   -1.0964   -1.9120 H   0  0  0  0  0  0  0  0  0  0  0  0
    0.6500    0.6246   -1.8126 H   0  0  0  0  0  0  0  0  0  0  0  0
    2.2955   -0.6906   -1.3397 C   0  0  0  0  0  0  0  0  0  0  0  0
    3.0599   -0.0195   -2.0725 O   0  5  0  0  0  0  0  0  0  0  0  0
    2.6616   -1.6491   -0.6260 O   0  0  0  0  0  0  0  0  0  0  0  0
   -0.0374    1.1645    0.5781 C   0  0  0  0  0  0  0  0  0  0  0  0
   -0.9816    1.8416    0.1544 O   0  0  0  0  0  0  0  0  0  0  0  0
    0.8235    1.6462    1.4801 N   0  0  0  0  0  0  0  0  0  0  0  0
    1.6183    1.0435    1.7020 H   0  0  0  0  0  0  0  0  0  0  0  0
    0.7895    2.9929    2.0404 C   0  0  0  0  0  0  0  0  0  0  0  0
   -0.2344    3.2522    2.3130 H   0  0  0  0  0  0  0  0  0  0  0  0
    1.4265    3.0377    2.9233 H   0  0  0  0  0  0  0  0  0  0  0  0
    1.1511    3.7014    1.2950 H   0  0  0  0  0  0  0  0  0  0  0  0
  5  6  2  0  0  0  0
  5  7  1  0  0  0  0
  2  3  1  0  0  0  0
  2  4  1  0  0  0  0
  2  5  1  0  0  0  0
  1  2  1  0  0  0  0
 17 18  2  0  0  0  0
 17 19  1  0  0  0  0
 14 15  1  0  0  0  0
 14 16  2  0  0  0  0
 11 12  1  0  0  0  0
 11 13  1  0  0  0  0
 11 14  1  0  0  0  0
  9 10  1  0  0  0  0
  9 11  1  0  0  0  0
  9 17  1  0  0  0  0
  7  8  1  0  0  0  0
  7  9  1  0  0  0  0
 21 22  1  0  0  0  0
 21 23  1  0  0  0  0
 21 24  1  0  0  0  0
 19 20  1  0  0  0  0
 19 21  1  0  0  0  0
M  CHG  1  15  -1
M  END
$$$$
default_name
  -OEChem-02102213163D

 24 23  0     1  0  0  0  0  0999 V2000
   -2.8347   -3.7166    0.8034 H   0  0  0  0  0  0  0  0  0  0  0  0
   -2.7728   -2.7096    0.3954 C   0  0  0  0  0  0  0  0  0  0  0  0
   -3.4267   -2.0426    0.9524 H   0  0  0  0  0  0  0  0  0  0  0  0
   -3.0538   -2.7186   -0.6556 H   0  0  0  0  0  0  0  0  0  0  0  0
   -1.3498   -2.2206    0.5184 C   0  0  0  0  0  0  0  0  0  0  0  0
   -0.4997   -2.9426    1.0194 O   0  0  0  0  0  0  0  0  0  0  0  0
   -1.1198   -0.9926    0.0674 N   0  0  0  0  0  0  0  0  0  0  0  0
   -1.8978   -0.4486   -0.2716 H   0  0  0  0  0  0  0  0  0  0  0  0
    0.1693   -0.2866    0.0854 C   0  0  1  0  0  0  0  0  0  0  0  0
    0.8425   -0.7905    0.7811 H   0  0  0  0  0  0  0  0  0  0  0  0
    0.7993   -0.3404   -1.3233 C   0  0  0  0  0  0  0  0  0  0  0  0
    0.2769   -1.0964   -1.9120 H   0  0  0  0  0  0  0  0  0  0  0  0
    0.6500    0.6246   -1.8126 H   0  0  0  0  0  0  0  0  0  0  0  0
    2.2955   -0.6906   -1.3397 C   0  0  0  0  0  0  0  0  0  0  0  0
    3.0988    0.1355   -1.8335 O   0  5  0  0  0  0  0  0  0  0  0  0
    2.6232   -1.8017   -0.8704 O   0  0  0  0  0  0  0  0  0  0  0  0
   -0.0374    1.1645    0.5781 C   0  0  0  0  0  0  0  0  0  0  0  0
   -0.9816    1.8416    0.1544 O   0  0  0  0  0  0  0  0  0  0  0  0
    0.8235    1.6462    1.4801 N   0  0  0  0  0  0  0  0  0  0  0  0
    1.6183    1.0435    1.7020 H   0  0  0  0  0  0  0  0  0  0  0  0
    0.7895    2.9929    2.0404 C   0  0  0  0  0  0  0  0  0  0  0  0
   -0.2344    3.2522    2.3130 H   0  0  0  0  0  0  0  0  0  0  0  0
    1.4265    3.0377    2.9233 H   0  0  0  0  0  0  0  0  0  0  0  0
    1.1511    3.7014    1.2950 H   0  0  0  0  0  0  0  0  0  0  0  0
  5  6  2  0  0  0  0
  5  7  1  0  0  0  0
  2  3  1  0  0  0  0
  2  4  1  0  0  0  0
  2  5  1  0  0  0  0
  1  2  1  0  0  0  0
 17 18  2  0  0  0  0
 17 19  1  0  0  0  0
 14 15  1  0  0  0  0
 14 16  2  0  0  0  0
 11 12  1  0  0  0  0
 11 13  1  0  0  0  0
 11 14  1  0  0  0  0
  9 10  1  0  0  0  0
  9 11  1  0  0  0  0
  9 17  1  0  0  0  0
  7  8  1  0  0  0  0
  7  9  1  0  0  0  0
 21 22  1  0  0  0  0
 21 23  1  0  0  0  0
 21 24  1  0  0  0  0
 19 20  1  0  0  0  0
 19 21  1  0  0  0  0
M  CHG  1  15  -1
M  END
$$$$
default_name
  -OEChem-02102213163D

 24 23  0     1  0  0  0  0  0999 V2000
   -2.8347   -3.7166    0.8034 H   0  0  0  0  0  0  0  0  0  0  0  0
   -2.7728   -2.7096    0.3954 C   0  0  0  0  0  0  0  0  0  0  0  0
   -3.4267   -2.0426    0.9524 H   0  0  0  0  0  0  0  0  0  0  0  0
   -3.0538   -2.7186   -0.6556 H   0  0  0  0  0  0  0  0  0  0  0  0
   -1.3498   -2.2206    0.5184 C   0  0  0  0  0  0  0  0  0  0  0  0
   -0.4997   -2.9426    1.0194 O   0  0  0  0  0  0  0  0  0  0  0  0
   -1.1198   -0.9926    0.0674 N   0  0  0  0  0  0  0  0  0  0  0  0
   -1.8978   -0.4486   -0.2716 H   0  0  0  0  0  0  0  0  0  0  0  0
    0.1693   -0.2866    0.0854 C   0  0  1  0  0  0  0  0  0  0  0  0
    0.8425   -0.7905    0.7811 H   0  0  0  0  0  0  0  0  0  0  0  0
    0.7993   -0.3404   -1.3233 C   0  0  0  0  0  0  0  0  0  0  0  0
    0.2769   -1.0964   -1.9120 H   0  0  0  0  0  0  0  0  0  0  0  0
    0.6500    0.6246   -1.8126 H   0  0  0  0  0  0  0  0  0  0  0  0
    2.2955   -0.6906   -1.3397 C   0  0  0  0  0  0  0  0  0  0  0  0
    3.1227    0.2249   -1.5613 O   0  5  0  0  0  0  0  0  0  0  0  0
    2.6001   -1.8874   -1.1473 O   0  0  0  0  0  0  0  0  0  0  0  0
   -0.0374    1.1645    0.5781 C   0  0  0  0  0  0  0  0  0  0  0  0
   -0.9816    1.8416    0.1544 O   0  0  0  0  0  0  0  0  0  0  0  0
    0.8235    1.6462    1.4801 N   0  0  0  0  0  0  0  0  0  0  0  0
    1.6183    1.0435    1.7020 H   0  0  0  0  0  0  0  0  0  0  0  0
    0.7895    2.9929    2.0404 C   0  0  0  0  0  0  0  0  0  0  0  0
   -0.2344    3.2522    2.3130 H   0  0  0  0  0  0  0  0  0  0  0  0
    1.4265    3.0377    2.9233 H   0  0  0  0  0  0  0  0  0  0  0  0
    1.1511    3.7014    1.2950 H   0  0  0  0  0  0  0  0  0  0  0  0
  5  6  2  0  0  0  0
  5  7  1  0  0  0  0
  2  3  1  0  0  0  0
  2  4  1  0  0  0  0
  2  5  1  0  0  0  0
  1  2  1  0  0  0  0
 17 18  2  0  0  0  0
 17 19  1  0  0  0  0
 14 15  1  0  0  0  0
 14 16  2  0  0  0  0
 11 12  1  0  0  0  0
 11 13  1  0  0  0  0
 11 14  1  0  0  0  0
  9 10  1  0  0  0  0
  9 11  1  0  0  0  0
  9 17  1  0  0  0  0
  7  8  1  0  0  0  0
  7  9  1  0  0  0  0
 21 22  1  0  0  0  0
 21 23  1  0  0  0  0
 21 24  1  0  0  0  0
 19 20  1  0  0  0  0
 19 21  1  0  0  0  0
M  CHG  1  15  -1
M  END
$$$$
default_name
  -OEChem-02102213163D

 24 23  0     1  0  0  0  0  0999 V2000
   -2.8347   -3.7166    0.8034 H   0  0  0  0  0  0  0  0  0  0  0  0
   -2.7728   -2.7096    0.3954 C   0  0  0  0  0  0  0  0  0  0  0  0
   -3.4267   -2.0426    0.9524 H   0  0  0  0  0  0  0  0  0  0  0  0
   -3.0538   -2.7186   -0.6556 H   0  0  0  0  0  0  0  0  0  0  0  0
   -1.3498   -2.2206    0.5184 C   0  0  0  0  0  0  0  0  0  0  0  0
   -0.4997   -2.9426    1.0194 O   0  0  0  0  0  0  0  0  0  0  0  0
   -1.1198   -0.9926    0.0674 N   0  0  0  0  0  0  0  0  0  0  0  0
   -1.8978   -0.4486   -0.2716 H   0  0  0  0  0  0  0  0  0  0  0  0
    0.1693   -0.2866    0.0854 C   0  0  1  0  0  0  0  0  0  0  0  0
    0.8425   -0.7905    0.7811 H   0  0  0  0  0  0  0  0  0  0  0  0
    0.7993   -0.3404   -1.3233 C   0  0  0  0  0  0  0  0  0  0  0  0
    0.2769   -1.0964   -1.9120 H   0  0  0  0  0  0  0  0  0  0  0  0
    0.6500    0.6246   -1.8126 H   0  0  0  0  0  0  0  0  0  0  0  0
    2.2955   -0.6906   -1.3397 C   0  0  0  0  0  0  0  0  0  0  0  0
    3.1300    0.2427   -1.2745 O   0  5  0  0  0  0  0  0  0  0  0  0
    2.5939   -1.9004   -1.4377 O   0  0  0  0  0  0  0  0  0  0  0  0
   -0.0374    1.1645    0.5781 C   0  0  0  0  0  0  0  0  0  0  0  0
   -0.9816    1.8416    0.1544 O   0  0  0  0  0  0  0  0  0  0  0  0
    0.8235    1.6462    1.4801 N   0  0  0  0  0  0  0  0  0  0  0  0
    1.6183    1.0435    1.7020 H   0  0  0  0  0  0  0  0  0  0  0  0
    0.7895    2.9929    2.0404 C   0  0  0  0  0  0  0  0  0  0  0  0
   -0.2344    3.2522    2.3130 H   0  0  0  0  0  0  0  0  0  0  0  0
    1.4265    3.0377    2.9233 H   0  0  0  0  0  0  0  0  0  0  0  0
    1.1511    3.7014    1.2950 H   0  0  0  0  0  0  0  0  0  0  0  0
  5  6  2  0  0  0  0
  5  7  1  0  0  0  0
  2  3  1  0  0  0  0
  2  4  1  0  0  0  0
  2  5  1  0  0  0  0
  1  2  1  0  0  0  0
 17 18  2  0  0  0  0
 17 19  1  0  0  0  0
 14 15  1  0  0  0  0
 14 16  2  0  0  0  0
 11 12  1  0  0  0  0
 11 13  1  0  0  0  0
 11 14  1  0  0  0  0
  9 10  1  0  0  0  0
  9 11  1  0  0  0  0
  9 17  1  0  0  0  0
  7  8  1  0  0  0  0
  7  9  1  0  0  0  0
 21 22  1  0  0  0  0
 21 23  1  0  0  0  0
 21 24  1  0  0  0  0
 19 20  1  0  0  0  0
 19 21  1  0  0  0  0
M  CHG  1  15  -1
M  END
$$$$
default_name
  -OEChem-02102213163D

 24 23  0     1  0  0  0  0  0999 V2000
   -2.8347   -3.7166    0.8034 H   0  0  0  0  0  0  0  0  0  0  0  0
   -2.7728   -2.7096    0.3954 C   0  0  0  0  0  0  0  0  0  0  0  0
   -3.4267   -2.0426    0.9524 H   0  0  0  0  0  0  0  0  0  0  0  0
   -3.0538   -2.7186   -0.6556 H   0  0  0  0  0  0  0  0  0  0  0  0
   -1.3498   -2.2206    0.5184 C   0  0  0  0  0  0  0  0  0  0  0  0
   -0.4997   -2.9426    1.0194 O   0  0  0  0  0  0  0  0  0  0  0  0
   -1.1198   -0.9926    0.0674 N   0  0  0  0  0  0  0  0  0  0  0  0
   -1.8978   -0.4486   -0.2716 H   0  0  0  0  0  0  0  0  0  0  0  0
    0.1693   -0.2866    0.0854 C   0  0  1  0  0  0  0  0  0  0  0  0
    0.8425   -0.7905    0.7811 H   0  0  0  0  0  0  0  0  0  0  0  0
    0.7993   -0.3404   -1.3233 C   0  0  0  0  0  0  0  0  0  0  0  0
    0.2769   -1.0964   -1.9120 H   0  0  0  0  0  0  0  0  0  0  0  0
    0.6500    0.6246   -1.8126 H   0  0  0  0  0  0  0  0  0  0  0  0
    2.2955   -0.6906   -1.3397 C   0  0  0  0  0  0  0  0  0  0  0  0
    3.1202    0.1875   -0.9925 O   0  5  0  0  0  0  0  0  0  0  0  0
    2.6050   -1.8397   -1.7218 O   0  0  0  0  0  0  0  0  0  0  0  0
   -0.0374    1.1645    0.5781 C   0  0  0  0  0  0  0  0  0  0  0  0
   -0.9816    1.8416    0.1544 O   0  0  0  0  0  0  0  0  0  0  0  0
    0.8235    1.6462    1.4801 N   0  0  0  0  0  0  0  0  0  0  0  0
    1.6183    1.0435    1.7020 H   0  0  0  0  0  0  0  0  0  0  0  0
    0.7895    2.9929    2.0404 C   0  0  0  0  0  0  0  0  0  0  0  0
   -0.2344    3.2522    2.3130 H   0  0  0  0  0  0  0  0  0  0  0  0
    1.4265    3.0377    2.9233 H   0  0  0  0  0  0  0  0  0  0  0  0
    1.1511    3.7014    1.2950 H   0  0  0  0  0  0  0  0  0  0  0  0
  5  6  2  0  0  0  0
  5  7  1  0  0  0  0
  2  3  1  0  0  0  0
  2  4  1  0  0  0  0
  2  5  1  0  0  0  0
  1  2  1  0  0  0  0
 17 18  2  0  0  0  0
 17 19  1  0  0  0  0
 14 15  1  0  0  0  0
 14 16  2  0  0  0  0
 11 12  1  0  0  0  0
 11 13  1  0  0  0  0
 11 14  1  0  0  0  0
  9 10  1  0  0  0  0
  9 11  1  0  0  0  0
  9 17  1  0  0  0  0
  7  8  1  0  0  0  0
  7  9  1  0  0  0  0
 21 22  1  0  0  0  0
 21 23  1  0  0  0  0
 21 24  1  0  0  0  0
 19 20  1  0  0  0  0
 19 21  1  0  0  0  0
M  CHG  1  15  -1
M  END
$$$$
default_name
  -OEChem-02102213163D

 24 23  0     1  0  0  0  0  0999 V2000
   -2.8347   -3.7166    0.8034 H   0  0  0  0  0  0  0  0  0  0  0  0
   -2.7728   -2.7096    0.3954 C   0  0  0  0  0  0  0  0  0  0  0  0
   -3.4267   -2.0426    0.9524 H   0  0  0  0  0  0  0  0  0  0  0  0
   -3.0538   -2.7186   -0.6556 H   0  0  0  0  0  0  0  0  0  0  0  0
   -1.3498   -2.2206    0.5184 C   0  0  0  0  0  0  0  0  0  0  0  0
   -0.4997   -2.9426    1.0194 O   0  0  0  0  0  0  0  0  0  0  0  0
   -1.1198   -0.9926    0.0674 N   0  0  0  0  0  0  0  0  0  0  0  0
   -1.8978   -0.4486   -0.2716 H   0  0  0  0  0  0  0  0  0  0  0  0
    0.1693   -0.2866    0.0854 C   0  0  1  0  0  0  0  0  0  0  0  0
    0.8425   -0.7905    0.7811 H   0  0  0  0  0  0  0  0  0  0  0  0
    0.7993   -0.3404   -1.3233 C   0  0  0  0  0  0  0  0  0  0  0  0
    0.2769   -1.0964   -1.9120 H   0  0  0  0  0  0  0  0  0  0  0  0
    0.6500    0.6246   -1.8126 H   0  0  0  0  0  0  0  0  0  0  0  0
    2.2955   -0.6906   -1.3397 C   0  0  0  0  0  0  0  0  0  0  0  0
    3.0939    0.0632   -0.7347 O   0  5  0  0  0  0  0  0  0  0  0  0
    2.6326   -1.7095   -1.9803 O   0  0  0  0  0  0  0  0  0  0  0  0
   -0.0374    1.1645    0.5781 C   0  0  0  0  0  0  0  0  0  0  0  0
   -0.9816    1.8416    0.1544 O   0  0  0  0  0  0  0  0  0  0  0  0
    0.8235    1.6462    1.4801 N   0  0  0  0  0  0  0  0  0  0  0  0
    1.6183    1.0435    1.7020 H   0  0  0  0  0  0  0  0  0  0  0  0
    0.7895    2.9929    2.0404 C   0  0  0  0  0  0  0  0  0  0  0  0
   -0.2344    3.2522    2.3130 H   0  0  0  0  0  0  0  0  0  0  0  0
    1.4265    3.0377    2.9233 H   0  0  0  0  0  0  0  0  0  0  0  0
    1.1511    3.7014    1.2950 H   0  0  0  0  0  0  0  0  0  0  0  0
  5  6  2  0  0  0  0
  5  7  1  0  0  0  0
  2  3  1  0  0  0  0
  2  4  1  0  0  0  0
  2  5  1  0  0  0  0
  1  2  1  0  0  0  0
 17 18  2  0  0  0  0
 17 19  1  0  0  0  0
 14 15  1  0  0  0  0
 14 16  2  0  0  0  0
 11 12  1  0  0  0  0
 11 13  1  0  0  0  0
 11 14  1  0  0  0  0
  9 10  1  0  0  0  0
  9 11  1  0  0  0  0
  9 17  1  0  0  0  0
  7  8  1  0  0  0  0
  7  9  1  0  0  0  0
 21 22  1  0  0  0  0
 21 23  1  0  0  0  0
 21 24  1  0  0  0  0
 19 20  1  0  0  0  0
 19 21  1  0  0  0  0
M  CHG  1  15  -1
M  END
$$$$
default_name
  -OEChem-02102213163D

 24 23  0     1  0  0  0  0  0999 V2000
   -2.8347   -3.7166    0.8034 H   0  0  0  0  0  0  0  0  0  0  0  0
   -2.7728   -2.7096    0.3954 C   0  0  0  0  0  0  0  0  0  0  0  0
   -3.4267   -2.0426    0.9524 H   0  0  0  0  0  0  0  0  0  0  0  0
   -3.0538   -2.7186   -0.6556 H   0  0  0  0  0  0  0  0  0  0  0  0
   -1.3498   -2.2206    0.5184 C   0  0  0  0  0  0  0  0  0  0  0  0
   -0.4997   -2.9426    1.0194 O   0  0  0  0  0  0  0  0  0  0  0  0
   -1.1198   -0.9926    0.0674 N   0  0  0  0  0  0  0  0  0  0  0  0
   -1.8978   -0.4486   -0.2716 H   0  0  0  0  0  0  0  0  0  0  0  0
    0.1693   -0.2866    0.0854 C   0  0  1  0  0  0  0  0  0  0  0  0
    0.8425   -0.7905    0.7811 H   0  0  0  0  0  0  0  0  0  0  0  0
    0.7993   -0.3404   -1.3233 C   0  0  0  0  0  0  0  0  0  0  0  0
    0.2769   -1.0964   -1.9120 H   0  0  0  0  0  0  0  0  0  0  0  0
    0.6500    0.6246   -1.8126 H   0  0  0  0  0  0  0  0  0  0  0  0
    2.2955   -0.6906   -1.3397 C   0  0  0  0  0  0  0  0  0  0  0  0
    3.0529   -0.1219   -0.5184 O   0  5  0  0  0  0  0  0  0  0  0  0
    2.6749   -1.5187   -2.1955 O   0  0  0  0  0  0  0  0  0  0  0  0
   -0.0374    1.1645    0.5781 C   0  0  0  0  0  0  0  0  0  0  0  0
   -0.9816    1.8416    0.1544 O   0  0  0  0  0  0  0  0  0  0  0  0
    0.8235    1.6462    1.4801 N   0  0  0  0  0  0  0  0  0  0  0  0
    1.6183    1.0435    1.7020 H   0  0  0  0  0  0  0  0  0  0  0  0
    0.7895    2.9929    2.0404 C   0  0  0  0  0  0  0  0  0  0  0  0
   -0.2344    3.2522    2.3130 H   0  0  0  0  0  0  0  0  0  0  0  0
    1.4265    3.0377    2.9233 H   0  0  0  0  0  0  0  0  0  0  0  0
    1.1511    3.7014    1.2950 H   0  0  0  0  0  0  0  0  0  0  0  0
  5  6  2  0  0  0  0
  5  7  1  0  0  0  0
  2  3  1  0  0  0  0
  2  4  1  0  0  0  0
  2  5  1  0  0  0  0
  1  2  1  0  0  0  0
 17 18  2  0  0  0  0
 17 19  1  0  0  0  0
 14 15  1  0  0  0  0
 14 16  2  0  0  0  0
 11 12  1  0  0  0  0
 11 13  1  0  0  0  0
 11 14  1  0  0  0  0
  9 10  1  0  0  0  0
  9 11  1  0  0  0  0
  9 17  1  0  0  0  0
  7  8  1  0  0  0  0
  7  9  1  0  0  0  0
 21 22  1  0  0  0  0
 21 23  1  0  0  0  0
 21 24  1  0  0  0  0
 19 20  1  0  0  0  0
 19 21  1  0  0  0  0
M  CHG  1  15  -1
M  END
$$$$
default_name
  -OEChem-02102213163D

 24 23  0     1  0  0  0  0  0999 V2000
   -2.8347   -3.7166    0.8034 H   0  0  0  0  0  0  0  0  0  0  0  0
   -2.7728   -2.7096    0.3954 C   0  0  0  0  0  0  0  0  0  0  0  0
   -3.4267   -2.0426    0.9524 H   0  0  0  0  0  0  0  0  0  0  0  0
   -3.0538   -2.7186   -0.6556 H   0  0  0  0  0  0  0  0  0  0  0  0
   -1.3498   -2.2206    0.5184 C   0  0  0  0  0  0  0  0  0  0  0  0
   -0.4997   -2.9426    1.0194 O   0  0  0  0  0  0  0  0  0  0  0  0
   -1.1198   -0.9926    0.0674 N   0  0  0  0  0  0  0  0  0  0  0  0
   -1.8978   -0.4486   -0.2716 H   0  0  0  0  0  0  0  0  0  0  0  0
    0.1693   -0.2866    0.0854 C   0  0  1  0  0  0  0  0  0  0  0  0
    0.8425   -0.7905    0.7811 H   0  0  0  0  0  0  0  0  0  0  0  0
    0.7993   -0.3404   -1.3233 C   0  0  0  0  0  0  0  0  0  0  0  0
    0.2769   -1.0964   -1.9120 H   0  0  0  0  0  0  0  0  0  0  0  0
    0.6500    0.6246   -1.8126 H   0  0  0  0  0  0  0  0  0  0  0  0
    2.2955   -0.6906   -1.3397 C   0  0  0  0  0  0  0  0  0  0  0  0
    3.0001   -0.3549   -0.3586 O   0  5  0  0  0  0  0  0  0  0  0  0
    2.7290   -1.2803   -2.3528 O   0  0  0  0  0  0  0  0  0  0  0  0
   -0.0374    1.1645    0.5781 C   0  0  0  0  0  0  0  0  0  0  0  0
   -0.9816    1.8416    0.1544 O   0  0  0  0  0  0  0  0  0  0  0  0
    0.8235    1.6462    1.4801 N   0  0  0  0  0  0  0  0  0  0  0  0
    1.6183    1.0435    1.7020 H   0  0  0  0  0  0  0  0  0  0  0  0
    0.7895    2.9929    2.0404 C   0  0  0  0  0  0  0  0  0  0  0  0
   -0.2344    3.2522    2.3130 H   0  0  0  0  0  0  0  0  0  0  0  0
    1.4265    3.0377    2.9233 H   0  0  0  0  0  0  0  0  0  0  0  0
    1.1511    3.7014    1.2950 H   0  0  0  0  0  0  0  0  0  0  0  0
  5  6  2  0  0  0  0
  5  7  1  0  0  0  0
  2  3  1  0  0  0  0
  2  4  1  0  0  0  0
  2  5  1  0  0  0  0
  1  2  1  0  0  0  0
 17 18  2  0  0  0  0
 17 19  1  0  0  0  0
 14 15  1  0  0  0  0
 14 16  2  0  0  0  0
 11 12  1  0  0  0  0
 11 13  1  0  0  0  0
 11 14  1  0  0  0  0
  9 10  1  0  0  0  0
  9 11  1  0  0  0  0
  9 17  1  0  0  0  0
  7  8  1  0  0  0  0
  7  9  1  0  0  0  0
 21 22  1  0  0  0  0
 21 23  1  0  0  0  0
 21 24  1  0  0  0  0
 19 20  1  0  0  0  0
 19 21  1  0  0  0  0
M  CHG  1  15  -1
M  END
$$$$
default_name
  -OEChem-02102213163D

 24 23  0     1  0  0  0  0  0999 V2000
   -2.8347   -3.7166    0.8034 H   0  0  0  0  0  0  0  0  0  0  0  0
   -2.7728   -2.7096    0.3954 C   0  0  0  0  0  0  0  0  0  0  0  0
   -3.4267   -2.0426    0.9524 H   0  0  0  0  0  0  0  0  0  0  0  0
   -3.0538   -2.7186   -0.6556 H   0  0  0  0  0  0  0  0  0  0  0  0
   -1.3498   -2.2206    0.5184 C   0  0  0  0  0  0  0  0  0  0  0  0
   -0.4997   -2.9426    1.0194 O   0  0  0  0  0  0  0  0  0  0  0  0
   -1.1198   -0.9926    0.0674 N   0  0  0  0  0  0  0  0  0  0  0  0
   -1.8978   -0.4486   -0.2716 H   0  0  0  0  0  0  0  0  0  0  0  0
    0.1693   -0.2866    0.0854 C   0  0  1  0  0  0  0  0  0  0  0  0
    0.8425   -0.7905    0.7811 H   0  0  0  0  0  0  0  0  0  0  0  0
    0.7993   -0.3404   -1.3233 C   0  0  0  0  0  0  0  0  0  0  0  0
    0.2769   -1.0964   -1.9120 H   0  0  0  0  0  0  0  0  0  0  0  0
    0.6500    0.6246   -1.8126 H   0  0  0  0  0  0  0  0  0  0  0  0
    2.2955   -0.6906   -1.3397 C   0  0  0  0  0  0  0  0  0  0  0  0
    2.9390   -0.6202   -0.2661 O   0  5  0  0  0  0  0  0  0  0  0  0
    2.7912   -1.0105   -2.4415 O   0  0  0  0  0  0  0  0  0  0  0  0
   -0.0374    1.1645    0.5781 C   0  0  0  0  0  0  0  0  0  0  0  0
   -0.9816    1.8416    0.1544 O   0  0  0  0  0  0  0  0  0  0  0  0
    0.8235    1.6462    1.4801 N   0  0  0  0  0  0  0  0  0  0  0  0
    1.6183    1.0435    1.7020 H   0  0  0  0  0  0  0  0  0  0  0  0
    0.7895    2.9929    2.0404 C   0  0  0  0  0  0  0  0  0  0  0  0
   -0.2344    3.2522    2.3130 H   0  0  0  0  0  0  0  0  0  0  0  0
    1.4265    3.0377    2.9233 H   0  0  0  0  0  0  0  0  0  0  0  0
    1.1511    3.7014    1.2950 H   0  0  0  0  0  0  0  0  0  0  0  0
  5  6  2  0  0  0  0
  5  7  1  0  0  0  0
  2  3  1  0  0  0  0
  2  4  1  0  0  0  0
  2  5  1  0  0  0  0
  1  2  1  0  0  0  0
 17 18  2  0  0  0  0
 17 19  1  0  0  0  0
 14 15  1  0  0  0  0
 14 16  2  0  0  0  0
 11 12  1  0  0  0  0
 11 13  1  0  0  0  0
 11 14  1  0  0  0  0
  9 10  1  0  0  0  0
  9 11  1  0  0  0  0
  9 17  1  0  0  0  0
  7  8  1  0  0  0  0
  7  9  1  0  0  0  0
 21 22  1  0  0  0  0
 21 23  1  0  0  0  0
 21 24  1  0  0  0  0
 19 20  1  0  0  0  0
 19 21  1  0  0  0  0
M  CHG  1  15  -1
M  END
$$$$
default_name
  -OEChem-02102213163D

 24 23  0     1  0  0  0  0  0999 V2000
   -2.8347   -3.7166    0.8034 H   0  0  0  0  0  0  0  0  0  0  0  0
   -2.7728   -2.7096    0.3954 C   0  0  0  0  0  0  0  0  0  0  0  0
   -3.4267   -2.0426    0.9524 H   0  0  0  0  0  0  0  0  0  0  0  0
   -3.0538   -2.7186   -0.6556 H   0  0  0  0  0  0  0  0  0  0  0  0
   -1.3498   -2.2206    0.5184 C   0  0  0  0  0  0  0  0  0  0  0  0
   -0.4997   -2.9426    1.0194 O   0  0  0  0  0  0  0  0  0  0  0  0
   -1.1198   -0.9926    0.0674 N   0  0  0  0  0  0  0  0  0  0  0  0
   -1.8978   -0.4486   -0.2716 H   0  0  0  0  0  0  0  0  0  0  0  0
    0.1693   -0.2866    0.0854 C   0  0  1  0  0  0  0  0  0  0  0  0
    0.8425   -0.7905    0.7811 H   0  0  0  0  0  0  0  0  0  0  0  0
    0.7993   -0.3404   -1.3233 C   0  0  0  0  0  0  0  0  0  0  0  0
    0.2769   -1.0964   -1.9120 H   0  0  0  0  0  0  0  0  0  0  0  0
    0.6500    0.6246   -1.8126 H   0  0  0  0  0  0  0  0  0  0  0  0
    2.2955   -0.6906   -1.3397 C   0  0  0  0  0  0  0  0  0  0  0  0
    2.8738   -0.8995   -0.2472 O   0  5  0  0  0  0  0  0  0  0  0  0
    2.8573   -0.7277   -2.4556 O   0  0  0  0  0  0  0  0  0  0  0  0
   -0.0374    1.1645    0.5781 C   0  0  0  0  0  0  0  0  0  0  0  0
   -0.9816    1.8416    0.1544 O   0  0  0  0  0  0  0  0  0  0  0  0
    0.8235    1.6462    1.4801 N   0  0  0  0  0  0  0  0  0  0  0  0
    1.6183    1.0435    1.7020 H   0  0  0  0  0  0  0  0  0  0  0  0
    0.7895    2.9929    2.0404 C   0  0  0  0  0  0  0  0  0  0  0  0
   -0.2344    3.2522    2.3130 H   0  0  0  0  0  0  0  0  0  0  0  0
    1.4265    3.0377    2.9233 H   0  0  0  0  0  0  0  0  0  0  0  0
    1.1511    3.7014    1.2950 H   0  0  0  0  0  0  0  0  0  0  0  0
  5  6  2  0  0  0  0
  5  7  1  0  0  0  0
  2  3  1  0  0  0  0
  2  4  1  0  0  0  0
  2  5  1  0  0  0  0
  1  2  1  0  0  0  0
 17 18  2  0  0  0  0
 17 19  1  0  0  0  0
 14 15  1  0  0  0  0
 14 16  2  0  0  0  0
 11 12  1  0  0  0  0
 11 13  1  0  0  0  0
 11 14  1  0  0  0  0
  9 10  1  0  0  0  0
  9 11  1  0  0  0  0
  9 17  1  0  0  0  0
  7  8  1  0  0  0  0
  7  9  1  0  0  0  0
 21 22  1  0  0  0  0
 21 23  1  0  0  0  0
 21 24  1  0  0  0  0
 19 20  1  0  0  0  0
 19 21  1  0  0  0  0
M  CHG  1  15  -1
M  END
$$$$
default_name
  -OEChem-02102213163D

 24 23  0     1  0  0  0  0  0999 V2000
   -2.8347   -3.7166    0.8034 H   0  0  0  0  0  0  0  0  0  0  0  0
   -2.7728   -2.7096    0.3954 C   0  0  0  0  0  0  0  0  0  0  0  0
   -3.4267   -2.0426    0.9524 H   0  0  0  0  0  0  0  0  0  0  0  0
   -3.0538   -2.7186   -0.6556 H   0  0  0  0  0  0  0  0  0  0  0  0
   -1.3498   -2.2206    0.5184 C   0  0  0  0  0  0  0  0  0  0  0  0
   -0.4997   -2.9426    1.0194 O   0  0  0  0  0  0  0  0  0  0  0  0
   -1.1198   -0.9926    0.0674 N   0  0  0  0  0  0  0  0  0  0  0  0
   -1.8978   -0.4486   -0.2716 H   0  0  0  0  0  0  0  0  0  0  0  0
    0.1693   -0.2866    0.0854 C   0  0  1  0  0  0  0  0  0  0  0  0
    0.8425   -0.7905    0.7811 H   0  0  0  0  0  0  0  0  0  0  0  0
    0.7993   -0.3404   -1.3233 C   0  0  0  0  0  0  0  0  0  0  0  0
    0.2769   -1.0964   -1.9120 H   0  0  0  0  0  0  0  0  0  0  0  0
    0.6500    0.6246   -1.8126 H   0  0  0  0  0  0  0  0  0  0  0  0
    2.2955   -0.6906   -1.3397 C   0  0  0  0  0  0  0  0  0  0  0  0
    2.8090   -1.1739   -0.3032 O   0  5  0  0  0  0  0  0  0  0  0  0
    2.9227   -0.4512   -2.3939 O   0  0  0  0  0  0  0  0  0  0  0  0
   -0.0374    1.1645    0.5781 C   0  0  0  0  0  0  0  0  0  0  0  0
   -0.9816    1.8416    0.1544 O   0  0  0  0  0  0  0  0  0  0  0  0
    0.8235    1.6462    1.4801 N   0  0  0  0  0  0  0  0  0  0  0  0
    1.6183    1.0435    1.7020 H   0  0  0  0  0  0  0  0  0  0  0  0
    0.7895    2.9929    2.0404 C   0  0  0  0  0  0  0  0  0  0  0  0
   -0.2344    3.2522    2.3130 H   0  0  0  0  0  0  0  0  0  0  0  0
    1.4265    3.0377    2.9233 H   0  0  0  0  0  0  0  0  0  0  0  0
    1.1511    3.7014    1.2950 H   0  0  0  0  0  0  0  0  0  0  0  0
  5  6  2  0  0  0  0
  5  7  1  0  0  0  0
  2  3  1  0  0  0  0
  2  4  1  0  0  0  0
  2  5  1  0  0  0  0
  1  2  1  0  0  0  0
 17 18  2  0  0  0  0
 17 19  1  0  0  0  0
 14 15  1  0  0  0  0
 14 16  2  0  0  0  0
 11 12  1  0  0  0  0
 11 13  1  0  0  0  0
 11 14  1  0  0  0  0
  9 10  1  0  0  0  0
  9 11  1  0  0  0  0
  9 17  1  0  0  0  0
  7  8  1  0  0  0  0
  7  9  1  0  0  0  0
 21 22  1  0  0  0  0
 21 23  1  0  0  0  0
 21 24  1  0  0  0  0
 19 20  1  0  0  0  0
 19 21  1  0  0  0  0
M  CHG  1  15  -1
M  END
$$$$
default_name
  -OEChem-02102213163D

 24 23  0     1  0  0  0  0  0999 V2000
   -2.8347   -3.7166    0.8034 H   0  0  0  0  0  0  0  0  0  0  0  0
   -2.7728   -2.7096    0.3954 C   0  0  0  0  0  0  0  0  0  0  0  0
   -3.4267   -2.0426    0.9524 H   0  0  0  0  0  0  0  0  0  0  0  0
   -3.0538   -2.7186   -0.6556 H   0  0  0  0  0  0  0  0  0  0  0  0
   -1.3498   -2.2206    0.5184 C   0  0  0  0  0  0  0  0  0  0  0  0
   -0.4997   -2.9426    1.0194 O   0  0  0  0  0  0  0  0  0  0  0  0
   -1.1198   -0.9926    0.0674 N   0  0  0  0  0  0  0  0  0  0  0  0
   -1.8978   -0.4486   -0.2716 H   0  0  0  0  0  0  0  0  0  0  0  0
    0.1693   -0.2866    0.0854 C   0  0  1  0  0  0  0  0  0  0  0  0
    0.8425   -0.7905    0.7811 H   0  0  0  0  0  0  0  0  0  0  0  0
    0.7993   -0.3404   -1.3233 C   0  0  0  0  0  0  0  0  0  0  0  0
    0.2769   -1.0964   -1.9120 H   0  0  0  0  0  0  0  0  0  0  0  0
    0.6500    0.6246   -1.8126 H   0  0  0  0  0  0  0  0  0  0  0  0
    2.2955   -0.6906   -1.3397 C   0  0  0  0  0  0  0  0  0  0  0  0
    2.7489   -1.4247   -0.4302 O   0  5  0  0  0  0  0  0  0  0  0  0
    2.9830   -0.1998   -2.2609 O   0  0  0  0  0  0  0  0  0  0  0  0
   -0.0374    1.1645    0.5781 C   0  0  0  0  0  0  0  0  0  0  0  0
   -0.9816    1.8416    0.1544 O   0  0  0  0  0  0  0  0  0  0  0  0
    0.8235    1.6462    1.4801 N   0  0  0  0  0  0  0  0  0  0  0  0
    1.6183    1.0435    1.7020 H   0  0  0  0  0  0  0  0  0  0  0  0
    0.7895    2.9929    2.0404 C   0  0  0  0  0  0  0  0  0  0  0  0
   -0.2344    3.2522    2.3130 H   0  0  0  0  0  0  0  0  0  0  0  0
    1.4265    3.0377    2.9233 H   0  0  0  0  0  0  0  0  0  0  0  0
    1.1511    3.7014    1.2950 H   0  0  0  0  0  0  0  0  0  0  0  0
  5  6  2  0  0  0  0
  5  7  1  0  0  0  0
  2  3  1  0  0  0  0
  2  4  1  0  0  0  0
  2  5  1  0  0  0  0
  1  2  1  0  0  0  0
 17 18  2  0  0  0  0
 17 19  1  0  0  0  0
 14 15  1  0  0  0  0
 14 16  2  0  0  0  0
 11 12  1  0  0  0  0
 11 13  1  0  0  0  0
 11 14  1  0  0  0  0
  9 10  1  0  0  0  0
  9 11  1  0  0  0  0
  9 17  1  0  0  0  0
  7  8  1  0  0  0  0
  7  9  1  0  0  0  0
 21 22  1  0  0  0  0
 21 23  1  0  0  0  0
 21 24  1  0  0  0  0
 19 20  1  0  0  0  0
 19 21  1  0  0  0  0
M  CHG  1  15  -1
M  END
$$$$
default_name
  -OEChem-02102213163D

 24 23  0     1  0  0  0  0  0999 V2000
   -2.8347   -3.7166    0.8034 H   0  0  0  0  0  0  0  0  0  0  0  0
   -2.7728   -2.7096    0.3954 C   0  0  0  0  0  0  0  0  0  0  0  0
   -3.4267   -2.0426    0.9524 H   0  0  0  0  0  0  0  0  0  0  0  0
   -3.0538   -2.7186   -0.6556 H   0  0  0  0  0  0  0  0  0  0  0  0
   -1.3498   -2.2206    0.5184 C   0  0  0  0  0  0  0  0  0  0  0  0
   -0.4997   -2.9426    1.0194 O   0  0  0  0  0  0  0  0  0  0  0  0
   -1.1198   -0.9926    0.0674 N   0  0  0  0  0  0  0  0  0  0  0  0
   -1.8978   -0.4486   -0.2716 H   0  0  0  0  0  0  0  0  0  0  0  0
    0.1693   -0.2866    0.0854 C   0  0  1  0  0  0  0  0  0  0  0  0
    0.8425   -0.7905    0.7811 H   0  0  0  0  0  0  0  0  0  0  0  0
    0.7993   -0.3404   -1.3233 C   0  0  0  0  0  0  0  0  0  0  0  0
    0.2769   -1.0964   -1.9120 H   0  0  0  0  0  0  0  0  0  0  0  0
    0.6500    0.6246   -1.8126 H   0  0  0  0  0  0  0  0  0  0  0  0
    2.2955   -0.6906   -1.3397 C   0  0  0  0  0  0  0  0  0  0  0  0
    2.6976   -1.6348   -0.6197 O   0  5  0  0  0  0  0  0  0  0  0  0
    3.0341    0.0093   -2.0655 O   0  0  0  0  0  0  0  0  0  0  0  0
   -0.0374    1.1645    0.5781 C   0  0  0  0  0  0  0  0  0  0  0  0
   -0.9816    1.8416    0.1544 O   0  0  0  0  0  0  0  0  0  0  0  0
    0.8235    1.6462    1.4801 N   0  0  0  0  0  0  0  0  0  0  0  0
    1.6183    1.0435    1.7020 H   0  0  0  0  0  0  0  0  0  0  0  0
    0.7895    2.9929    2.0404 C   0  0  0  0  0  0  0  0  0  0  0  0
   -0.2344    3.2522    2.3130 H   0  0  0  0  0  0  0  0  0  0  0  0
    1.4265    3.0377    2.9233 H   0  0  0  0  0  0  0  0  0  0  0  0
    1.1511    3.7014    1.2950 H   0  0  0  0  0  0  0  0  0  0  0  0
  5  6  2  0  0  0  0
  5  7  1  0  0  0  0
  2  3  1  0  0  0  0
  2  4  1  0  0  0  0
  2  5  1  0  0  0  0
  1  2  1  0  0  0  0
 17 18  2  0  0  0  0
 17 19  1  0  0  0  0
 14 15  1  0  0  0  0
 14 16  2  0  0  0  0
 11 12  1  0  0  0  0
 11 13  1  0  0  0  0
 11 14  1  0  0  0  0
  9 10  1  0  0  0  0
  9 11  1  0  0  0  0
  9 17  1  0  0  0  0
  7  8  1  0  0  0  0
  7  9  1  0  0  0  0
 21 22  1  0  0  0  0
 21 23  1  0  0  0  0
 21 24  1  0  0  0  0
 19 20  1  0  0  0  0
 19 21  1  0  0  0  0
M  CHG  1  15  -1
M  END
$$$$
default_name
  -OEChem-02102213163D

 24 23  0     1  0  0  0  0  0999 V2000
   -2.8347   -3.7166    0.8034 H   0  0  0  0  0  0  0  0  0  0  0  0
   -2.7728   -2.7096    0.3954 C   0  0  0  0  0  0  0  0  0  0  0  0
   -3.4267   -2.0426    0.9524 H   0  0  0  0  0  0  0  0  0  0  0  0
   -3.0538   -2.7186   -0.6556 H   0  0  0  0  0  0  0  0  0  0  0  0
   -1.3498   -2.2206    0.5184 C   0  0  0  0  0  0  0  0  0  0  0  0
   -0.4997   -2.9426    1.0194 O   0  0  0  0  0  0  0  0  0  0  0  0
   -1.1198   -0.9926    0.0674 N   0  0  0  0  0  0  0  0  0  0  0  0
   -1.8978   -0.4486   -0.2716 H   0  0  0  0  0  0  0  0  0  0  0  0
    0.1693   -0.2866    0.0854 C   0  0  1  0  0  0  0  0  0  0  0  0
    0.8425   -0.7905    0.7811 H   0  0  0  0  0  0  0  0  0  0  0  0
    0.7993   -0.3404   -1.3233 C   0  0  0  0  0  0  0  0  0  0  0  0
    0.2769   -1.0964   -1.9120 H   0  0  0  0  0  0  0  0  0  0  0  0
    0.6500    0.6246   -1.8126 H   0  0  0  0  0  0  0  0  0  0  0  0
    2.2955   -0.6906   -1.3397 C   0  0  0  0  0  0  0  0  0  0  0  0
    2.6587   -1.7898   -0.8586 O   0  5  0  0  0  0  0  0  0  0  0  0
    3.0725    0.1619   -1.8210 O   0  0  0  0  0  0  0  0  0  0  0  0
   -0.0374    1.1645    0.5781 C   0  0  0  0  0  0  0  0  0  0  0  0
   -0.9816    1.8416    0.1544 O   0  0  0  0  0  0  0  0  0  0  0  0
    0.8235    1.6462    1.4801 N   0  0  0  0  0  0  0  0  0  0  0  0
    1.6183    1.0435    1.7020 H   0  0  0  0  0  0  0  0  0  0  0  0
    0.7895    2.9929    2.0404 C   0  0  0  0  0  0  0  0  0  0  0  0
   -0.2344    3.2522    2.3130 H   0  0  0  0  0  0  0  0  0  0  0  0
    1.4265    3.0377    2.9233 H   0  0  0  0  0  0  0  0  0  0  0  0
    1.1511    3.7014    1.2950 H   0  0  0  0  0  0  0  0  0  0  0  0
  5  6  2  0  0  0  0
  5  7  1  0  0  0  0
  2  3  1  0  0  0  0
  2  4  1  0  0  0  0
  2  5  1  0  0  0  0
  1  2  1  0  0  0  0
 17 18  2  0  0  0  0
 17 19  1  0  0  0  0
 14 15  1  0  0  0  0
 14 16  2  0  0  0  0
 11 12  1  0  0  0  0
 11 13  1  0  0  0  0
 11 14  1  0  0  0  0
  9 10  1  0  0  0  0
  9 11  1  0  0  0  0
  9 17  1  0  0  0  0
  7  8  1  0  0  0  0
  7  9  1  0  0  0  0
 21 22  1  0  0  0  0
 21 23  1  0  0  0  0
 21 24  1  0  0  0  0
 19 20  1  0  0  0  0
 19 21  1  0  0  0  0
M  CHG  1  15  -1
M  END
$$$$
default_name
  -OEChem-02102213163D

 24 23  0     1  0  0  0  0  0999 V2000
   -2.8347   -3.7166    0.8034 H   0  0  0  0  0  0  0  0  0  0  0  0
   -2.7728   -2.7096    0.3954 C   0  0  0  0  0  0  0  0  0  0  0  0
   -3.4267   -2.0426    0.9524 H   0  0  0  0  0  0  0  0  0  0  0  0
   -3.0538   -2.7186   -0.6556 H   0  0  0  0  0  0  0  0  0  0  0  0
   -1.3498   -2.2206    0.5184 C   0  0  0  0  0  0  0  0  0  0  0  0
   -0.4997   -2.9426    1.0194 O   0  0  0  0  0  0  0  0  0  0  0  0
   -1.1198   -0.9926    0.0674 N   0  0  0  0  0  0  0  0  0  0  0  0
   -1.8978   -0.4486   -0.2716 H   0  0  0  0  0  0  0  0  0  0  0  0
    0.1693   -0.2866    0.0854 C   0  0  1  0  0  0  0  0  0  0  0  0
    0.8425   -0.7905    0.7811 H   0  0  0  0  0  0  0  0  0  0  0  0
    0.7993   -0.3404   -1.3233 C   0  0  0  0  0  0  0  0  0  0  0  0
    0.2769   -1.0964   -1.9120 H   0  0  0  0  0  0  0  0  0  0  0  0
    0.6500    0.6246   -1.8126 H   0  0  0  0  0  0  0  0  0  0  0  0
    2.2955   -0.6906   -1.3397 C   0  0  0  0  0  0  0  0  0  0  0  0
    2.6348   -1.8793   -1.1308 O   0  5  0  0  0  0  0  0  0  0  0  0
    3.0956    0.2476   -1.5442 O   0  0  0  0  0  0  0  0  0  0  0  0
   -0.0374    1.1645    0.5781 C   0  0  0  0  0  0  0  0  0  0  0  0
   -0.9816    1.8416    0.1544 O   0  0  0  0  0  0  0  0  0  0  0  0
    0.8235    1.6462    1.4801 N   0  0  0  0  0  0  0  0  0  0  0  0
    1.6183    1.0435    1.7020 H   0  0  0  0  0  0  0  0  0  0  0  0
    0.7895    2.9929    2.0404 C   0  0  0  0  0  0  0  0  0  0  0  0
   -0.2344    3.2522    2.3130 H   0  0  0  0  0  0  0  0  0  0  0  0
    1.4265    3.0377    2.9233 H   0  0  0  0  0  0  0  0  0  0  0  0
    1.1511    3.7014    1.2950 H   0  0  0  0  0  0  0  0  0  0  0  0
  5  6  2  0  0  0  0
  5  7  1  0  0  0  0
  2  3  1  0  0  0  0
  2  4  1  0  0  0  0
  2  5  1  0  0  0  0
  1  2  1  0  0  0  0
 17 18  2  0  0  0  0
 17 19  1  0  0  0  0
 14 15  1  0  0  0  0
 14 16  2  0  0  0  0
 11 12  1  0  0  0  0
 11 13  1  0  0  0  0
 11 14  1  0  0  0  0
  9 10  1  0  0  0  0
  9 11  1  0  0  0  0
  9 17  1  0  0  0  0
  7  8  1  0  0  0  0
  7  9  1  0  0  0  0
 21 22  1  0  0  0  0
 21 23  1  0  0  0  0
 21 24  1  0  0  0  0
 19 20  1  0  0  0  0
 19 21  1  0  0  0  0
M  CHG  1  15  -1
M  END
$$$$
default_name
  -OEChem-02102213163D

 24 23  0     1  0  0  0  0  0999 V2000
   -2.8347   -3.7166    0.8034 H   0  0  0  0  0  0  0  0  0  0  0  0
   -2.7728   -2.7096    0.3954 C   0  0  0  0  0  0  0  0  0  0  0  0
   -3.4267   -2.0426    0.9524 H   0  0  0  0  0  0  0  0  0  0  0  0
   -3.0538   -2.7186   -0.6556 H   0  0  0  0  0  0  0  0  0  0  0  0
   -1.3498   -2.2206    0.5184 C   0  0  0  0  0  0  0  0  0  0  0  0
   -0.4997   -2.9426    1.0194 O   0  0  0  0  0  0  0  0  0  0  0  0
   -1.1198   -0.9926    0.0674 N   0  0  0  0  0  0  0  0  0  0  0  0
   -1.8978   -0.4486   -0.2716 H   0  0  0  0  0  0  0  0  0  0  0  0
    0.1693   -0.2866    0.0854 C   0  0  1  0  0  0  0  0  0  0  0  0
    0.8425   -0.7905    0.7811 H   0  0  0  0  0  0  0  0  0  0  0  0
    0.7993   -0.3404   -1.3233 C   0  0  0  0  0  0  0  0  0  0  0  0
    0.2769   -1.0964   -1.9120 H   0  0  0  0  0  0  0  0  0  0  0  0
    0.6500    0.6246   -1.8126 H   0  0  0  0  0  0  0  0  0  0  0  0
    2.2955   -0.6906   -1.3397 C   0  0  0  0  0  0  0  0  0  0  0  0
    2.6275   -1.8970   -1.4176 O   0  5  0  0  0  0  0  0  0  0  0  0
    3.1018    0.2605   -1.2538 O   0  0  0  0  0  0  0  0  0  0  0  0
   -0.0374    1.1645    0.5781 C   0  0  0  0  0  0  0  0  0  0  0  0
   -0.9816    1.8416    0.1544 O   0  0  0  0  0  0  0  0  0  0  0  0
    0.8235    1.6462    1.4801 N   0  0  0  0  0  0  0  0  0  0  0  0
    1.6183    1.0435    1.7020 H   0  0  0  0  0  0  0  0  0  0  0  0
    0.7895    2.9929    2.0404 C   0  0  0  0  0  0  0  0  0  0  0  0
   -0.2344    3.2522    2.3130 H   0  0  0  0  0  0  0  0  0  0  0  0
    1.4265    3.0377    2.9233 H   0  0  0  0  0  0  0  0  0  0  0  0
    1.1511    3.7014    1.2950 H   0  0  0  0  0  0  0  0  0  0  0  0
  5  6  2  0  0  0  0
  5  7  1  0  0  0  0
  2  3  1  0  0  0  0
  2  4  1  0  0  0  0
  2  5  1  0  0  0  0
  1  2  1  0  0  0  0
 17 18  2  0  0  0  0
 17 19  1  0  0  0  0
 14 15  1  0  0  0  0
 14 16  2  0  0  0  0
 11 12  1  0  0  0  0
 11 13  1  0  0  0  0
 11 14  1  0  0  0  0
  9 10  1  0  0  0  0
  9 11  1  0  0  0  0
  9 17  1  0  0  0  0
  7  8  1  0  0  0  0
  7  9  1  0  0  0  0
 21 22  1  0  0  0  0
 21 23  1  0  0  0  0
 21 24  1  0  0  0  0
 19 20  1  0  0  0  0
 19 21  1  0  0  0  0
M  CHG  1  15  -1
M  END
$$$$
default_name
  -OEChem-02102213163D

 24 23  0     1  0  0  0  0  0999 V2000
   -2.8347   -3.7166    0.8034 H   0  0  0  0  0  0  0  0  0  0  0  0
   -2.7728   -2.7096    0.3954 C   0  0  0  0  0  0  0  0  0  0  0  0
   -3.4267   -2.0426    0.9524 H   0  0  0  0  0  0  0  0  0  0  0  0
   -3.0538   -2.7186   -0.6556 H   0  0  0  0  0  0  0  0  0  0  0  0
   -1.3498   -2.2206    0.5184 C   0  0  0  0  0  0  0  0  0  0  0  0
   -0.4997   -2.9426    1.0194 O   0  0  0  0  0  0  0  0  0  0  0  0
   -1.1198   -0.9926    0.0674 N   0  0  0  0  0  0  0  0  0  0  0  0
   -1.8978   -0.4486   -0.2716 H   0  0  0  0  0  0  0  0  0  0  0  0
    0.1693   -0.2866    0.0854 C   0  0  1  0  0  0  0  0  0  0  0  0
    0.8425   -0.7905    0.7811 H   0  0  0  0  0  0  0  0  0  0  0  0
    0.7993   -0.3404   -1.3233 C   0  0  0  0  0  0  0  0  0  0  0  0
    0.2769   -1.0964   -1.9120 H   0  0  0  0  0  0  0  0  0  0  0  0
    0.6500    0.6246   -1.8126 H   0  0  0  0  0  0  0  0  0  0  0  0
    2.2955   -0.6906   -1.3397 C   0  0  0  0  0  0  0  0  0  0  0  0
    2.6373   -1.8418   -1.6996 O   0  5  0  0  0  0  0  0  0  0  0  0
    3.0907    0.1998   -0.9697 O   0  0  0  0  0  0  0  0  0  0  0  0
   -0.0374    1.1645    0.5781 C   0  0  0  0  0  0  0  0  0  0  0  0
   -0.9816    1.8416    0.1544 O   0  0  0  0  0  0  0  0  0  0  0  0
    0.8235    1.6462    1.4801 N   0  0  0  0  0  0  0  0  0  0  0  0
    1.6183    1.0435    1.7020 H   0  0  0  0  0  0  0  0  0  0  0  0
    0.7895    2.9929    2.0404 C   0  0  0  0  0  0  0  0  0  0  0  0
   -0.2344    3.2522    2.3130 H   0  0  0  0  0  0  0  0  0  0  0  0
    1.4265    3.0377    2.9233 H   0  0  0  0  0  0  0  0  0  0  0  0
    1.1511    3.7014    1.2950 H   0  0  0  0  0  0  0  0  0  0  0  0
  5  6  2  0  0  0  0
  5  7  1  0  0  0  0
  2  3  1  0  0  0  0
  2  4  1  0  0  0  0
  2  5  1  0  0  0  0
  1  2  1  0  0  0  0
 17 18  2  0  0  0  0
 17 19  1  0  0  0  0
 14 15  1  0  0  0  0
 14 16  2  0  0  0  0
 11 12  1  0  0  0  0
 11 13  1  0  0  0  0
 11 14  1  0  0  0  0
  9 10  1  0  0  0  0
  9 11  1  0  0  0  0
  9 17  1  0  0  0  0
  7  8  1  0  0  0  0
  7  9  1  0  0  0  0
 21 22  1  0  0  0  0
 21 23  1  0  0  0  0
 21 24  1  0  0  0  0
 19 20  1  0  0  0  0
 19 21  1  0  0  0  0
M  CHG  1  15  -1
M  END
$$$$
default_name
  -OEChem-02102213163D

 24 23  0     1  0  0  0  0  0999 V2000
   -2.8347   -3.7166    0.8034 H   0  0  0  0  0  0  0  0  0  0  0  0
   -2.7728   -2.7096    0.3954 C   0  0  0  0  0  0  0  0  0  0  0  0
   -3.4267   -2.0426    0.9524 H   0  0  0  0  0  0  0  0  0  0  0  0
   -3.0538   -2.7186   -0.6556 H   0  0  0  0  0  0  0  0  0  0  0  0
   -1.3498   -2.2206    0.5184 C   0  0  0  0  0  0  0  0  0  0  0  0
   -0.4997   -2.9426    1.0194 O   0  0  0  0  0  0  0  0  0  0  0  0
   -1.1198   -0.9926    0.0674 N   0  0  0  0  0  0  0  0  0  0  0  0
   -1.8978   -0.4486   -0.2716 H   0  0  0  0  0  0  0  0  0  0  0  0
    0.1693   -0.2866    0.0854 C   0  0  1  0  0  0  0  0  0  0  0  0
    0.8425   -0.7905    0.7811 H   0  0  0  0  0  0  0  0  0  0  0  0
    0.7993   -0.3404   -1.3233 C   0  0  0  0  0  0  0  0  0  0  0  0
    0.2769   -1.0964   -1.9120 H   0  0  0  0  0  0  0  0  0  0  0  0
    0.6500    0.6246   -1.8126 H   0  0  0  0  0  0  0  0  0  0  0  0
    2.2955   -0.6906   -1.3397 C   0  0  0  0  0  0  0  0  0  0  0  0
    2.6636   -1.7175   -1.9575 O   0  5  0  0  0  0  0  0  0  0  0  0
    3.0630    0.0697   -0.7112 O   0  0  0  0  0  0  0  0  0  0  0  0
   -0.0374    1.1645    0.5781 C   0  0  0  0  0  0  0  0  0  0  0  0
   -0.9816    1.8416    0.1544 O   0  0  0  0  0  0  0  0  0  0  0  0
    0.8235    1.6462    1.4801 N   0  0  0  0  0  0  0  0  0  0  0  0
    1.6183    1.0435    1.7020 H   0  0  0  0  0  0  0  0  0  0  0  0
    0.7895    2.9929    2.0404 C   0  0  0  0  0  0  0  0  0  0  0  0
   -0.2344    3.2522    2.3130 H   0  0  0  0  0  0  0  0  0  0  0  0
    1.4265    3.0377    2.9233 H   0  0  0  0  0  0  0  0  0  0  0  0
    1.1511    3.7014    1.2950 H   0  0  0  0  0  0  0  0  0  0  0  0
  5  6  2  0  0  0  0
  5  7  1  0  0  0  0
  2  3  1  0  0  0  0
  2  4  1  0  0  0  0
  2  5  1  0  0  0  0
  1  2  1  0  0  0  0
 17 18  2  0  0  0  0
 17 19  1  0  0  0  0
 14 15  1  0  0  0  0
 14 16  2  0  0  0  0
 11 12  1  0  0  0  0
 11 13  1  0  0  0  0
 11 14  1  0  0  0  0
  9 10  1  0  0  0  0
  9 11  1  0  0  0  0
  9 17  1  0  0  0  0
  7  8  1  0  0  0  0
  7  9  1  0  0  0  0
 21 22  1  0  0  0  0
 21 23  1  0  0  0  0
 21 24  1  0  0  0  0
 19 20  1  0  0  0  0
 19 21  1  0  0  0  0
M  CHG  1  15  -1
M  END
$$$$
default_name
  -OEChem-02102213163D

 24 23  0     1  0  0  0  0  0999 V2000
   -2.8347   -3.7166    0.8034 H   0  0  0  0  0  0  0  0  0  0  0  0
   -2.7728   -2.7096    0.3954 C   0  0  0  0  0  0  0  0  0  0  0  0
   -3.4267   -2.0426    0.9524 H   0  0  0  0  0  0  0  0  0  0  0  0
   -3.0538   -2.7186   -0.6556 H   0  0  0  0  0  0  0  0  0  0  0  0
   -1.3498   -2.2206    0.5184 C   0  0  0  0  0  0  0  0  0  0  0  0
   -0.4997   -2.9426    1.0194 O   0  0  0  0  0  0  0  0  0  0  0  0
   -1.1198   -0.9926    0.0674 N   0  0  0  0  0  0  0  0  0  0  0  0
   -1.8978   -0.4486   -0.2716 H   0  0  0  0  0  0  0  0  0  0  0  0
    0.1693   -0.2866    0.0854 C   0  0  1  0  0  0  0  0  0  0  0  0
    0.8425   -0.7905    0.7811 H   0  0  0  0  0  0  0  0  0  0  0  0
    0.7993   -0.3404   -1.3233 C   0  0  0  0  0  0  0  0  0  0  0  0
    0.2769   -1.0964   -1.9120 H   0  0  0  0  0  0  0  0  0  0  0  0
    0.6500    0.6246   -1.8126 H   0  0  0  0  0  0  0  0  0  0  0  0
    2.2955   -0.6906   -1.3397 C   0  0  0  0  0  0  0  0  0  0  0  0
    2.7046   -1.5325   -2.1737 O   0  5  0  0  0  0  0  0  0  0  0  0
    3.0207   -0.1212   -0.4960 O   0  0  0  0  0  0  0  0  0  0  0  0
   -0.0374    1.1645    0.5781 C   0  0  0  0  0  0  0  0  0  0  0  0
   -0.9816    1.8416    0.1544 O   0  0  0  0  0  0  0  0  0  0  0  0
    0.8235    1.6462    1.4801 N   0  0  0  0  0  0  0  0  0  0  0  0
    1.6183    1.0435    1.7020 H   0  0  0  0  0  0  0  0  0  0  0  0
    0.7895    2.9929    2.0404 C   0  0  0  0  0  0  0  0  0  0  0  0
   -0.2344    3.2522    2.3130 H   0  0  0  0  0  0  0  0  0  0  0  0
    1.4265    3.0377    2.9233 H   0  0  0  0  0  0  0  0  0  0  0  0
    1.1511    3.7014    1.2950 H   0  0  0  0  0  0  0  0  0  0  0  0
  5  6  2  0  0  0  0
  5  7  1  0  0  0  0
  2  3  1  0  0  0  0
  2  4  1  0  0  0  0
  2  5  1  0  0  0  0
  1  2  1  0  0  0  0
 17 18  2  0  0  0  0
 17 19  1  0  0  0  0
 14 15  1  0  0  0  0
 14 16  2  0  0  0  0
 11 12  1  0  0  0  0
 11 13  1  0  0  0  0
 11 14  1  0  0  0  0
  9 10  1  0  0  0  0
  9 11  1  0  0  0  0
  9 17  1  0  0  0  0
  7  8  1  0  0  0  0
  7  9  1  0  0  0  0
 21 22  1  0  0  0  0
 21 23  1  0  0  0  0
 21 24  1  0  0  0  0
 19 20  1  0  0  0  0
 19 21  1  0  0  0  0
M  CHG  1  15  -1
M  END
$$$$
default_name
  -OEChem-02102213163D

 24 23  0     1  0  0  0  0  0999 V2000
   -2.8347   -3.7166    0.8034 H   0  0  0  0  0  0  0  0  0  0  0  0
   -2.7728   -2.7096    0.3954 C   0  0  0  0  0  0  0  0  0  0  0  0
   -3.4267   -2.0426    0.9524 H   0  0  0  0  0  0  0  0  0  0  0  0
   -3.0538   -2.7186   -0.6556 H   0  0  0  0  0  0  0  0  0  0  0  0
   -1.3498   -2.2206    0.5184 C   0  0  0  0  0  0  0  0  0  0  0  0
   -0.4997   -2.9426    1.0194 O   0  0  0  0  0  0  0  0  0  0  0  0
   -1.1198   -0.9926    0.0674 N   0  0  0  0  0  0  0  0  0  0  0  0
   -1.8978   -0.4486   -0.2716 H   0  0  0  0  0  0  0  0  0  0  0  0
    0.1693   -0.2866    0.0854 C   0  0  1  0  0  0  0  0  0  0  0  0
    0.8425   -0.7905    0.7811 H   0  0  0  0  0  0  0  0  0  0  0  0
    0.7993   -0.3404   -1.3233 C   0  0  0  0  0  0  0  0  0  0  0  0
    0.2769   -1.0964   -1.9120 H   0  0  0  0  0  0  0  0  0  0  0  0
    0.6500    0.6246   -1.8126 H   0  0  0  0  0  0  0  0  0  0  0  0
    2.2955   -0.6906   -1.3397 C   0  0  0  0  0  0  0  0  0  0  0  0
    2.7574   -1.2994   -2.3335 O   0  5  0  0  0  0  0  0  0  0  0  0
    2.9666   -0.3596   -0.3386 O   0  0  0  0  0  0  0  0  0  0  0  0
   -0.0374    1.1645    0.5781 C   0  0  0  0  0  0  0  0  0  0  0  0
   -0.9816    1.8416    0.1544 O   0  0  0  0  0  0  0  0  0  0  0  0
    0.8235    1.6462    1.4801 N   0  0  0  0  0  0  0  0  0  0  0  0
    1.6183    1.0435    1.7020 H   0  0  0  0  0  0  0  0  0  0  0  0
    0.7895    2.9929    2.0404 C   0  0  0  0  0  0  0  0  0  0  0  0
   -0.2344    3.2522    2.3130 H   0  0  0  0  0  0  0  0  0  0  0  0
    1.4265    3.0377    2.9233 H   0  0  0  0  0  0  0  0  0  0  0  0
    1.1511    3.7014    1.2950 H   0  0  0  0  0  0  0  0  0  0  0  0
  5  6  2  0  0  0  0
  5  7  1  0  0  0  0
  2  3  1  0  0  0  0
  2  4  1  0  0  0  0
  2  5  1  0  0  0  0
  1  2  1  0  0  0  0
 17 18  2  0  0  0  0
 17 19  1  0  0  0  0
 14 15  1  0  0  0  0
 14 16  2  0  0  0  0
 11 12  1  0  0  0  0
 11 13  1  0  0  0  0
 11 14  1  0  0  0  0
  9 10  1  0  0  0  0
  9 11  1  0  0  0  0
  9 17  1  0  0  0  0
  7  8  1  0  0  0  0
  7  9  1  0  0  0  0
 21 22  1  0  0  0  0
 21 23  1  0  0  0  0
 21 24  1  0  0  0  0
 19 20  1  0  0  0  0
 19 21  1  0  0  0  0
M  CHG  1  15  -1
M  END
$$$$
default_name
  -OEChem-02102213163D

 24 23  0     1  0  0  0  0  0999 V2000
   -2.8347   -3.7166    0.8034 H   0  0  0  0  0  0  0  0  0  0  0  0
   -2.7728   -2.7096    0.3954 C   0  0  0  0  0  0  0  0  0  0  0  0
   -3.4267   -2.0426    0.9524 H   0  0  0  0  0  0  0  0  0  0  0  0
   -3.0538   -2.7186   -0.6556 H   0  0  0  0  0  0  0  0  0  0  0  0
   -1.3498   -2.2206    0.5184 C   0  0  0  0  0  0  0  0  0  0  0  0
   -0.4997   -2.9426    1.0194 O   0  0  0  0  0  0  0  0  0  0  0  0
   -1.1198   -0.9926    0.0674 N   0  0  0  0  0  0  0  0  0  0  0  0
   -1.8978   -0.4486   -0.2716 H   0  0  0  0  0  0  0  0  0  0  0  0
    0.1693   -0.2866    0.0854 C   0  0  1  0  0  0  0  0  0  0  0  0
    0.8425   -0.7905    0.7811 H   0  0  0  0  0  0  0  0  0  0  0  0
    0.7993   -0.3404   -1.3233 C   0  0  0  0  0  0  0  0  0  0  0  0
    0.2769   -1.0964   -1.9120 H   0  0  0  0  0  0  0  0  0  0  0  0
    0.6500    0.6246   -1.8126 H   0  0  0  0  0  0  0  0  0  0  0  0
    2.2955   -0.6906   -1.3397 C   0  0  0  0  0  0  0  0  0  0  0  0
    2.8184   -1.0342   -2.4260 O   0  5  0  0  0  0  0  0  0  0  0  0
    2.9045   -0.6294   -0.2499 O   0  0  0  0  0  0  0  0  0  0  0  0
   -0.0374    1.1645    0.5781 C   0  0  0  0  0  0  0  0  0  0  0  0
   -0.9816    1.8416    0.1544 O   0  0  0  0  0  0  0  0  0  0  0  0
    0.8235    1.6462    1.4801 N   0  0  0  0  0  0  0  0  0  0  0  0
    1.6183    1.0435    1.7020 H   0  0  0  0  0  0  0  0  0  0  0  0
    0.7895    2.9929    2.0404 C   0  0  0  0  0  0  0  0  0  0  0  0
   -0.2344    3.2522    2.3130 H   0  0  0  0  0  0  0  0  0  0  0  0
    1.4265    3.0377    2.9233 H   0  0  0  0  0  0  0  0  0  0  0  0
    1.1511    3.7014    1.2950 H   0  0  0  0  0  0  0  0  0  0  0  0
  5  6  2  0  0  0  0
  5  7  1  0  0  0  0
  2  3  1  0  0  0  0
  2  4  1  0  0  0  0
  2  5  1  0  0  0  0
  1  2  1  0  0  0  0
 17 18  2  0  0  0  0
 17 19  1  0  0  0  0
 14 15  1  0  0  0  0
 14 16  2  0  0  0  0
 11 12  1  0  0  0  0
 11 13  1  0  0  0  0
 11 14  1  0  0  0  0
  9 10  1  0  0  0  0
  9 11  1  0  0  0  0
  9 17  1  0  0  0  0
  7  8  1  0  0  0  0
  7  9  1  0  0  0  0
 21 22  1  0  0  0  0
 21 23  1  0  0  0  0
 21 24  1  0  0  0  0
 19 20  1  0  0  0  0
 19 21  1  0  0  0  0
M  CHG  1  15  -1
M  END
$$$$
default_name
  -OEChem-02102213163D

 24 23  0     1  0  0  0  0  0999 V2000
   -2.8347   -3.7166    0.8034 H   0  0  0  0  0  0  0  0  0  0  0  0
   -2.7728   -2.7096    0.3954 C   0  0  0  0  0  0  0  0  0  0  0  0
   -3.4267   -2.0426    0.9524 H   0  0  0  0  0  0  0  0  0  0  0  0
   -3.0538   -2.7186   -0.6556 H   0  0  0  0  0  0  0  0  0  0  0  0
   -1.3498   -2.2206    0.5184 C   0  0  0  0  0  0  0  0  0  0  0  0
   -0.4997   -2.9426    1.0194 O   0  0  0  0  0  0  0  0  0  0  0  0
   -1.1198   -0.9926    0.0674 N   0  0  0  0  0  0  0  0  0  0  0  0
   -1.8978   -0.4486   -0.2716 H   0  0  0  0  0  0  0  0  0  0  0  0
    0.1693   -0.2866    0.0854 C   0  0  1  0  0  0  0  0  0  0  0  0
    0.8425   -0.7905    0.7811 H   0  0  0  0  0  0  0  0  0  0  0  0
    0.7993   -0.3404   -1.3233 C   0  0  0  0  0  0  0  0  0  0  0  0
    0.1264   -0.8855   -1.9874 H   0  0  0  0  0  0  0  0  0  0  0  0
    0.8922    0.6782   -1.7063 H   0  0  0  0  0  0  0  0  0  0  0  0
    2.1708   -1.0310   -1.3825 C   0  0  0  0  0  0  0  0  0  0  0  0
    2.7511   -1.1166   -2.4904 O   0  5  0  0  0  0  0  0  0  0  0  0
    2.6222   -1.4888   -0.3106 O   0  0  0  0  0  0  0  0  0  0  0  0
   -0.0374    1.1645    0.5781 C   0  0  0  0  0  0  0  0  0  0  0  0
   -0.9816    1.8416    0.1544 O   0  0  0  0  0  0  0  0  0  0  0  0
    0.8235    1.6462    1.4801 N   0  0  0  0  0  0  0  0  0  0  0  0
    1.6183    1.0435    1.7020 H   0  0  0  0  0  0  0  0  0  0  0  0
    0.7895    2.9929    2.0404 C   0  0  0  0  0  0  0  0  0  0  0  0
   -0.2344    3.2522    2.3130 H   0  0  0  0  0  0  0  0  0  0  0  0
    1.4265    3.0377    2.9233 H   0  0  0  0  0  0  0  0  0  0  0  0
    1.1511    3.7014    1.2950 H   0  0  0  0  0  0  0  0  0  0  0  0
  5  6  2  0  0  0  0
  5  7  1  0  0  0  0
  2  3  1  0  0  0  0
  2  4  1  0  0  0  0
  2  5  1  0  0  0  0
  1  2  1  0  0  0  0
 17 18  2  0  0  0  0
 17 19  1  0  0  0  0
 14 15  1  0  0  0  0
 14 16  2  0  0  0  0
 11 12  1  0  0  0  0
 11 13  1  0  0  0  0
 11 14  1  0  0  0  0
  9 10  1  0  0  0  0
  9 11  1  0  0  0  0
  9 17  1  0  0  0  0
  7  8  1  0  0  0  0
  7  9  1  0  0  0  0
 21 22  1  0  0  0  0
 21 23  1  0  0  0  0
 21 24  1  0  0  0  0
 19 20  1  0  0  0  0
 19 21  1  0  0  0  0
M  CHG  1  15  -1
M  END
$$$$
default_name
  -OEChem-02102213163D

 24 23  0     1  0  0  0  0  0999 V2000
   -2.8347   -3.7166    0.8034 H   0  0  0  0  0  0  0  0  0  0  0  0
   -2.7728   -2.7096    0.3954 C   0  0  0  0  0  0  0  0  0  0  0  0
   -3.4267   -2.0426    0.9524 H   0  0  0  0  0  0  0  0  0  0  0  0
   -3.0538   -2.7186   -0.6556 H   0  0  0  0  0  0  0  0  0  0  0  0
   -1.3498   -2.2206    0.5184 C   0  0  0  0  0  0  0  0  0  0  0  0
   -0.4997   -2.9426    1.0194 O   0  0  0  0  0  0  0  0  0  0  0  0
   -1.1198   -0.9926    0.0674 N   0  0  0  0  0  0  0  0  0  0  0  0
   -1.8978   -0.4486   -0.2716 H   0  0  0  0  0  0  0  0  0  0  0  0
    0.1693   -0.2866    0.0854 C   0  0  1  0  0  0  0  0  0  0  0  0
    0.8425   -0.7905    0.7811 H   0  0  0  0  0  0  0  0  0  0  0  0
    0.7993   -0.3404   -1.3233 C   0  0  0  0  0  0  0  0  0  0  0  0
    0.1264   -0.8855   -1.9874 H   0  0  0  0  0  0  0  0  0  0  0  0
    0.8922    0.6782   -1.7063 H   0  0  0  0  0  0  0  0  0  0  0  0
    2.1708   -1.0310   -1.3825 C   0  0  0  0  0  0  0  0  0  0  0  0
    2.8776   -0.8727   -2.4057 O   0  5  0  0  0  0  0  0  0  0  0  0
    2.4948   -1.7340   -0.4011 O   0  0  0  0  0  0  0  0  0  0  0  0
   -0.0374    1.1645    0.5781 C   0  0  0  0  0  0  0  0  0  0  0  0
   -0.9816    1.8416    0.1544 O   0  0  0  0  0  0  0  0  0  0  0  0
    0.8235    1.6462    1.4801 N   0  0  0  0  0  0  0  0  0  0  0  0
    1.6183    1.0435    1.7020 H   0  0  0  0  0  0  0  0  0  0  0  0
    0.7895    2.9929    2.0404 C   0  0  0  0  0  0  0  0  0  0  0  0
   -0.2344    3.2522    2.3130 H   0  0  0  0  0  0  0  0  0  0  0  0
    1.4265    3.0377    2.9233 H   0  0  0  0  0  0  0  0  0  0  0  0
    1.1511    3.7014    1.2950 H   0  0  0  0  0  0  0  0  0  0  0  0
  5  6  2  0  0  0  0
  5  7  1  0  0  0  0
  2  3  1  0  0  0  0
  2  4  1  0  0  0  0
  2  5  1  0  0  0  0
  1  2  1  0  0  0  0
 17 18  2  0  0  0  0
 17 19  1  0  0  0  0
 14 15  1  0  0  0  0
 14 16  2  0  0  0  0
 11 12  1  0  0  0  0
 11 13  1  0  0  0  0
 11 14  1  0  0  0  0
  9 10  1  0  0  0  0
  9 11  1  0  0  0  0
  9 17  1  0  0  0  0
  7  8  1  0  0  0  0
  7  9  1  0  0  0  0
 21 22  1  0  0  0  0
 21 23  1  0  0  0  0
 21 24  1  0  0  0  0
 19 20  1  0  0  0  0
 19 21  1  0  0  0  0
M  CHG  1  15  -1
M  END
$$$$
default_name
  -OEChem-02102213163D

 24 23  0     1  0  0  0  0  0999 V2000
   -2.8347   -3.7166    0.8034 H   0  0  0  0  0  0  0  0  0  0  0  0
   -2.7728   -2.7096    0.3954 C   0  0  0  0  0  0  0  0  0  0  0  0
   -3.4267   -2.0426    0.9524 H   0  0  0  0  0  0  0  0  0  0  0  0
   -3.0538   -2.7186   -0.6556 H   0  0  0  0  0  0  0  0  0  0  0  0
   -1.3498   -2.2206    0.5184 C   0  0  0  0  0  0  0  0  0  0  0  0
   -0.4997   -2.9426    1.0194 O   0  0  0  0  0  0  0  0  0  0  0  0
   -1.1198   -0.9926    0.0674 N   0  0  0  0  0  0  0  0  0  0  0  0
   -1.8978   -0.4486   -0.2716 H   0  0  0  0  0  0  0  0  0  0  0  0
    0.1693   -0.2866    0.0854 C   0  0  1  0  0  0  0  0  0  0  0  0
    0.8425   -0.7905    0.7811 H   0  0  0  0  0  0  0  0  0  0  0  0
    0.7993   -0.3404   -1.3233 C   0  0  0  0  0  0  0  0  0  0  0  0
    0.1264   -0.8855   -1.9874 H   0  0  0  0  0  0  0  0  0  0  0  0
    0.8922    0.6782   -1.7063 H   0  0  0  0  0  0  0  0  0  0  0  0
    2.1708   -1.0310   -1.3825 C   0  0  0  0  0  0  0  0  0  0  0  0
    2.9923   -0.6580   -2.2529 O   0  5  0  0  0  0  0  0  0  0  0  0
    2.3799   -1.9486   -0.5600 O   0  0  0  0  0  0  0  0  0  0  0  0
   -0.0374    1.1645    0.5781 C   0  0  0  0  0  0  0  0  0  0  0  0
   -0.9816    1.8416    0.1544 O   0  0  0  0  0  0  0  0  0  0  0  0
    0.8235    1.6462    1.4801 N   0  0  0  0  0  0  0  0  0  0  0  0
    1.6183    1.0435    1.7020 H   0  0  0  0  0  0  0  0  0  0  0  0
    0.7895    2.9929    2.0404 C   0  0  0  0  0  0  0  0  0  0  0  0
   -0.2344    3.2522    2.3130 H   0  0  0  0  0  0  0  0  0  0  0  0
    1.4265    3.0377    2.9233 H   0  0  0  0  0  0  0  0  0  0  0  0
    1.1511    3.7014    1.2950 H   0  0  0  0  0  0  0  0  0  0  0  0
  5  6  2  0  0  0  0
  5  7  1  0  0  0  0
  2  3  1  0  0  0  0
  2  4  1  0  0  0  0
  2  5  1  0  0  0  0
  1  2  1  0  0  0  0
 17 18  2  0  0  0  0
 17 19  1  0  0  0  0
 14 15  1  0  0  0  0
 14 16  2  0  0  0  0
 11 12  1  0  0  0  0
 11 13  1  0  0  0  0
 11 14  1  0  0  0  0
  9 10  1  0  0  0  0
  9 11  1  0  0  0  0
  9 17  1  0  0  0  0
  7  8  1  0  0  0  0
  7  9  1  0  0  0  0
 21 22  1  0  0  0  0
 21 23  1  0  0  0  0
 21 24  1  0  0  0  0
 19 20  1  0  0  0  0
 19 21  1  0  0  0  0
M  CHG  1  15  -1
M  END
$$$$
default_name
  -OEChem-02102213163D

 24 23  0     1  0  0  0  0  0999 V2000
   -2.8347   -3.7166    0.8034 H   0  0  0  0  0  0  0  0  0  0  0  0
   -2.7728   -2.7096    0.3954 C   0  0  0  0  0  0  0  0  0  0  0  0
   -3.4267   -2.0426    0.9524 H   0  0  0  0  0  0  0  0  0  0  0  0
   -3.0538   -2.7186   -0.6556 H   0  0  0  0  0  0  0  0  0  0  0  0
   -1.3498   -2.2206    0.5184 C   0  0  0  0  0  0  0  0  0  0  0  0
   -0.4997   -2.9426    1.0194 O   0  0  0  0  0  0  0  0  0  0  0  0
   -1.1198   -0.9926    0.0674 N   0  0  0  0  0  0  0  0  0  0  0  0
   -1.8978   -0.4486   -0.2716 H   0  0  0  0  0  0  0  0  0  0  0  0
    0.1693   -0.2866    0.0854 C   0  0  1  0  0  0  0  0  0  0  0  0
    0.8425   -0.7905    0.7811 H   0  0  0  0  0  0  0  0  0  0  0  0
    0.7993   -0.3404   -1.3233 C   0  0  0  0  0  0  0  0  0  0  0  0
    0.1264   -0.8855   -1.9874 H   0  0  0  0  0  0  0  0  0  0  0  0
    0.8922    0.6782   -1.7063 H   0  0  0  0  0  0  0  0  0  0  0  0
    2.1708   -1.0310   -1.3825 C   0  0  0  0  0  0  0  0  0  0  0  0
    3.0875   -0.4870   -2.0423 O   0  5  0  0  0  0  0  0  0  0  0  0
    2.2852   -2.1181   -0.7764 O   0  0  0  0  0  0  0  0  0  0  0  0
   -0.0374    1.1645    0.5781 C   0  0  0  0  0  0  0  0  0  0  0  0
   -0.9816    1.8416    0.1544 O   0  0  0  0  0  0  0  0  0  0  0  0
    0.8235    1.6462    1.4801 N   0  0  0  0  0  0  0  0  0  0  0  0
    1.6183    1.0435    1.7020 H   0  0  0  0  0  0  0  0  0  0  0  0
    0.7895    2.9929    2.0404 C   0  0  0  0  0  0  0  0  0  0  0  0
   -0.2344    3.2522    2.3130 H   0  0  0  0  0  0  0  0  0  0  0  0
    1.4265    3.0377    2.9233 H   0  0  0  0  0  0  0  0  0  0  0  0
    1.1511    3.7014    1.2950 H   0  0  0  0  0  0  0  0  0  0  0  0
  5  6  2  0  0  0  0
  5  7  1  0  0  0  0
  2  3  1  0  0  0  0
  2  4  1  0  0  0  0
  2  5  1  0  0  0  0
  1  2  1  0  0  0  0
 17 18  2  0  0  0  0
 17 19  1  0  0  0  0
 14 15  1  0  0  0  0
 14 16  2  0  0  0  0
 11 12  1  0  0  0  0
 11 13  1  0  0  0  0
 11 14  1  0  0  0  0
  9 10  1  0  0  0  0
  9 11  1  0  0  0  0
  9 17  1  0  0  0  0
  7  8  1  0  0  0  0
  7  9  1  0  0  0  0
 21 22  1  0  0  0  0
 21 23  1  0  0  0  0
 21 24  1  0  0  0  0
 19 20  1  0  0  0  0
 19 21  1  0  0  0  0
M  CHG  1  15  -1
M  END
$$$$
default_name
  -OEChem-02102213163D

 24 23  0     1  0  0  0  0  0999 V2000
   -2.8347   -3.7166    0.8034 H   0  0  0  0  0  0  0  0  0  0  0  0
   -2.7728   -2.7096    0.3954 C   0  0  0  0  0  0  0  0  0  0  0  0
   -3.4267   -2.0426    0.9524 H   0  0  0  0  0  0  0  0  0  0  0  0
   -3.0538   -2.7186   -0.6556 H   0  0  0  0  0  0  0  0  0  0  0  0
   -1.3498   -2.2206    0.5184 C   0  0  0  0  0  0  0  0  0  0  0  0
   -0.4997   -2.9426    1.0194 O   0  0  0  0  0  0  0  0  0  0  0  0
   -1.1198   -0.9926    0.0674 N   0  0  0  0  0  0  0  0  0  0  0  0
   -1.8978   -0.4486   -0.2716 H   0  0  0  0  0  0  0  0  0  0  0  0
    0.1693   -0.2866    0.0854 C   0  0  1  0  0  0  0  0  0  0  0  0
    0.8425   -0.7905    0.7811 H   0  0  0  0  0  0  0  0  0  0  0  0
    0.7993   -0.3404   -1.3233 C   0  0  0  0  0  0  0  0  0  0  0  0
    0.1264   -0.8855   -1.9874 H   0  0  0  0  0  0  0  0  0  0  0  0
    0.8922    0.6782   -1.7063 H   0  0  0  0  0  0  0  0  0  0  0  0
    2.1708   -1.0310   -1.3825 C   0  0  0  0  0  0  0  0  0  0  0  0
    3.1567   -0.3714   -1.7883 O   0  5  0  0  0  0  0  0  0  0  0  0
    2.2172   -2.2309   -1.0356 O   0  0  0  0  0  0  0  0  0  0  0  0
   -0.0374    1.1645    0.5781 C   0  0  0  0  0  0  0  0  0  0  0  0
   -0.9816    1.8416    0.1544 O   0  0  0  0  0  0  0  0  0  0  0  0
    0.8235    1.6462    1.4801 N   0  0  0  0  0  0  0  0  0  0  0  0
    1.6183    1.0435    1.7020 H   0  0  0  0  0  0  0  0  0  0  0  0
    0.7895    2.9929    2.0404 C   0  0  0  0  0  0  0  0  0  0  0  0
   -0.2344    3.2522    2.3130 H   0  0  0  0  0  0  0  0  0  0  0  0
    1.4265    3.0377    2.9233 H   0  0  0  0  0  0  0  0  0  0  0  0
    1.1511    3.7014    1.2950 H   0  0  0  0  0  0  0  0  0  0  0  0
  5  6  2  0  0  0  0
  5  7  1  0  0  0  0
  2  3  1  0  0  0  0
  2  4  1  0  0  0  0
  2  5  1  0  0  0  0
  1  2  1  0  0  0  0
 17 18  2  0  0  0  0
 17 19  1  0  0  0  0
 14 15  1  0  0  0  0
 14 16  2  0  0  0  0
 11 12  1  0  0  0  0
 11 13  1  0  0  0  0
 11 14  1  0  0  0  0
  9 10  1  0  0  0  0
  9 11  1  0  0  0  0
  9 17  1  0  0  0  0
  7  8  1  0  0  0  0
  7  9  1  0  0  0  0
 21 22  1  0  0  0  0
 21 23  1  0  0  0  0
 21 24  1  0  0  0  0
 19 20  1  0  0  0  0
 19 21  1  0  0  0  0
M  CHG  1  15  -1
M  END
$$$$
default_name
  -OEChem-02102213163D

 24 23  0     1  0  0  0  0  0999 V2000
   -2.8347   -3.7166    0.8034 H   0  0  0  0  0  0  0  0  0  0  0  0
   -2.7728   -2.7096    0.3954 C   0  0  0  0  0  0  0  0  0  0  0  0
   -3.4267   -2.0426    0.9524 H   0  0  0  0  0  0  0  0  0  0  0  0
   -3.0538   -2.7186   -0.6556 H   0  0  0  0  0  0  0  0  0  0  0  0
   -1.3498   -2.2206    0.5184 C   0  0  0  0  0  0  0  0  0  0  0  0
   -0.4997   -2.9426    1.0194 O   0  0  0  0  0  0  0  0  0  0  0  0
   -1.1198   -0.9926    0.0674 N   0  0  0  0  0  0  0  0  0  0  0  0
   -1.8978   -0.4486   -0.2716 H   0  0  0  0  0  0  0  0  0  0  0  0
    0.1693   -0.2866    0.0854 C   0  0  1  0  0  0  0  0  0  0  0  0
    0.8425   -0.7905    0.7811 H   0  0  0  0  0  0  0  0  0  0  0  0
    0.7993   -0.3404   -1.3233 C   0  0  0  0  0  0  0  0  0  0  0  0
    0.1264   -0.8855   -1.9874 H   0  0  0  0  0  0  0  0  0  0  0  0
    0.8922    0.6782   -1.7063 H   0  0  0  0  0  0  0  0  0  0  0  0
    2.1708   -1.0310   -1.3825 C   0  0  0  0  0  0  0  0  0  0  0  0
    3.1951   -0.3191   -1.5082 O   0  5  0  0  0  0  0  0  0  0  0  0
    2.1806   -2.2792   -1.3200 O   0  0  0  0  0  0  0  0  0  0  0  0
   -0.0374    1.1645    0.5781 C   0  0  0  0  0  0  0  0  0  0  0  0
   -0.9816    1.8416    0.1544 O   0  0  0  0  0  0  0  0  0  0  0  0
    0.8235    1.6462    1.4801 N   0  0  0  0  0  0  0  0  0  0  0  0
    1.6183    1.0435    1.7020 H   0  0  0  0  0  0  0  0  0  0  0  0
    0.7895    2.9929    2.0404 C   0  0  0  0  0  0  0  0  0  0  0  0
   -0.2344    3.2522    2.3130 H   0  0  0  0  0  0  0  0  0  0  0  0
    1.4265    3.0377    2.9233 H   0  0  0  0  0  0  0  0  0  0  0  0
    1.1511    3.7014    1.2950 H   0  0  0  0  0  0  0  0  0  0  0  0
  5  6  2  0  0  0  0
  5  7  1  0  0  0  0
  2  3  1  0  0  0  0
  2  4  1  0  0  0  0
  2  5  1  0  0  0  0
  1  2  1  0  0  0  0
 17 18  2  0  0  0  0
 17 19  1  0  0  0  0
 14 15  1  0  0  0  0
 14 16  2  0  0  0  0
 11 12  1  0  0  0  0
 11 13  1  0  0  0  0
 11 14  1  0  0  0  0
  9 10  1  0  0  0  0
  9 11  1  0  0  0  0
  9 17  1  0  0  0  0
  7  8  1  0  0  0  0
  7  9  1  0  0  0  0
 21 22  1  0  0  0  0
 21 23  1  0  0  0  0
 21 24  1  0  0  0  0
 19 20  1  0  0  0  0
 19 21  1  0  0  0  0
M  CHG  1  15  -1
M  END
$$$$
default_name
  -OEChem-02102213163D

 24 23  0     1  0  0  0  0  0999 V2000
   -2.8347   -3.7166    0.8034 H   0  0  0  0  0  0  0  0  0  0  0  0
   -2.7728   -2.7096    0.3954 C   0  0  0  0  0  0  0  0  0  0  0  0
   -3.4267   -2.0426    0.9524 H   0  0  0  0  0  0  0  0  0  0  0  0
   -3.0538   -2.7186   -0.6556 H   0  0  0  0  0  0  0  0  0  0  0  0
   -1.3498   -2.2206    0.5184 C   0  0  0  0  0  0  0  0  0  0  0  0
   -0.4997   -2.9426    1.0194 O   0  0  0  0  0  0  0  0  0  0  0  0
   -1.1198   -0.9926    0.0674 N   0  0  0  0  0  0  0  0  0  0  0  0
   -1.8978   -0.4486   -0.2716 H   0  0  0  0  0  0  0  0  0  0  0  0
    0.1693   -0.2866    0.0854 C   0  0  1  0  0  0  0  0  0  0  0  0
    0.8425   -0.7905    0.7811 H   0  0  0  0  0  0  0  0  0  0  0  0
    0.7993   -0.3404   -1.3233 C   0  0  0  0  0  0  0  0  0  0  0  0
    0.1264   -0.8855   -1.9874 H   0  0  0  0  0  0  0  0  0  0  0  0
    0.8922    0.6782   -1.7063 H   0  0  0  0  0  0  0  0  0  0  0  0
    2.1708   -1.0310   -1.3825 C   0  0  0  0  0  0  0  0  0  0  0  0
    3.2001   -0.3337   -1.2211 O   0  5  0  0  0  0  0  0  0  0  0  0
    2.1778   -2.2599   -1.6100 O   0  0  0  0  0  0  0  0  0  0  0  0
   -0.0374    1.1645    0.5781 C   0  0  0  0  0  0  0  0  0  0  0  0
   -0.9816    1.8416    0.1544 O   0  0  0  0  0  0  0  0  0  0  0  0
    0.8235    1.6462    1.4801 N   0  0  0  0  0  0  0  0  0  0  0  0
    1.6183    1.0435    1.7020 H   0  0  0  0  0  0  0  0  0  0  0  0
    0.7895    2.9929    2.0404 C   0  0  0  0  0  0  0  0  0  0  0  0
   -0.2344    3.2522    2.3130 H   0  0  0  0  0  0  0  0  0  0  0  0
    1.4265    3.0377    2.9233 H   0  0  0  0  0  0  0  0  0  0  0  0
    1.1511    3.7014    1.2950 H   0  0  0  0  0  0  0  0  0  0  0  0
  5  6  2  0  0  0  0
  5  7  1  0  0  0  0
  2  3  1  0  0  0  0
  2  4  1  0  0  0  0
  2  5  1  0  0  0  0
  1  2  1  0  0  0  0
 17 18  2  0  0  0  0
 17 19  1  0  0  0  0
 14 15  1  0  0  0  0
 14 16  2  0  0  0  0
 11 12  1  0  0  0  0
 11 13  1  0  0  0  0
 11 14  1  0  0  0  0
  9 10  1  0  0  0  0
  9 11  1  0  0  0  0
  9 17  1  0  0  0  0
  7  8  1  0  0  0  0
  7  9  1  0  0  0  0
 21 22  1  0  0  0  0
 21 23  1  0  0  0  0
 21 24  1  0  0  0  0
 19 20  1  0  0  0  0
 19 21  1  0  0  0  0
M  CHG  1  15  -1
M  END
$$$$
default_name
  -OEChem-02102213163D

 24 23  0     1  0  0  0  0  0999 V2000
   -2.8347   -3.7166    0.8034 H   0  0  0  0  0  0  0  0  0  0  0  0
   -2.7728   -2.7096    0.3954 C   0  0  0  0  0  0  0  0  0  0  0  0
   -3.4267   -2.0426    0.9524 H   0  0  0  0  0  0  0  0  0  0  0  0
   -3.0538   -2.7186   -0.6556 H   0  0  0  0  0  0  0  0  0  0  0  0
   -1.3498   -2.2206    0.5184 C   0  0  0  0  0  0  0  0  0  0  0  0
   -0.4997   -2.9426    1.0194 O   0  0  0  0  0  0  0  0  0  0  0  0
   -1.1198   -0.9926    0.0674 N   0  0  0  0  0  0  0  0  0  0  0  0
   -1.8978   -0.4486   -0.2716 H   0  0  0  0  0  0  0  0  0  0  0  0
    0.1693   -0.2866    0.0854 C   0  0  1  0  0  0  0  0  0  0  0  0
    0.8425   -0.7905    0.7811 H   0  0  0  0  0  0  0  0  0  0  0  0
    0.7993   -0.3404   -1.3233 C   0  0  0  0  0  0  0  0  0  0  0  0
    0.1264   -0.8855   -1.9874 H   0  0  0  0  0  0  0  0  0  0  0  0
    0.8922    0.6782   -1.7063 H   0  0  0  0  0  0  0  0  0  0  0  0
    2.1708   -1.0310   -1.3825 C   0  0  0  0  0  0  0  0  0  0  0  0
    3.1714   -0.4142   -0.9466 O   0  5  0  0  0  0  0  0  0  0  0  0
    2.2090   -2.1742   -1.8861 O   0  0  0  0  0  0  0  0  0  0  0  0
   -0.0374    1.1645    0.5781 C   0  0  0  0  0  0  0  0  0  0  0  0
   -0.9816    1.8416    0.1544 O   0  0  0  0  0  0  0  0  0  0  0  0
    0.8235    1.6462    1.4801 N   0  0  0  0  0  0  0  0  0  0  0  0
    1.6183    1.0435    1.7020 H   0  0  0  0  0  0  0  0  0  0  0  0
    0.7895    2.9929    2.0404 C   0  0  0  0  0  0  0  0  0  0  0  0
   -0.2344    3.2522    2.3130 H   0  0  0  0  0  0  0  0  0  0  0  0
    1.4265    3.0377    2.9233 H   0  0  0  0  0  0  0  0  0  0  0  0
    1.1511    3.7014    1.2950 H   0  0  0  0  0  0  0  0  0  0  0  0
  5  6  2  0  0  0  0
  5  7  1  0  0  0  0
  2  3  1  0  0  0  0
  2  4  1  0  0  0  0
  2  5  1  0  0  0  0
  1  2  1  0  0  0  0
 17 18  2  0  0  0  0
 17 19  1  0  0  0  0
 14 15  1  0  0  0  0
 14 16  2  0  0  0  0
 11 12  1  0  0  0  0
 11 13  1  0  0  0  0
 11 14  1  0  0  0  0
  9 10  1  0  0  0  0
  9 11  1  0  0  0  0
  9 17  1  0  0  0  0
  7  8  1  0  0  0  0
  7  9  1  0  0  0  0
 21 22  1  0  0  0  0
 21 23  1  0  0  0  0
 21 24  1  0  0  0  0
 19 20  1  0  0  0  0
 19 21  1  0  0  0  0
M  CHG  1  15  -1
M  END
$$$$
default_name
  -OEChem-02102213163D

 24 23  0     1  0  0  0  0  0999 V2000
   -2.8347   -3.7166    0.8034 H   0  0  0  0  0  0  0  0  0  0  0  0
   -2.7728   -2.7096    0.3954 C   0  0  0  0  0  0  0  0  0  0  0  0
   -3.4267   -2.0426    0.9524 H   0  0  0  0  0  0  0  0  0  0  0  0
   -3.0538   -2.7186   -0.6556 H   0  0  0  0  0  0  0  0  0  0  0  0
   -1.3498   -2.2206    0.5184 C   0  0  0  0  0  0  0  0  0  0  0  0
   -0.4997   -2.9426    1.0194 O   0  0  0  0  0  0  0  0  0  0  0  0
   -1.1198   -0.9926    0.0674 N   0  0  0  0  0  0  0  0  0  0  0  0
   -1.8978   -0.4486   -0.2716 H   0  0  0  0  0  0  0  0  0  0  0  0
    0.1693   -0.2866    0.0854 C   0  0  1  0  0  0  0  0  0  0  0  0
    0.8425   -0.7905    0.7811 H   0  0  0  0  0  0  0  0  0  0  0  0
    0.7993   -0.3404   -1.3233 C   0  0  0  0  0  0  0  0  0  0  0  0
    0.1264   -0.8855   -1.9874 H   0  0  0  0  0  0  0  0  0  0  0  0
    0.8922    0.6782   -1.7063 H   0  0  0  0  0  0  0  0  0  0  0  0
    2.1708   -1.0310   -1.3825 C   0  0  0  0  0  0  0  0  0  0  0  0
    3.1110   -0.5550   -0.7034 O   0  5  0  0  0  0  0  0  0  0  0  0
    2.2722   -2.0280   -2.1293 O   0  0  0  0  0  0  0  0  0  0  0  0
   -0.0374    1.1645    0.5781 C   0  0  0  0  0  0  0  0  0  0  0  0
   -0.9816    1.8416    0.1544 O   0  0  0  0  0  0  0  0  0  0  0  0
    0.8235    1.6462    1.4801 N   0  0  0  0  0  0  0  0  0  0  0  0
    1.6183    1.0435    1.7020 H   0  0  0  0  0  0  0  0  0  0  0  0
    0.7895    2.9929    2.0404 C   0  0  0  0  0  0  0  0  0  0  0  0
   -0.2344    3.2522    2.3130 H   0  0  0  0  0  0  0  0  0  0  0  0
    1.4265    3.0377    2.9233 H   0  0  0  0  0  0  0  0  0  0  0  0
    1.1511    3.7014    1.2950 H   0  0  0  0  0  0  0  0  0  0  0  0
  5  6  2  0  0  0  0
  5  7  1  0  0  0  0
  2  3  1  0  0  0  0
  2  4  1  0  0  0  0
  2  5  1  0  0  0  0
  1  2  1  0  0  0  0
 17 18  2  0  0  0  0
 17 19  1  0  0  0  0
 14 15  1  0  0  0  0
 14 16  2  0  0  0  0
 11 12  1  0  0  0  0
 11 13  1  0  0  0  0
 11 14  1  0  0  0  0
  9 10  1  0  0  0  0
  9 11  1  0  0  0  0
  9 17  1  0  0  0  0
  7  8  1  0  0  0  0
  7  9  1  0  0  0  0
 21 22  1  0  0  0  0
 21 23  1  0  0  0  0
 21 24  1  0  0  0  0
 19 20  1  0  0  0  0
 19 21  1  0  0  0  0
M  CHG  1  15  -1
M  END
$$$$
default_name
  -OEChem-02102213163D

 24 23  0     1  0  0  0  0  0999 V2000
   -2.8347   -3.7166    0.8034 H   0  0  0  0  0  0  0  0  0  0  0  0
   -2.7728   -2.7096    0.3954 C   0  0  0  0  0  0  0  0  0  0  0  0
   -3.4267   -2.0426    0.9524 H   0  0  0  0  0  0  0  0  0  0  0  0
   -3.0538   -2.7186   -0.6556 H   0  0  0  0  0  0  0  0  0  0  0  0
   -1.3498   -2.2206    0.5184 C   0  0  0  0  0  0  0  0  0  0  0  0
   -0.4997   -2.9426    1.0194 O   0  0  0  0  0  0  0  0  0  0  0  0
   -1.1198   -0.9926    0.0674 N   0  0  0  0  0  0  0  0  0  0  0  0
   -1.8978   -0.4486   -0.2716 H   0  0  0  0  0  0  0  0  0  0  0  0
    0.1693   -0.2866    0.0854 C   0  0  1  0  0  0  0  0  0  0  0  0
    0.8425   -0.7905    0.7811 H   0  0  0  0  0  0  0  0  0  0  0  0
    0.7993   -0.3404   -1.3233 C   0  0  0  0  0  0  0  0  0  0  0  0
    0.1264   -0.8855   -1.9874 H   0  0  0  0  0  0  0  0  0  0  0  0
    0.8922    0.6782   -1.7063 H   0  0  0  0  0  0  0  0  0  0  0  0
    2.1708   -1.0310   -1.3825 C   0  0  0  0  0  0  0  0  0  0  0  0
    3.0230   -0.7466   -0.5080 O   0  5  0  0  0  0  0  0  0  0  0  0
    2.3629   -1.8312   -2.3231 O   0  0  0  0  0  0  0  0  0  0  0  0
   -0.0374    1.1645    0.5781 C   0  0  0  0  0  0  0  0  0  0  0  0
   -0.9816    1.8416    0.1544 O   0  0  0  0  0  0  0  0  0  0  0  0
    0.8235    1.6462    1.4801 N   0  0  0  0  0  0  0  0  0  0  0  0
    1.6183    1.0435    1.7020 H   0  0  0  0  0  0  0  0  0  0  0  0
    0.7895    2.9929    2.0404 C   0  0  0  0  0  0  0  0  0  0  0  0
   -0.2344    3.2522    2.3130 H   0  0  0  0  0  0  0  0  0  0  0  0
    1.4265    3.0377    2.9233 H   0  0  0  0  0  0  0  0  0  0  0  0
    1.1511    3.7014    1.2950 H   0  0  0  0  0  0  0  0  0  0  0  0
  5  6  2  0  0  0  0
  5  7  1  0  0  0  0
  2  3  1  0  0  0  0
  2  4  1  0  0  0  0
  2  5  1  0  0  0  0
  1  2  1  0  0  0  0
 17 18  2  0  0  0  0
 17 19  1  0  0  0  0
 14 15  1  0  0  0  0
 14 16  2  0  0  0  0
 11 12  1  0  0  0  0
 11 13  1  0  0  0  0
 11 14  1  0  0  0  0
  9 10  1  0  0  0  0
  9 11  1  0  0  0  0
  9 17  1  0  0  0  0
  7  8  1  0  0  0  0
  7  9  1  0  0  0  0
 21 22  1  0  0  0  0
 21 23  1  0  0  0  0
 21 24  1  0  0  0  0
 19 20  1  0  0  0  0
 19 21  1  0  0  0  0
M  CHG  1  15  -1
M  END
$$$$
default_name
  -OEChem-02102213163D

 24 23  0     1  0  0  0  0  0999 V2000
   -2.8347   -3.7166    0.8034 H   0  0  0  0  0  0  0  0  0  0  0  0
   -2.7728   -2.7096    0.3954 C   0  0  0  0  0  0  0  0  0  0  0  0
   -3.4267   -2.0426    0.9524 H   0  0  0  0  0  0  0  0  0  0  0  0
   -3.0538   -2.7186   -0.6556 H   0  0  0  0  0  0  0  0  0  0  0  0
   -1.3498   -2.2206    0.5184 C   0  0  0  0  0  0  0  0  0  0  0  0
   -0.4997   -2.9426    1.0194 O   0  0  0  0  0  0  0  0  0  0  0  0
   -1.1198   -0.9926    0.0674 N   0  0  0  0  0  0  0  0  0  0  0  0
   -1.8978   -0.4486   -0.2716 H   0  0  0  0  0  0  0  0  0  0  0  0
    0.1693   -0.2866    0.0854 C   0  0  1  0  0  0  0  0  0  0  0  0
    0.8425   -0.7905    0.7811 H   0  0  0  0  0  0  0  0  0  0  0  0
    0.7993   -0.3404   -1.3233 C   0  0  0  0  0  0  0  0  0  0  0  0
    0.1264   -0.8855   -1.9874 H   0  0  0  0  0  0  0  0  0  0  0  0
    0.8922    0.6782   -1.7063 H   0  0  0  0  0  0  0  0  0  0  0  0
    2.1708   -1.0310   -1.3825 C   0  0  0  0  0  0  0  0  0  0  0  0
    2.9133   -0.9760   -0.3738 O   0  5  0  0  0  0  0  0  0  0  0  0
    2.4751   -1.5973   -2.4543 O   0  0  0  0  0  0  0  0  0  0  0  0
   -0.0374    1.1645    0.5781 C   0  0  0  0  0  0  0  0  0  0  0  0
   -0.9816    1.8416    0.1544 O   0  0  0  0  0  0  0  0  0  0  0  0
    0.8235    1.6462    1.4801 N   0  0  0  0  0  0  0  0  0  0  0  0
    1.6183    1.0435    1.7020 H   0  0  0  0  0  0  0  0  0  0  0  0
    0.7895    2.9929    2.0404 C   0  0  0  0  0  0  0  0  0  0  0  0
   -0.2344    3.2522    2.3130 H   0  0  0  0  0  0  0  0  0  0  0  0
    1.4265    3.0377    2.9233 H   0  0  0  0  0  0  0  0  0  0  0  0
    1.1511    3.7014    1.2950 H   0  0  0  0  0  0  0  0  0  0  0  0
  5  6  2  0  0  0  0
  5  7  1  0  0  0  0
  2  3  1  0  0  0  0
  2  4  1  0  0  0  0
  2  5  1  0  0  0  0
  1  2  1  0  0  0  0
 17 18  2  0  0  0  0
 17 19  1  0  0  0  0
 14 15  1  0  0  0  0
 14 16  2  0  0  0  0
 11 12  1  0  0  0  0
 11 13  1  0  0  0  0
 11 14  1  0  0  0  0
  9 10  1  0  0  0  0
  9 11  1  0  0  0  0
  9 17  1  0  0  0  0
  7  8  1  0  0  0  0
  7  9  1  0  0  0  0
 21 22  1  0  0  0  0
 21 23  1  0  0  0  0
 21 24  1  0  0  0  0
 19 20  1  0  0  0  0
 19 21  1  0  0  0  0
M  CHG  1  15  -1
M  END
$$$$
default_name
  -OEChem-02102213163D

 24 23  0     1  0  0  0  0  0999 V2000
   -2.8347   -3.7166    0.8034 H   0  0  0  0  0  0  0  0  0  0  0  0
   -2.7728   -2.7096    0.3954 C   0  0  0  0  0  0  0  0  0  0  0  0
   -3.4267   -2.0426    0.9524 H   0  0  0  0  0  0  0  0  0  0  0  0
   -3.0538   -2.7186   -0.6556 H   0  0  0  0  0  0  0  0  0  0  0  0
   -1.3498   -2.2206    0.5184 C   0  0  0  0  0  0  0  0  0  0  0  0
   -0.4997   -2.9426    1.0194 O   0  0  0  0  0  0  0  0  0  0  0  0
   -1.1198   -0.9926    0.0674 N   0  0  0  0  0  0  0  0  0  0  0  0
   -1.8978   -0.4486   -0.2716 H   0  0  0  0  0  0  0  0  0  0  0  0
    0.1693   -0.2866    0.0854 C   0  0  1  0  0  0  0  0  0  0  0  0
    0.8425   -0.7905    0.7811 H   0  0  0  0  0  0  0  0  0  0  0  0
    0.7993   -0.3404   -1.3233 C   0  0  0  0  0  0  0  0  0  0  0  0
    0.1264   -0.8855   -1.9874 H   0  0  0  0  0  0  0  0  0  0  0  0
    0.8922    0.6782   -1.7063 H   0  0  0  0  0  0  0  0  0  0  0  0
    2.1708   -1.0310   -1.3825 C   0  0  0  0  0  0  0  0  0  0  0  0
    2.7894   -1.2274   -0.3099 O   0  5  0  0  0  0  0  0  0  0  0  0
    2.6010   -1.3421   -2.5140 O   0  0  0  0  0  0  0  0  0  0  0  0
   -0.0374    1.1645    0.5781 C   0  0  0  0  0  0  0  0  0  0  0  0
   -0.9816    1.8416    0.1544 O   0  0  0  0  0  0  0  0  0  0  0  0
    0.8235    1.6462    1.4801 N   0  0  0  0  0  0  0  0  0  0  0  0
    1.6183    1.0435    1.7020 H   0  0  0  0  0  0  0  0  0  0  0  0
    0.7895    2.9929    2.0404 C   0  0  0  0  0  0  0  0  0  0  0  0
   -0.2344    3.2522    2.3130 H   0  0  0  0  0  0  0  0  0  0  0  0
    1.4265    3.0377    2.9233 H   0  0  0  0  0  0  0  0  0  0  0  0
    1.1511    3.7014    1.2950 H   0  0  0  0  0  0  0  0  0  0  0  0
  5  6  2  0  0  0  0
  5  7  1  0  0  0  0
  2  3  1  0  0  0  0
  2  4  1  0  0  0  0
  2  5  1  0  0  0  0
  1  2  1  0  0  0  0
 17 18  2  0  0  0  0
 17 19  1  0  0  0  0
 14 15  1  0  0  0  0
 14 16  2  0  0  0  0
 11 12  1  0  0  0  0
 11 13  1  0  0  0  0
 11 14  1  0  0  0  0
  9 10  1  0  0  0  0
  9 11  1  0  0  0  0
  9 17  1  0  0  0  0
  7  8  1  0  0  0  0
  7  9  1  0  0  0  0
 21 22  1  0  0  0  0
 21 23  1  0  0  0  0
 21 24  1  0  0  0  0
 19 20  1  0  0  0  0
 19 21  1  0  0  0  0
M  CHG  1  15  -1
M  END
$$$$
default_name
  -OEChem-02102213163D

 24 23  0     1  0  0  0  0  0999 V2000
   -2.8347   -3.7166    0.8034 H   0  0  0  0  0  0  0  0  0  0  0  0
   -2.7728   -2.7096    0.3954 C   0  0  0  0  0  0  0  0  0  0  0  0
   -3.4267   -2.0426    0.9524 H   0  0  0  0  0  0  0  0  0  0  0  0
   -3.0538   -2.7186   -0.6556 H   0  0  0  0  0  0  0  0  0  0  0  0
   -1.3498   -2.2206    0.5184 C   0  0  0  0  0  0  0  0  0  0  0  0
   -0.4997   -2.9426    1.0194 O   0  0  0  0  0  0  0  0  0  0  0  0
   -1.1198   -0.9926    0.0674 N   0  0  0  0  0  0  0  0  0  0  0  0
   -1.8978   -0.4486   -0.2716 H   0  0  0  0  0  0  0  0  0  0  0  0
    0.1693   -0.2866    0.0854 C   0  0  1  0  0  0  0  0  0  0  0  0
    0.8425   -0.7905    0.7811 H   0  0  0  0  0  0  0  0  0  0  0  0
    0.7993   -0.3404   -1.3233 C   0  0  0  0  0  0  0  0  0  0  0  0
    0.1264   -0.8855   -1.9874 H   0  0  0  0  0  0  0  0  0  0  0  0
    0.8922    0.6782   -1.7063 H   0  0  0  0  0  0  0  0  0  0  0  0
    2.1708   -1.0310   -1.3825 C   0  0  0  0  0  0  0  0  0  0  0  0
    2.6598   -1.4838   -0.3206 O   0  5  0  0  0  0  0  0  0  0  0  0
    2.7321   -1.0831   -2.4980 O   0  0  0  0  0  0  0  0  0  0  0  0
   -0.0374    1.1645    0.5781 C   0  0  0  0  0  0  0  0  0  0  0  0
   -0.9816    1.8416    0.1544 O   0  0  0  0  0  0  0  0  0  0  0  0
    0.8235    1.6462    1.4801 N   0  0  0  0  0  0  0  0  0  0  0  0
    1.6183    1.0435    1.7020 H   0  0  0  0  0  0  0  0  0  0  0  0
    0.7895    2.9929    2.0404 C   0  0  0  0  0  0  0  0  0  0  0  0
   -0.2344    3.2522    2.3130 H   0  0  0  0  0  0  0  0  0  0  0  0
    1.4265    3.0377    2.9233 H   0  0  0  0  0  0  0  0  0  0  0  0
    1.1511    3.7014    1.2950 H   0  0  0  0  0  0  0  0  0  0  0  0
  5  6  2  0  0  0  0
  5  7  1  0  0  0  0
  2  3  1  0  0  0  0
  2  4  1  0  0  0  0
  2  5  1  0  0  0  0
  1  2  1  0  0  0  0
 17 18  2  0  0  0  0
 17 19  1  0  0  0  0
 14 15  1  0  0  0  0
 14 16  2  0  0  0  0
 11 12  1  0  0  0  0
 11 13  1  0  0  0  0
 11 14  1  0  0  0  0
  9 10  1  0  0  0  0
  9 11  1  0  0  0  0
  9 17  1  0  0  0  0
  7  8  1  0  0  0  0
  7  9  1  0  0  0  0
 21 22  1  0  0  0  0
 21 23  1  0  0  0  0
 21 24  1  0  0  0  0
 19 20  1  0  0  0  0
 19 21  1  0  0  0  0
M  CHG  1  15  -1
M  END
$$$$
default_name
  -OEChem-02102213163D

 24 23  0     1  0  0  0  0  0999 V2000
   -2.8347   -3.7166    0.8034 H   0  0  0  0  0  0  0  0  0  0  0  0
   -2.7728   -2.7096    0.3954 C   0  0  0  0  0  0  0  0  0  0  0  0
   -3.4267   -2.0426    0.9524 H   0  0  0  0  0  0  0  0  0  0  0  0
   -3.0538   -2.7186   -0.6556 H   0  0  0  0  0  0  0  0  0  0  0  0
   -1.3498   -2.2206    0.5184 C   0  0  0  0  0  0  0  0  0  0  0  0
   -0.4997   -2.9426    1.0194 O   0  0  0  0  0  0  0  0  0  0  0  0
   -1.1198   -0.9926    0.0674 N   0  0  0  0  0  0  0  0  0  0  0  0
   -1.8978   -0.4486   -0.2716 H   0  0  0  0  0  0  0  0  0  0  0  0
    0.1693   -0.2866    0.0854 C   0  0  1  0  0  0  0  0  0  0  0  0
    0.8425   -0.7905    0.7811 H   0  0  0  0  0  0  0  0  0  0  0  0
    0.7993   -0.3404   -1.3233 C   0  0  0  0  0  0  0  0  0  0  0  0
    0.1264   -0.8855   -1.9874 H   0  0  0  0  0  0  0  0  0  0  0  0
    0.8922    0.6782   -1.7063 H   0  0  0  0  0  0  0  0  0  0  0  0
    2.1708   -1.0310   -1.3825 C   0  0  0  0  0  0  0  0  0  0  0  0
    2.5334   -1.7277   -0.4053 O   0  5  0  0  0  0  0  0  0  0  0  0
    2.8595   -0.8379   -2.4075 O   0  0  0  0  0  0  0  0  0  0  0  0
   -0.0374    1.1645    0.5781 C   0  0  0  0  0  0  0  0  0  0  0  0
   -0.9816    1.8416    0.1544 O   0  0  0  0  0  0  0  0  0  0  0  0
    0.8235    1.6462    1.4801 N   0  0  0  0  0  0  0  0  0  0  0  0
    1.6183    1.0435    1.7020 H   0  0  0  0  0  0  0  0  0  0  0  0
    0.7895    2.9929    2.0404 C   0  0  0  0  0  0  0  0  0  0  0  0
   -0.2344    3.2522    2.3130 H   0  0  0  0  0  0  0  0  0  0  0  0
    1.4265    3.0377    2.9233 H   0  0  0  0  0  0  0  0  0  0  0  0
    1.1511    3.7014    1.2950 H   0  0  0  0  0  0  0  0  0  0  0  0
  5  6  2  0  0  0  0
  5  7  1  0  0  0  0
  2  3  1  0  0  0  0
  2  4  1  0  0  0  0
  2  5  1  0  0  0  0
  1  2  1  0  0  0  0
 17 18  2  0  0  0  0
 17 19  1  0  0  0  0
 14 15  1  0  0  0  0
 14 16  2  0  0  0  0
 11 12  1  0  0  0  0
 11 13  1  0  0  0  0
 11 14  1  0  0  0  0
  9 10  1  0  0  0  0
  9 11  1  0  0  0  0
  9 17  1  0  0  0  0
  7  8  1  0  0  0  0
  7  9  1  0  0  0  0
 21 22  1  0  0  0  0
 21 23  1  0  0  0  0
 21 24  1  0  0  0  0
 19 20  1  0  0  0  0
 19 21  1  0  0  0  0
M  CHG  1  15  -1
M  END
$$$$
default_name
  -OEChem-02102213163D

 24 23  0     1  0  0  0  0  0999 V2000
   -2.8347   -3.7166    0.8034 H   0  0  0  0  0  0  0  0  0  0  0  0
   -2.7728   -2.7096    0.3954 C   0  0  0  0  0  0  0  0  0  0  0  0
   -3.4267   -2.0426    0.9524 H   0  0  0  0  0  0  0  0  0  0  0  0
   -3.0538   -2.7186   -0.6556 H   0  0  0  0  0  0  0  0  0  0  0  0
   -1.3498   -2.2206    0.5184 C   0  0  0  0  0  0  0  0  0  0  0  0
   -0.4997   -2.9426    1.0194 O   0  0  0  0  0  0  0  0  0  0  0  0
   -1.1198   -0.9926    0.0674 N   0  0  0  0  0  0  0  0  0  0  0  0
   -1.8978   -0.4486   -0.2716 H   0  0  0  0  0  0  0  0  0  0  0  0
    0.1693   -0.2866    0.0854 C   0  0  1  0  0  0  0  0  0  0  0  0
    0.8425   -0.7905    0.7811 H   0  0  0  0  0  0  0  0  0  0  0  0
    0.7993   -0.3404   -1.3233 C   0  0  0  0  0  0  0  0  0  0  0  0
    0.1264   -0.8855   -1.9874 H   0  0  0  0  0  0  0  0  0  0  0  0
    0.8922    0.6782   -1.7063 H   0  0  0  0  0  0  0  0  0  0  0  0
    2.1708   -1.0310   -1.3825 C   0  0  0  0  0  0  0  0  0  0  0  0
    2.4186   -1.9425   -0.5582 O   0  5  0  0  0  0  0  0  0  0  0  0
    2.9744   -0.6233   -2.2486 O   0  0  0  0  0  0  0  0  0  0  0  0
   -0.0374    1.1645    0.5781 C   0  0  0  0  0  0  0  0  0  0  0  0
   -0.9816    1.8416    0.1544 O   0  0  0  0  0  0  0  0  0  0  0  0
    0.8235    1.6462    1.4801 N   0  0  0  0  0  0  0  0  0  0  0  0
    1.6183    1.0435    1.7020 H   0  0  0  0  0  0  0  0  0  0  0  0
    0.7895    2.9929    2.0404 C   0  0  0  0  0  0  0  0  0  0  0  0
   -0.2344    3.2522    2.3130 H   0  0  0  0  0  0  0  0  0  0  0  0
    1.4265    3.0377    2.9233 H   0  0  0  0  0  0  0  0  0  0  0  0
    1.1511    3.7014    1.2950 H   0  0  0  0  0  0  0  0  0  0  0  0
  5  6  2  0  0  0  0
  5  7  1  0  0  0  0
  2  3  1  0  0  0  0
  2  4  1  0  0  0  0
  2  5  1  0  0  0  0
  1  2  1  0  0  0  0
 17 18  2  0  0  0  0
 17 19  1  0  0  0  0
 14 15  1  0  0  0  0
 14 16  2  0  0  0  0
 11 12  1  0  0  0  0
 11 13  1  0  0  0  0
 11 14  1  0  0  0  0
  9 10  1  0  0  0  0
  9 11  1  0  0  0  0
  9 17  1  0  0  0  0
  7  8  1  0  0  0  0
  7  9  1  0  0  0  0
 21 22  1  0  0  0  0
 21 23  1  0  0  0  0
 21 24  1  0  0  0  0
 19 20  1  0  0  0  0
 19 21  1  0  0  0  0
M  CHG  1  15  -1
M  END
$$$$
default_name
  -OEChem-02102213163D

 24 23  0     1  0  0  0  0  0999 V2000
   -2.8347   -3.7166    0.8034 H   0  0  0  0  0  0  0  0  0  0  0  0
   -2.7728   -2.7096    0.3954 C   0  0  0  0  0  0  0  0  0  0  0  0
   -3.4267   -2.0426    0.9524 H   0  0  0  0  0  0  0  0  0  0  0  0
   -3.0538   -2.7186   -0.6556 H   0  0  0  0  0  0  0  0  0  0  0  0
   -1.3498   -2.2206    0.5184 C   0  0  0  0  0  0  0  0  0  0  0  0
   -0.4997   -2.9426    1.0194 O   0  0  0  0  0  0  0  0  0  0  0  0
   -1.1198   -0.9926    0.0674 N   0  0  0  0  0  0  0  0  0  0  0  0
   -1.8978   -0.4486   -0.2716 H   0  0  0  0  0  0  0  0  0  0  0  0
    0.1693   -0.2866    0.0854 C   0  0  1  0  0  0  0  0  0  0  0  0
    0.8425   -0.7905    0.7811 H   0  0  0  0  0  0  0  0  0  0  0  0
    0.7993   -0.3404   -1.3233 C   0  0  0  0  0  0  0  0  0  0  0  0
    0.1264   -0.8855   -1.9874 H   0  0  0  0  0  0  0  0  0  0  0  0
    0.8922    0.6782   -1.7063 H   0  0  0  0  0  0  0  0  0  0  0  0
    2.1708   -1.0310   -1.3825 C   0  0  0  0  0  0  0  0  0  0  0  0
    2.3234   -2.1135   -0.7688 O   0  5  0  0  0  0  0  0  0  0  0  0
    3.0691   -0.4538   -2.0322 O   0  0  0  0  0  0  0  0  0  0  0  0
   -0.0374    1.1645    0.5781 C   0  0  0  0  0  0  0  0  0  0  0  0
   -0.9816    1.8416    0.1544 O   0  0  0  0  0  0  0  0  0  0  0  0
    0.8235    1.6462    1.4801 N   0  0  0  0  0  0  0  0  0  0  0  0
    1.6183    1.0435    1.7020 H   0  0  0  0  0  0  0  0  0  0  0  0
    0.7895    2.9929    2.0404 C   0  0  0  0  0  0  0  0  0  0  0  0
   -0.2344    3.2522    2.3130 H   0  0  0  0  0  0  0  0  0  0  0  0
    1.4265    3.0377    2.9233 H   0  0  0  0  0  0  0  0  0  0  0  0
    1.1511    3.7014    1.2950 H   0  0  0  0  0  0  0  0  0  0  0  0
  5  6  2  0  0  0  0
  5  7  1  0  0  0  0
  2  3  1  0  0  0  0
  2  4  1  0  0  0  0
  2  5  1  0  0  0  0
  1  2  1  0  0  0  0
 17 18  2  0  0  0  0
 17 19  1  0  0  0  0
 14 15  1  0  0  0  0
 14 16  2  0  0  0  0
 11 12  1  0  0  0  0
 11 13  1  0  0  0  0
 11 14  1  0  0  0  0
  9 10  1  0  0  0  0
  9 11  1  0  0  0  0
  9 17  1  0  0  0  0
  7  8  1  0  0  0  0
  7  9  1  0  0  0  0
 21 22  1  0  0  0  0
 21 23  1  0  0  0  0
 21 24  1  0  0  0  0
 19 20  1  0  0  0  0
 19 21  1  0  0  0  0
M  CHG  1  15  -1
M  END
$$$$
default_name
  -OEChem-02102213163D

 24 23  0     1  0  0  0  0  0999 V2000
   -2.8347   -3.7166    0.8034 H   0  0  0  0  0  0  0  0  0  0  0  0
   -2.7728   -2.7096    0.3954 C   0  0  0  0  0  0  0  0  0  0  0  0
   -3.4267   -2.0426    0.9524 H   0  0  0  0  0  0  0  0  0  0  0  0
   -3.0538   -2.7186   -0.6556 H   0  0  0  0  0  0  0  0  0  0  0  0
   -1.3498   -2.2206    0.5184 C   0  0  0  0  0  0  0  0  0  0  0  0
   -0.4997   -2.9426    1.0194 O   0  0  0  0  0  0  0  0  0  0  0  0
   -1.1198   -0.9926    0.0674 N   0  0  0  0  0  0  0  0  0  0  0  0
   -1.8978   -0.4486   -0.2716 H   0  0  0  0  0  0  0  0  0  0  0  0
    0.1693   -0.2866    0.0854 C   0  0  1  0  0  0  0  0  0  0  0  0
    0.8425   -0.7905    0.7811 H   0  0  0  0  0  0  0  0  0  0  0  0
    0.7993   -0.3404   -1.3233 C   0  0  0  0  0  0  0  0  0  0  0  0
    0.1264   -0.8855   -1.9874 H   0  0  0  0  0  0  0  0  0  0  0  0
    0.8922    0.6782   -1.7063 H   0  0  0  0  0  0  0  0  0  0  0  0
    2.1708   -1.0310   -1.3825 C   0  0  0  0  0  0  0  0  0  0  0  0
    2.2543   -2.2290   -1.0227 O   0  5  0  0  0  0  0  0  0  0  0  0
    3.1371   -0.3410   -1.7730 O   0  0  0  0  0  0  0  0  0  0  0  0
   -0.0374    1.1645    0.5781 C   0  0  0  0  0  0  0  0  0  0  0  0
   -0.9816    1.8416    0.1544 O   0  0  0  0  0  0  0  0  0  0  0  0
    0.8235    1.6462    1.4801 N   0  0  0  0  0  0  0  0  0  0  0  0
    1.6183    1.0435    1.7020 H   0  0  0  0  0  0  0  0  0  0  0  0
    0.7895    2.9929    2.0404 C   0  0  0  0  0  0  0  0  0  0  0  0
   -0.2344    3.2522    2.3130 H   0  0  0  0  0  0  0  0  0  0  0  0
    1.4265    3.0377    2.9233 H   0  0  0  0  0  0  0  0  0  0  0  0
    1.1511    3.7014    1.2950 H   0  0  0  0  0  0  0  0  0  0  0  0
  5  6  2  0  0  0  0
  5  7  1  0  0  0  0
  2  3  1  0  0  0  0
  2  4  1  0  0  0  0
  2  5  1  0  0  0  0
  1  2  1  0  0  0  0
 17 18  2  0  0  0  0
 17 19  1  0  0  0  0
 14 15  1  0  0  0  0
 14 16  2  0  0  0  0
 11 12  1  0  0  0  0
 11 13  1  0  0  0  0
 11 14  1  0  0  0  0
  9 10  1  0  0  0  0
  9 11  1  0  0  0  0
  9 17  1  0  0  0  0
  7  8  1  0  0  0  0
  7  9  1  0  0  0  0
 21 22  1  0  0  0  0
 21 23  1  0  0  0  0
 21 24  1  0  0  0  0
 19 20  1  0  0  0  0
 19 21  1  0  0  0  0
M  CHG  1  15  -1
M  END
$$$$
default_name
  -OEChem-02102213163D

 24 23  0     1  0  0  0  0  0999 V2000
   -2.8347   -3.7166    0.8034 H   0  0  0  0  0  0  0  0  0  0  0  0
   -2.7728   -2.7096    0.3954 C   0  0  0  0  0  0  0  0  0  0  0  0
   -3.4267   -2.0426    0.9524 H   0  0  0  0  0  0  0  0  0  0  0  0
   -3.0538   -2.7186   -0.6556 H   0  0  0  0  0  0  0  0  0  0  0  0
   -1.3498   -2.2206    0.5184 C   0  0  0  0  0  0  0  0  0  0  0  0
   -0.4997   -2.9426    1.0194 O   0  0  0  0  0  0  0  0  0  0  0  0
   -1.1198   -0.9926    0.0674 N   0  0  0  0  0  0  0  0  0  0  0  0
   -1.8978   -0.4486   -0.2716 H   0  0  0  0  0  0  0  0  0  0  0  0
    0.1693   -0.2866    0.0854 C   0  0  1  0  0  0  0  0  0  0  0  0
    0.8425   -0.7905    0.7811 H   0  0  0  0  0  0  0  0  0  0  0  0
    0.7993   -0.3404   -1.3233 C   0  0  0  0  0  0  0  0  0  0  0  0
    0.1264   -0.8855   -1.9874 H   0  0  0  0  0  0  0  0  0  0  0  0
    0.8922    0.6782   -1.7063 H   0  0  0  0  0  0  0  0  0  0  0  0
    2.1708   -1.0310   -1.3825 C   0  0  0  0  0  0  0  0  0  0  0  0
    2.2159   -2.2813   -1.3028 O   0  5  0  0  0  0  0  0  0  0  0  0
    3.1737   -0.2927   -1.4886 O   0  0  0  0  0  0  0  0  0  0  0  0
   -0.0374    1.1645    0.5781 C   0  0  0  0  0  0  0  0  0  0  0  0
   -0.9816    1.8416    0.1544 O   0  0  0  0  0  0  0  0  0  0  0  0
    0.8235    1.6462    1.4801 N   0  0  0  0  0  0  0  0  0  0  0  0
    1.6183    1.0435    1.7020 H   0  0  0  0  0  0  0  0  0  0  0  0
    0.7895    2.9929    2.0404 C   0  0  0  0  0  0  0  0  0  0  0  0
   -0.2344    3.2522    2.3130 H   0  0  0  0  0  0  0  0  0  0  0  0
    1.4265    3.0377    2.9233 H   0  0  0  0  0  0  0  0  0  0  0  0
    1.1511    3.7014    1.2950 H   0  0  0  0  0  0  0  0  0  0  0  0
  5  6  2  0  0  0  0
  5  7  1  0  0  0  0
  2  3  1  0  0  0  0
  2  4  1  0  0  0  0
  2  5  1  0  0  0  0
  1  2  1  0  0  0  0
 17 18  2  0  0  0  0
 17 19  1  0  0  0  0
 14 15  1  0  0  0  0
 14 16  2  0  0  0  0
 11 12  1  0  0  0  0
 11 13  1  0  0  0  0
 11 14  1  0  0  0  0
  9 10  1  0  0  0  0
  9 11  1  0  0  0  0
  9 17  1  0  0  0  0
  7  8  1  0  0  0  0
  7  9  1  0  0  0  0
 21 22  1  0  0  0  0
 21 23  1  0  0  0  0
 21 24  1  0  0  0  0
 19 20  1  0  0  0  0
 19 21  1  0  0  0  0
M  CHG  1  15  -1
M  END
$$$$
default_name
  -OEChem-02102213163D

 24 23  0     1  0  0  0  0  0999 V2000
   -2.8347   -3.7166    0.8034 H   0  0  0  0  0  0  0  0  0  0  0  0
   -2.7728   -2.7096    0.3954 C   0  0  0  0  0  0  0  0  0  0  0  0
   -3.4267   -2.0426    0.9524 H   0  0  0  0  0  0  0  0  0  0  0  0
   -3.0538   -2.7186   -0.6556 H   0  0  0  0  0  0  0  0  0  0  0  0
   -1.3498   -2.2206    0.5184 C   0  0  0  0  0  0  0  0  0  0  0  0
   -0.4997   -2.9426    1.0194 O   0  0  0  0  0  0  0  0  0  0  0  0
   -1.1198   -0.9926    0.0674 N   0  0  0  0  0  0  0  0  0  0  0  0
   -1.8978   -0.4486   -0.2716 H   0  0  0  0  0  0  0  0  0  0  0  0
    0.1693   -0.2866    0.0854 C   0  0  1  0  0  0  0  0  0  0  0  0
    0.8425   -0.7905    0.7811 H   0  0  0  0  0  0  0  0  0  0  0  0
    0.7993   -0.3404   -1.3233 C   0  0  0  0  0  0  0  0  0  0  0  0
    0.1264   -0.8855   -1.9874 H   0  0  0  0  0  0  0  0  0  0  0  0
    0.8922    0.6782   -1.7063 H   0  0  0  0  0  0  0  0  0  0  0  0
    2.1708   -1.0310   -1.3825 C   0  0  0  0  0  0  0  0  0  0  0  0
    2.2108   -2.2667   -1.5899 O   0  5  0  0  0  0  0  0  0  0  0  0
    3.1765   -0.3120   -1.1985 O   0  0  0  0  0  0  0  0  0  0  0  0
   -0.0374    1.1645    0.5781 C   0  0  0  0  0  0  0  0  0  0  0  0
   -0.9816    1.8416    0.1544 O   0  0  0  0  0  0  0  0  0  0  0  0
    0.8235    1.6462    1.4801 N   0  0  0  0  0  0  0  0  0  0  0  0
    1.6183    1.0435    1.7020 H   0  0  0  0  0  0  0  0  0  0  0  0
    0.7895    2.9929    2.0404 C   0  0  0  0  0  0  0  0  0  0  0  0
   -0.2344    3.2522    2.3130 H   0  0  0  0  0  0  0  0  0  0  0  0
    1.4265    3.0377    2.9233 H   0  0  0  0  0  0  0  0  0  0  0  0
    1.1511    3.7014    1.2950 H   0  0  0  0  0  0  0  0  0  0  0  0
  5  6  2  0  0  0  0
  5  7  1  0  0  0  0
  2  3  1  0  0  0  0
  2  4  1  0  0  0  0
  2  5  1  0  0  0  0
  1  2  1  0  0  0  0
 17 18  2  0  0  0  0
 17 19  1  0  0  0  0
 14 15  1  0  0  0  0
 14 16  2  0  0  0  0
 11 12  1  0  0  0  0
 11 13  1  0  0  0  0
 11 14  1  0  0  0  0
  9 10  1  0  0  0  0
  9 11  1  0  0  0  0
  9 17  1  0  0  0  0
  7  8  1  0  0  0  0
  7  9  1  0  0  0  0
 21 22  1  0  0  0  0
 21 23  1  0  0  0  0
 21 24  1  0  0  0  0
 19 20  1  0  0  0  0
 19 21  1  0  0  0  0
M  CHG  1  15  -1
M  END
$$$$
default_name
  -OEChem-02102213163D

 24 23  0     1  0  0  0  0  0999 V2000
   -2.8347   -3.7166    0.8034 H   0  0  0  0  0  0  0  0  0  0  0  0
   -2.7728   -2.7096    0.3954 C   0  0  0  0  0  0  0  0  0  0  0  0
   -3.4267   -2.0426    0.9524 H   0  0  0  0  0  0  0  0  0  0  0  0
   -3.0538   -2.7186   -0.6556 H   0  0  0  0  0  0  0  0  0  0  0  0
   -1.3498   -2.2206    0.5184 C   0  0  0  0  0  0  0  0  0  0  0  0
   -0.4997   -2.9426    1.0194 O   0  0  0  0  0  0  0  0  0  0  0  0
   -1.1198   -0.9926    0.0674 N   0  0  0  0  0  0  0  0  0  0  0  0
   -1.8978   -0.4486   -0.2716 H   0  0  0  0  0  0  0  0  0  0  0  0
    0.1693   -0.2866    0.0854 C   0  0  1  0  0  0  0  0  0  0  0  0
    0.8425   -0.7905    0.7811 H   0  0  0  0  0  0  0  0  0  0  0  0
    0.7993   -0.3404   -1.3233 C   0  0  0  0  0  0  0  0  0  0  0  0
    0.1264   -0.8855   -1.9874 H   0  0  0  0  0  0  0  0  0  0  0  0
    0.8922    0.6782   -1.7063 H   0  0  0  0  0  0  0  0  0  0  0  0
    2.1708   -1.0310   -1.3825 C   0  0  0  0  0  0  0  0  0  0  0  0
    2.2395   -2.1863   -1.8644 O   0  5  0  0  0  0  0  0  0  0  0  0
    3.1452   -0.3977   -0.9225 O   0  0  0  0  0  0  0  0  0  0  0  0
   -0.0374    1.1645    0.5781 C   0  0  0  0  0  0  0  0  0  0  0  0
   -0.9816    1.8416    0.1544 O   0  0  0  0  0  0  0  0  0  0  0  0
    0.8235    1.6462    1.4801 N   0  0  0  0  0  0  0  0  0  0  0  0
    1.6183    1.0435    1.7020 H   0  0  0  0  0  0  0  0  0  0  0  0
    0.7895    2.9929    2.0404 C   0  0  0  0  0  0  0  0  0  0  0  0
   -0.2344    3.2522    2.3130 H   0  0  0  0  0  0  0  0  0  0  0  0
    1.4265    3.0377    2.9233 H   0  0  0  0  0  0  0  0  0  0  0  0
    1.1511    3.7014    1.2950 H   0  0  0  0  0  0  0  0  0  0  0  0
  5  6  2  0  0  0  0
  5  7  1  0  0  0  0
  2  3  1  0  0  0  0
  2  4  1  0  0  0  0
  2  5  1  0  0  0  0
  1  2  1  0  0  0  0
 17 18  2  0  0  0  0
 17 19  1  0  0  0  0
 14 15  1  0  0  0  0
 14 16  2  0  0  0  0
 11 12  1  0  0  0  0
 11 13  1  0  0  0  0
 11 14  1  0  0  0  0
  9 10  1  0  0  0  0
  9 11  1  0  0  0  0
  9 17  1  0  0  0  0
  7  8  1  0  0  0  0
  7  9  1  0  0  0  0
 21 22  1  0  0  0  0
 21 23  1  0  0  0  0
 21 24  1  0  0  0  0
 19 20  1  0  0  0  0
 19 21  1  0  0  0  0
M  CHG  1  15  -1
M  END
$$$$
default_name
  -OEChem-02102213163D

 24 23  0     1  0  0  0  0  0999 V2000
   -2.8347   -3.7166    0.8034 H   0  0  0  0  0  0  0  0  0  0  0  0
   -2.7728   -2.7096    0.3954 C   0  0  0  0  0  0  0  0  0  0  0  0
   -3.4267   -2.0426    0.9524 H   0  0  0  0  0  0  0  0  0  0  0  0
   -3.0538   -2.7186   -0.6556 H   0  0  0  0  0  0  0  0  0  0  0  0
   -1.3498   -2.2206    0.5184 C   0  0  0  0  0  0  0  0  0  0  0  0
   -0.4997   -2.9426    1.0194 O   0  0  0  0  0  0  0  0  0  0  0  0
   -1.1198   -0.9926    0.0674 N   0  0  0  0  0  0  0  0  0  0  0  0
   -1.8978   -0.4486   -0.2716 H   0  0  0  0  0  0  0  0  0  0  0  0
    0.1693   -0.2866    0.0854 C   0  0  1  0  0  0  0  0  0  0  0  0
    0.8425   -0.7905    0.7811 H   0  0  0  0  0  0  0  0  0  0  0  0
    0.7993   -0.3404   -1.3233 C   0  0  0  0  0  0  0  0  0  0  0  0
    0.1264   -0.8855   -1.9874 H   0  0  0  0  0  0  0  0  0  0  0  0
    0.8922    0.6782   -1.7063 H   0  0  0  0  0  0  0  0  0  0  0  0
    2.1708   -1.0310   -1.3825 C   0  0  0  0  0  0  0  0  0  0  0  0
    2.2999   -2.0454   -2.1076 O   0  5  0  0  0  0  0  0  0  0  0  0
    3.0821   -0.5439   -0.6793 O   0  0  0  0  0  0  0  0  0  0  0  0
   -0.0374    1.1645    0.5781 C   0  0  0  0  0  0  0  0  0  0  0  0
   -0.9816    1.8416    0.1544 O   0  0  0  0  0  0  0  0  0  0  0  0
    0.8235    1.6462    1.4801 N   0  0  0  0  0  0  0  0  0  0  0  0
    1.6183    1.0435    1.7020 H   0  0  0  0  0  0  0  0  0  0  0  0
    0.7895    2.9929    2.0404 C   0  0  0  0  0  0  0  0  0  0  0  0
   -0.2344    3.2522    2.3130 H   0  0  0  0  0  0  0  0  0  0  0  0
    1.4265    3.0377    2.9233 H   0  0  0  0  0  0  0  0  0  0  0  0
    1.1511    3.7014    1.2950 H   0  0  0  0  0  0  0  0  0  0  0  0
  5  6  2  0  0  0  0
  5  7  1  0  0  0  0
  2  3  1  0  0  0  0
  2  4  1  0  0  0  0
  2  5  1  0  0  0  0
  1  2  1  0  0  0  0
 17 18  2  0  0  0  0
 17 19  1  0  0  0  0
 14 15  1  0  0  0  0
 14 16  2  0  0  0  0
 11 12  1  0  0  0  0
 11 13  1  0  0  0  0
 11 14  1  0  0  0  0
  9 10  1  0  0  0  0
  9 11  1  0  0  0  0
  9 17  1  0  0  0  0
  7  8  1  0  0  0  0
  7  9  1  0  0  0  0
 21 22  1  0  0  0  0
 21 23  1  0  0  0  0
 21 24  1  0  0  0  0
 19 20  1  0  0  0  0
 19 21  1  0  0  0  0
M  CHG  1  15  -1
M  END
$$$$
default_name
  -OEChem-02102213163D

 24 23  0     1  0  0  0  0  0999 V2000
   -2.8347   -3.7166    0.8034 H   0  0  0  0  0  0  0  0  0  0  0  0
   -2.7728   -2.7096    0.3954 C   0  0  0  0  0  0  0  0  0  0  0  0
   -3.4267   -2.0426    0.9524 H   0  0  0  0  0  0  0  0  0  0  0  0
   -3.0538   -2.7186   -0.6556 H   0  0  0  0  0  0  0  0  0  0  0  0
   -1.3498   -2.2206    0.5184 C   0  0  0  0  0  0  0  0  0  0  0  0
   -0.4997   -2.9426    1.0194 O   0  0  0  0  0  0  0  0  0  0  0  0
   -1.1198   -0.9926    0.0674 N   0  0  0  0  0  0  0  0  0  0  0  0
   -1.8978   -0.4486   -0.2716 H   0  0  0  0  0  0  0  0  0  0  0  0
    0.1693   -0.2866    0.0854 C   0  0  1  0  0  0  0  0  0  0  0  0
    0.8425   -0.7905    0.7811 H   0  0  0  0  0  0  0  0  0  0  0  0
    0.7993   -0.3404   -1.3233 C   0  0  0  0  0  0  0  0  0  0  0  0
    0.1264   -0.8855   -1.9874 H   0  0  0  0  0  0  0  0  0  0  0  0
    0.8922    0.6782   -1.7063 H   0  0  0  0  0  0  0  0  0  0  0  0
    2.1708   -1.0310   -1.3825 C   0  0  0  0  0  0  0  0  0  0  0  0
    2.3880   -1.8538   -2.3030 O   0  5  0  0  0  0  0  0  0  0  0  0
    2.9914   -0.7407   -0.4855 O   0  0  0  0  0  0  0  0  0  0  0  0
   -0.0374    1.1645    0.5781 C   0  0  0  0  0  0  0  0  0  0  0  0
   -0.9816    1.8416    0.1544 O   0  0  0  0  0  0  0  0  0  0  0  0
    0.8235    1.6462    1.4801 N   0  0  0  0  0  0  0  0  0  0  0  0
    1.6183    1.0435    1.7020 H   0  0  0  0  0  0  0  0  0  0  0  0
    0.7895    2.9929    2.0404 C   0  0  0  0  0  0  0  0  0  0  0  0
   -0.2344    3.2522    2.3130 H   0  0  0  0  0  0  0  0  0  0  0  0
    1.4265    3.0377    2.9233 H   0  0  0  0  0  0  0  0  0  0  0  0
    1.1511    3.7014    1.2950 H   0  0  0  0  0  0  0  0  0  0  0  0
  5  6  2  0  0  0  0
  5  7  1  0  0  0  0
  2  3  1  0  0  0  0
  2  4  1  0  0  0  0
  2  5  1  0  0  0  0
  1  2  1  0  0  0  0
 17 18  2  0  0  0  0
 17 19  1  0  0  0  0
 14 15  1  0  0  0  0
 14 16  2  0  0  0  0
 11 12  1  0  0  0  0
 11 13  1  0  0  0  0
 11 14  1  0  0  0  0
  9 10  1  0  0  0  0
  9 11  1  0  0  0  0
  9 17  1  0  0  0  0
  7  8  1  0  0  0  0
  7  9  1  0  0  0  0
 21 22  1  0  0  0  0
 21 23  1  0  0  0  0
 21 24  1  0  0  0  0
 19 20  1  0  0  0  0
 19 21  1  0  0  0  0
M  CHG  1  15  -1
M  END
$$$$
default_name
  -OEChem-02102213163D

 24 23  0     1  0  0  0  0  0999 V2000
   -2.8347   -3.7166    0.8034 H   0  0  0  0  0  0  0  0  0  0  0  0
   -2.7728   -2.7096    0.3954 C   0  0  0  0  0  0  0  0  0  0  0  0
   -3.4267   -2.0426    0.9524 H   0  0  0  0  0  0  0  0  0  0  0  0
   -3.0538   -2.7186   -0.6556 H   0  0  0  0  0  0  0  0  0  0  0  0
   -1.3498   -2.2206    0.5184 C   0  0  0  0  0  0  0  0  0  0  0  0
   -0.4997   -2.9426    1.0194 O   0  0  0  0  0  0  0  0  0  0  0  0
   -1.1198   -0.9926    0.0674 N   0  0  0  0  0  0  0  0  0  0  0  0
   -1.8978   -0.4486   -0.2716 H   0  0  0  0  0  0  0  0  0  0  0  0
    0.1693   -0.2866    0.0854 C   0  0  1  0  0  0  0  0  0  0  0  0
    0.8425   -0.7905    0.7811 H   0  0  0  0  0  0  0  0  0  0  0  0
    0.7993   -0.3404   -1.3233 C   0  0  0  0  0  0  0  0  0  0  0  0
    0.1264   -0.8855   -1.9874 H   0  0  0  0  0  0  0  0  0  0  0  0
    0.8922    0.6782   -1.7063 H   0  0  0  0  0  0  0  0  0  0  0  0
    2.1708   -1.0310   -1.3825 C   0  0  0  0  0  0  0  0  0  0  0  0
    2.4977   -1.6245   -2.4372 O   0  5  0  0  0  0  0  0  0  0  0  0
    2.8792   -0.9746   -0.3543 O   0  0  0  0  0  0  0  0  0  0  0  0
   -0.0374    1.1645    0.5781 C   0  0  0  0  0  0  0  0  0  0  0  0
   -0.9816    1.8416    0.1544 O   0  0  0  0  0  0  0  0  0  0  0  0
    0.8235    1.6462    1.4801 N   0  0  0  0  0  0  0  0  0  0  0  0
    1.6183    1.0435    1.7020 H   0  0  0  0  0  0  0  0  0  0  0  0
    0.7895    2.9929    2.0404 C   0  0  0  0  0  0  0  0  0  0  0  0
   -0.2344    3.2522    2.3130 H   0  0  0  0  0  0  0  0  0  0  0  0
    1.4265    3.0377    2.9233 H   0  0  0  0  0  0  0  0  0  0  0  0
    1.1511    3.7014    1.2950 H   0  0  0  0  0  0  0  0  0  0  0  0
  5  6  2  0  0  0  0
  5  7  1  0  0  0  0
  2  3  1  0  0  0  0
  2  4  1  0  0  0  0
  2  5  1  0  0  0  0
  1  2  1  0  0  0  0
 17 18  2  0  0  0  0
 17 19  1  0  0  0  0
 14 15  1  0  0  0  0
 14 16  2  0  0  0  0
 11 12  1  0  0  0  0
 11 13  1  0  0  0  0
 11 14  1  0  0  0  0
  9 10  1  0  0  0  0
  9 11  1  0  0  0  0
  9 17  1  0  0  0  0
  7  8  1  0  0  0  0
  7  9  1  0  0  0  0
 21 22  1  0  0  0  0
 21 23  1  0  0  0  0
 21 24  1  0  0  0  0
 19 20  1  0  0  0  0
 19 21  1  0  0  0  0
M  CHG  1  15  -1
M  END
$$$$
default_name
  -OEChem-02102213163D

 24 23  0     1  0  0  0  0  0999 V2000
   -2.8347   -3.7166    0.8034 H   0  0  0  0  0  0  0  0  0  0  0  0
   -2.7728   -2.7096    0.3954 C   0  0  0  0  0  0  0  0  0  0  0  0
   -3.4267   -2.0426    0.9524 H   0  0  0  0  0  0  0  0  0  0  0  0
   -3.0538   -2.7186   -0.6556 H   0  0  0  0  0  0  0  0  0  0  0  0
   -1.3498   -2.2206    0.5184 C   0  0  0  0  0  0  0  0  0  0  0  0
   -0.4997   -2.9426    1.0194 O   0  0  0  0  0  0  0  0  0  0  0  0
   -1.1198   -0.9926    0.0674 N   0  0  0  0  0  0  0  0  0  0  0  0
   -1.8978   -0.4486   -0.2716 H   0  0  0  0  0  0  0  0  0  0  0  0
    0.1693   -0.2866    0.0854 C   0  0  1  0  0  0  0  0  0  0  0  0
    0.8425   -0.7905    0.7811 H   0  0  0  0  0  0  0  0  0  0  0  0
    0.7993   -0.3404   -1.3233 C   0  0  0  0  0  0  0  0  0  0  0  0
    0.1264   -0.8855   -1.9874 H   0  0  0  0  0  0  0  0  0  0  0  0
    0.8922    0.6782   -1.7063 H   0  0  0  0  0  0  0  0  0  0  0  0
    2.1708   -1.0310   -1.3825 C   0  0  0  0  0  0  0  0  0  0  0  0
    2.6215   -1.3730   -2.5012 O   0  5  0  0  0  0  0  0  0  0  0  0
    2.7533   -1.2298   -0.2946 O   0  0  0  0  0  0  0  0  0  0  0  0
   -0.0374    1.1645    0.5781 C   0  0  0  0  0  0  0  0  0  0  0  0
   -0.9816    1.8416    0.1544 O   0  0  0  0  0  0  0  0  0  0  0  0
    0.8235    1.6462    1.4801 N   0  0  0  0  0  0  0  0  0  0  0  0
    1.6183    1.0435    1.7020 H   0  0  0  0  0  0  0  0  0  0  0  0
    0.7895    2.9929    2.0404 C   0  0  0  0  0  0  0  0  0  0  0  0
   -0.2344    3.2522    2.3130 H   0  0  0  0  0  0  0  0  0  0  0  0
    1.4265    3.0377    2.9233 H   0  0  0  0  0  0  0  0  0  0  0  0
    1.1511    3.7014    1.2950 H   0  0  0  0  0  0  0  0  0  0  0  0
  5  6  2  0  0  0  0
  5  7  1  0  0  0  0
  2  3  1  0  0  0  0
  2  4  1  0  0  0  0
  2  5  1  0  0  0  0
  1  2  1  0  0  0  0
 17 18  2  0  0  0  0
 17 19  1  0  0  0  0
 14 15  1  0  0  0  0
 14 16  2  0  0  0  0
 11 12  1  0  0  0  0
 11 13  1  0  0  0  0
 11 14  1  0  0  0  0
  9 10  1  0  0  0  0
  9 11  1  0  0  0  0
  9 17  1  0  0  0  0
  7  8  1  0  0  0  0
  7  9  1  0  0  0  0
 21 22  1  0  0  0  0
 21 23  1  0  0  0  0
 21 24  1  0  0  0  0
 19 20  1  0  0  0  0
 19 21  1  0  0  0  0
M  CHG  1  15  -1
M  END
$$$$
default_name
  -OEChem-02102213163D

 24 23  0     1  0  0  0  0  0999 V2000
   -2.8347   -3.7166    0.8034 H   0  0  0  0  0  0  0  0  0  0  0  0
   -2.7728   -2.7096    0.3954 C   0  0  0  0  0  0  0  0  0  0  0  0
   -3.4267   -2.0426    0.9524 H   0  0  0  0  0  0  0  0  0  0  0  0
   -3.0538   -2.7186   -0.6556 H   0  0  0  0  0  0  0  0  0  0  0  0
   -1.3498   -2.2206    0.5184 C   0  0  0  0  0  0  0  0  0  0  0  0
   -0.4997   -2.9426    1.0194 O   0  0  0  0  0  0  0  0  0  0  0  0
   -1.1198   -0.9926    0.0674 N   0  0  0  0  0  0  0  0  0  0  0  0
   -1.8978   -0.4486   -0.2716 H   0  0  0  0  0  0  0  0  0  0  0  0
    0.1693   -0.2866    0.0854 C   0  0  1  0  0  0  0  0  0  0  0  0
    0.8425   -0.7905    0.7811 H   0  0  0  0  0  0  0  0  0  0  0  0
    0.7993   -0.3404   -1.3233 C   0  0  0  0  0  0  0  0  0  0  0  0
    0.0314   -0.6383   -2.0393 H   0  0  0  0  0  0  0  0  0  0  0  0
    1.1379    0.6616   -1.5958 H   0  0  0  0  0  0  0  0  0  0  0  0
    1.9704   -1.3258   -1.4608 C   0  0  0  0  0  0  0  0  0  0  0  0
    2.5381   -1.4300   -2.5737 O   0  5  0  0  0  0  0  0  0  0  0  0
    2.2778   -1.9869   -0.4456 O   0  0  0  0  0  0  0  0  0  0  0  0
   -0.0374    1.1645    0.5781 C   0  0  0  0  0  0  0  0  0  0  0  0
   -0.9816    1.8416    0.1544 O   0  0  0  0  0  0  0  0  0  0  0  0
    0.8235    1.6462    1.4801 N   0  0  0  0  0  0  0  0  0  0  0  0
    1.6183    1.0435    1.7020 H   0  0  0  0  0  0  0  0  0  0  0  0
    0.7895    2.9929    2.0404 C   0  0  0  0  0  0  0  0  0  0  0  0
   -0.2344    3.2522    2.3130 H   0  0  0  0  0  0  0  0  0  0  0  0
    1.4265    3.0377    2.9233 H   0  0  0  0  0  0  0  0  0  0  0  0
    1.1511    3.7014    1.2950 H   0  0  0  0  0  0  0  0  0  0  0  0
  5  6  2  0  0  0  0
  5  7  1  0  0  0  0
  2  3  1  0  0  0  0
  2  4  1  0  0  0  0
  2  5  1  0  0  0  0
  1  2  1  0  0  0  0
 17 18  2  0  0  0  0
 17 19  1  0  0  0  0
 14 15  1  0  0  0  0
 14 16  2  0  0  0  0
 11 12  1  0  0  0  0
 11 13  1  0  0  0  0
 11 14  1  0  0  0  0
  9 10  1  0  0  0  0
  9 11  1  0  0  0  0
  9 17  1  0  0  0  0
  7  8  1  0  0  0  0
  7  9  1  0  0  0  0
 21 22  1  0  0  0  0
 21 23  1  0  0  0  0
 21 24  1  0  0  0  0
 19 20  1  0  0  0  0
 19 21  1  0  0  0  0
M  CHG  1  15  -1
M  END
$$$$
default_name
  -OEChem-02102213163D

 24 23  0     1  0  0  0  0  0999 V2000
   -2.8347   -3.7166    0.8034 H   0  0  0  0  0  0  0  0  0  0  0  0
   -2.7728   -2.7096    0.3954 C   0  0  0  0  0  0  0  0  0  0  0  0
   -3.4267   -2.0426    0.9524 H   0  0  0  0  0  0  0  0  0  0  0  0
   -3.0538   -2.7186   -0.6556 H   0  0  0  0  0  0  0  0  0  0  0  0
   -1.3498   -2.2206    0.5184 C   0  0  0  0  0  0  0  0  0  0  0  0
   -0.4997   -2.9426    1.0194 O   0  0  0  0  0  0  0  0  0  0  0  0
   -1.1198   -0.9926    0.0674 N   0  0  0  0  0  0  0  0  0  0  0  0
   -1.8978   -0.4486   -0.2716 H   0  0  0  0  0  0  0  0  0  0  0  0
    0.1693   -0.2866    0.0854 C   0  0  1  0  0  0  0  0  0  0  0  0
    0.8425   -0.7905    0.7811 H   0  0  0  0  0  0  0  0  0  0  0  0
    0.7993   -0.3404   -1.3233 C   0  0  0  0  0  0  0  0  0  0  0  0
    0.0314   -0.6383   -2.0393 H   0  0  0  0  0  0  0  0  0  0  0  0
    1.1379    0.6616   -1.5958 H   0  0  0  0  0  0  0  0  0  0  0  0
    1.9704   -1.3258   -1.4608 C   0  0  0  0  0  0  0  0  0  0  0  0
    2.7166   -1.2332   -2.4640 O   0  5  0  0  0  0  0  0  0  0  0  0
    2.0983   -2.1841   -0.5613 O   0  0  0  0  0  0  0  0  0  0  0  0
   -0.0374    1.1645    0.5781 C   0  0  0  0  0  0  0  0  0  0  0  0
   -0.9816    1.8416    0.1544 O   0  0  0  0  0  0  0  0  0  0  0  0
    0.8235    1.6462    1.4801 N   0  0  0  0  0  0  0  0  0  0  0  0
    1.6183    1.0435    1.7020 H   0  0  0  0  0  0  0  0  0  0  0  0
    0.7895    2.9929    2.0404 C   0  0  0  0  0  0  0  0  0  0  0  0
   -0.2344    3.2522    2.3130 H   0  0  0  0  0  0  0  0  0  0  0  0
    1.4265    3.0377    2.9233 H   0  0  0  0  0  0  0  0  0  0  0  0
    1.1511    3.7014    1.2950 H   0  0  0  0  0  0  0  0  0  0  0  0
  5  6  2  0  0  0  0
  5  7  1  0  0  0  0
  2  3  1  0  0  0  0
  2  4  1  0  0  0  0
  2  5  1  0  0  0  0
  1  2  1  0  0  0  0
 17 18  2  0  0  0  0
 17 19  1  0  0  0  0
 14 15  1  0  0  0  0
 14 16  2  0  0  0  0
 11 12  1  0  0  0  0
 11 13  1  0  0  0  0
 11 14  1  0  0  0  0
  9 10  1  0  0  0  0
  9 11  1  0  0  0  0
  9 17  1  0  0  0  0
  7  8  1  0  0  0  0
  7  9  1  0  0  0  0
 21 22  1  0  0  0  0
 21 23  1  0  0  0  0
 21 24  1  0  0  0  0
 19 20  1  0  0  0  0
 19 21  1  0  0  0  0
M  CHG  1  15  -1
M  END
$$$$
default_name
  -OEChem-02102213163D

 24 23  0     1  0  0  0  0  0999 V2000
   -2.8347   -3.7166    0.8034 H   0  0  0  0  0  0  0  0  0  0  0  0
   -2.7728   -2.7096    0.3954 C   0  0  0  0  0  0  0  0  0  0  0  0
   -3.4267   -2.0426    0.9524 H   0  0  0  0  0  0  0  0  0  0  0  0
   -3.0538   -2.7186   -0.6556 H   0  0  0  0  0  0  0  0  0  0  0  0
   -1.3498   -2.2206    0.5184 C   0  0  0  0  0  0  0  0  0  0  0  0
   -0.4997   -2.9426    1.0194 O   0  0  0  0  0  0  0  0  0  0  0  0
   -1.1198   -0.9926    0.0674 N   0  0  0  0  0  0  0  0  0  0  0  0
   -1.8978   -0.4486   -0.2716 H   0  0  0  0  0  0  0  0  0  0  0  0
    0.1693   -0.2866    0.0854 C   0  0  1  0  0  0  0  0  0  0  0  0
    0.8425   -0.7905    0.7811 H   0  0  0  0  0  0  0  0  0  0  0  0
    0.7993   -0.3404   -1.3233 C   0  0  0  0  0  0  0  0  0  0  0  0
    0.0314   -0.6383   -2.0393 H   0  0  0  0  0  0  0  0  0  0  0  0
    1.1379    0.6616   -1.5958 H   0  0  0  0  0  0  0  0  0  0  0  0
    1.9704   -1.3258   -1.4608 C   0  0  0  0  0  0  0  0  0  0  0  0
    2.8754   -1.0689   -2.2895 O   0  5  0  0  0  0  0  0  0  0  0  0
    1.9395   -2.3476   -0.7418 O   0  0  0  0  0  0  0  0  0  0  0  0
   -0.0374    1.1645    0.5781 C   0  0  0  0  0  0  0  0  0  0  0  0
   -0.9816    1.8416    0.1544 O   0  0  0  0  0  0  0  0  0  0  0  0
    0.8235    1.6462    1.4801 N   0  0  0  0  0  0  0  0  0  0  0  0
    1.6183    1.0435    1.7020 H   0  0  0  0  0  0  0  0  0  0  0  0
    0.7895    2.9929    2.0404 C   0  0  0  0  0  0  0  0  0  0  0  0
   -0.2344    3.2522    2.3130 H   0  0  0  0  0  0  0  0  0  0  0  0
    1.4265    3.0377    2.9233 H   0  0  0  0  0  0  0  0  0  0  0  0
    1.1511    3.7014    1.2950 H   0  0  0  0  0  0  0  0  0  0  0  0
  5  6  2  0  0  0  0
  5  7  1  0  0  0  0
  2  3  1  0  0  0  0
  2  4  1  0  0  0  0
  2  5  1  0  0  0  0
  1  2  1  0  0  0  0
 17 18  2  0  0  0  0
 17 19  1  0  0  0  0
 14 15  1  0  0  0  0
 14 16  2  0  0  0  0
 11 12  1  0  0  0  0
 11 13  1  0  0  0  0
 11 14  1  0  0  0  0
  9 10  1  0  0  0  0
  9 11  1  0  0  0  0
  9 17  1  0  0  0  0
  7  8  1  0  0  0  0
  7  9  1  0  0  0  0
 21 22  1  0  0  0  0
 21 23  1  0  0  0  0
 21 24  1  0  0  0  0
 19 20  1  0  0  0  0
 19 21  1  0  0  0  0
M  CHG  1  15  -1
M  END
$$$$
default_name
  -OEChem-02102213163D

 24 23  0     1  0  0  0  0  0999 V2000
   -2.8347   -3.7166    0.8034 H   0  0  0  0  0  0  0  0  0  0  0  0
   -2.7728   -2.7096    0.3954 C   0  0  0  0  0  0  0  0  0  0  0  0
   -3.4267   -2.0426    0.9524 H   0  0  0  0  0  0  0  0  0  0  0  0
   -3.0538   -2.7186   -0.6556 H   0  0  0  0  0  0  0  0  0  0  0  0
   -1.3498   -2.2206    0.5184 C   0  0  0  0  0  0  0  0  0  0  0  0
   -0.4997   -2.9426    1.0194 O   0  0  0  0  0  0  0  0  0  0  0  0
   -1.1198   -0.9926    0.0674 N   0  0  0  0  0  0  0  0  0  0  0  0
   -1.8978   -0.4486   -0.2716 H   0  0  0  0  0  0  0  0  0  0  0  0
    0.1693   -0.2866    0.0854 C   0  0  1  0  0  0  0  0  0  0  0  0
    0.8425   -0.7905    0.7811 H   0  0  0  0  0  0  0  0  0  0  0  0
    0.7993   -0.3404   -1.3233 C   0  0  0  0  0  0  0  0  0  0  0  0
    0.0314   -0.6383   -2.0393 H   0  0  0  0  0  0  0  0  0  0  0  0
    1.1379    0.6616   -1.5958 H   0  0  0  0  0  0  0  0  0  0  0  0
    1.9704   -1.3258   -1.4608 C   0  0  0  0  0  0  0  0  0  0  0  0
    3.0036   -0.9482   -2.0622 O   0  5  0  0  0  0  0  0  0  0  0  0
    1.8122   -2.4663   -0.9747 O   0  0  0  0  0  0  0  0  0  0  0  0
   -0.0374    1.1645    0.5781 C   0  0  0  0  0  0  0  0  0  0  0  0
   -0.9816    1.8416    0.1544 O   0  0  0  0  0  0  0  0  0  0  0  0
    0.8235    1.6462    1.4801 N   0  0  0  0  0  0  0  0  0  0  0  0
    1.6183    1.0435    1.7020 H   0  0  0  0  0  0  0  0  0  0  0  0
    0.7895    2.9929    2.0404 C   0  0  0  0  0  0  0  0  0  0  0  0
   -0.2344    3.2522    2.3130 H   0  0  0  0  0  0  0  0  0  0  0  0
    1.4265    3.0377    2.9233 H   0  0  0  0  0  0  0  0  0  0  0  0
    1.1511    3.7014    1.2950 H   0  0  0  0  0  0  0  0  0  0  0  0
  5  6  2  0  0  0  0
  5  7  1  0  0  0  0
  2  3  1  0  0  0  0
  2  4  1  0  0  0  0
  2  5  1  0  0  0  0
  1  2  1  0  0  0  0
 17 18  2  0  0  0  0
 17 19  1  0  0  0  0
 14 15  1  0  0  0  0
 14 16  2  0  0  0  0
 11 12  1  0  0  0  0
 11 13  1  0  0  0  0
 11 14  1  0  0  0  0
  9 10  1  0  0  0  0
  9 11  1  0  0  0  0
  9 17  1  0  0  0  0
  7  8  1  0  0  0  0
  7  9  1  0  0  0  0
 21 22  1  0  0  0  0
 21 23  1  0  0  0  0
 21 24  1  0  0  0  0
 19 20  1  0  0  0  0
 19 21  1  0  0  0  0
M  CHG  1  15  -1
M  END
$$$$
default_name
  -OEChem-02102213163D

 24 23  0     1  0  0  0  0  0999 V2000
   -2.8347   -3.7166    0.8034 H   0  0  0  0  0  0  0  0  0  0  0  0
   -2.7728   -2.7096    0.3954 C   0  0  0  0  0  0  0  0  0  0  0  0
   -3.4267   -2.0426    0.9524 H   0  0  0  0  0  0  0  0  0  0  0  0
   -3.0538   -2.7186   -0.6556 H   0  0  0  0  0  0  0  0  0  0  0  0
   -1.3498   -2.2206    0.5184 C   0  0  0  0  0  0  0  0  0  0  0  0
   -0.4997   -2.9426    1.0194 O   0  0  0  0  0  0  0  0  0  0  0  0
   -1.1198   -0.9926    0.0674 N   0  0  0  0  0  0  0  0  0  0  0  0
   -1.8978   -0.4486   -0.2716 H   0  0  0  0  0  0  0  0  0  0  0  0
    0.1693   -0.2866    0.0854 C   0  0  1  0  0  0  0  0  0  0  0  0
    0.8425   -0.7905    0.7811 H   0  0  0  0  0  0  0  0  0  0  0  0
    0.7993   -0.3404   -1.3233 C   0  0  0  0  0  0  0  0  0  0  0  0
    0.0314   -0.6383   -2.0393 H   0  0  0  0  0  0  0  0  0  0  0  0
    1.1379    0.6616   -1.5958 H   0  0  0  0  0  0  0  0  0  0  0  0
    1.9704   -1.3258   -1.4608 C   0  0  0  0  0  0  0  0  0  0  0  0
    3.0925   -0.8795   -1.7976 O   0  5  0  0  0  0  0  0  0  0  0  0
    1.7252   -2.5321   -1.2442 O   0  0  0  0  0  0  0  0  0  0  0  0
   -0.0374    1.1645    0.5781 C   0  0  0  0  0  0  0  0  0  0  0  0
   -0.9816    1.8416    0.1544 O   0  0  0  0  0  0  0  0  0  0  0  0
    0.8235    1.6462    1.4801 N   0  0  0  0  0  0  0  0  0  0  0  0
    1.6183    1.0435    1.7020 H   0  0  0  0  0  0  0  0  0  0  0  0
    0.7895    2.9929    2.0404 C   0  0  0  0  0  0  0  0  0  0  0  0
   -0.2344    3.2522    2.3130 H   0  0  0  0  0  0  0  0  0  0  0  0
    1.4265    3.0377    2.9233 H   0  0  0  0  0  0  0  0  0  0  0  0
    1.1511    3.7014    1.2950 H   0  0  0  0  0  0  0  0  0  0  0  0
  5  6  2  0  0  0  0
  5  7  1  0  0  0  0
  2  3  1  0  0  0  0
  2  4  1  0  0  0  0
  2  5  1  0  0  0  0
  1  2  1  0  0  0  0
 17 18  2  0  0  0  0
 17 19  1  0  0  0  0
 14 15  1  0  0  0  0
 14 16  2  0  0  0  0
 11 12  1  0  0  0  0
 11 13  1  0  0  0  0
 11 14  1  0  0  0  0
  9 10  1  0  0  0  0
  9 11  1  0  0  0  0
  9 17  1  0  0  0  0
  7  8  1  0  0  0  0
  7  9  1  0  0  0  0
 21 22  1  0  0  0  0
 21 23  1  0  0  0  0
 21 24  1  0  0  0  0
 19 20  1  0  0  0  0
 19 21  1  0  0  0  0
M  CHG  1  15  -1
M  END
$$$$
default_name
  -OEChem-02102213163D

 24 23  0     1  0  0  0  0  0999 V2000
   -2.8347   -3.7166    0.8034 H   0  0  0  0  0  0  0  0  0  0  0  0
   -2.7728   -2.7096    0.3954 C   0  0  0  0  0  0  0  0  0  0  0  0
   -3.4267   -2.0426    0.9524 H   0  0  0  0  0  0  0  0  0  0  0  0
   -3.0538   -2.7186   -0.6556 H   0  0  0  0  0  0  0  0  0  0  0  0
   -1.3498   -2.2206    0.5184 C   0  0  0  0  0  0  0  0  0  0  0  0
   -0.4997   -2.9426    1.0194 O   0  0  0  0  0  0  0  0  0  0  0  0
   -1.1198   -0.9926    0.0674 N   0  0  0  0  0  0  0  0  0  0  0  0
   -1.8978   -0.4486   -0.2716 H   0  0  0  0  0  0  0  0  0  0  0  0
    0.1693   -0.2866    0.0854 C   0  0  1  0  0  0  0  0  0  0  0  0
    0.8425   -0.7905    0.7811 H   0  0  0  0  0  0  0  0  0  0  0  0
    0.7993   -0.3404   -1.3233 C   0  0  0  0  0  0  0  0  0  0  0  0
    0.0314   -0.6383   -2.0393 H   0  0  0  0  0  0  0  0  0  0  0  0
    1.1379    0.6616   -1.5958 H   0  0  0  0  0  0  0  0  0  0  0  0
    1.9704   -1.3258   -1.4608 C   0  0  0  0  0  0  0  0  0  0  0  0
    3.1360   -0.8674   -1.5137 O   0  5  0  0  0  0  0  0  0  0  0  0
    1.6844   -2.5404   -1.5319 O   0  0  0  0  0  0  0  0  0  0  0  0
   -0.0374    1.1645    0.5781 C   0  0  0  0  0  0  0  0  0  0  0  0
   -0.9816    1.8416    0.1544 O   0  0  0  0  0  0  0  0  0  0  0  0
    0.8235    1.6462    1.4801 N   0  0  0  0  0  0  0  0  0  0  0  0
    1.6183    1.0435    1.7020 H   0  0  0  0  0  0  0  0  0  0  0  0
    0.7895    2.9929    2.0404 C   0  0  0  0  0  0  0  0  0  0  0  0
   -0.2344    3.2522    2.3130 H   0  0  0  0  0  0  0  0  0  0  0  0
    1.4265    3.0377    2.9233 H   0  0  0  0  0  0  0  0  0  0  0  0
    1.1511    3.7014    1.2950 H   0  0  0  0  0  0  0  0  0  0  0  0
  5  6  2  0  0  0  0
  5  7  1  0  0  0  0
  2  3  1  0  0  0  0
  2  4  1  0  0  0  0
  2  5  1  0  0  0  0
  1  2  1  0  0  0  0
 17 18  2  0  0  0  0
 17 19  1  0  0  0  0
 14 15  1  0  0  0  0
 14 16  2  0  0  0  0
 11 12  1  0  0  0  0
 11 13  1  0  0  0  0
 11 14  1  0  0  0  0
  9 10  1  0  0  0  0
  9 11  1  0  0  0  0
  9 17  1  0  0  0  0
  7  8  1  0  0  0  0
  7  9  1  0  0  0  0
 21 22  1  0  0  0  0
 21 23  1  0  0  0  0
 21 24  1  0  0  0  0
 19 20  1  0  0  0  0
 19 21  1  0  0  0  0
M  CHG  1  15  -1
M  END
$$$$
default_name
  -OEChem-02102213163D

 24 23  0     1  0  0  0  0  0999 V2000
   -2.8347   -3.7166    0.8034 H   0  0  0  0  0  0  0  0  0  0  0  0
   -2.7728   -2.7096    0.3954 C   0  0  0  0  0  0  0  0  0  0  0  0
   -3.4267   -2.0426    0.9524 H   0  0  0  0  0  0  0  0  0  0  0  0
   -3.0538   -2.7186   -0.6556 H   0  0  0  0  0  0  0  0  0  0  0  0
   -1.3498   -2.2206    0.5184 C   0  0  0  0  0  0  0  0  0  0  0  0
   -0.4997   -2.9426    1.0194 O   0  0  0  0  0  0  0  0  0  0  0  0
   -1.1198   -0.9926    0.0674 N   0  0  0  0  0  0  0  0  0  0  0  0
   -1.8978   -0.4486   -0.2716 H   0  0  0  0  0  0  0  0  0  0  0  0
    0.1693   -0.2866    0.0854 C   0  0  1  0  0  0  0  0  0  0  0  0
    0.8425   -0.7905    0.7811 H   0  0  0  0  0  0  0  0  0  0  0  0
    0.7993   -0.3404   -1.3233 C   0  0  0  0  0  0  0  0  0  0  0  0
    0.0314   -0.6383   -2.0393 H   0  0  0  0  0  0  0  0  0  0  0  0
    1.1379    0.6616   -1.5958 H   0  0  0  0  0  0  0  0  0  0  0  0
    1.9704   -1.3258   -1.4608 C   0  0  0  0  0  0  0  0  0  0  0  0
    3.1313   -0.9127   -1.2299 O   0  5  0  0  0  0  0  0  0  0  0  0
    1.6926   -2.4908   -1.8183 O   0  0  0  0  0  0  0  0  0  0  0  0
   -0.0374    1.1645    0.5781 C   0  0  0  0  0  0  0  0  0  0  0  0
   -0.9816    1.8416    0.1544 O   0  0  0  0  0  0  0  0  0  0  0  0
    0.8235    1.6462    1.4801 N   0  0  0  0  0  0  0  0  0  0  0  0
    1.6183    1.0435    1.7020 H   0  0  0  0  0  0  0  0  0  0  0  0
    0.7895    2.9929    2.0404 C   0  0  0  0  0  0  0  0  0  0  0  0
   -0.2344    3.2522    2.3130 H   0  0  0  0  0  0  0  0  0  0  0  0
    1.4265    3.0377    2.9233 H   0  0  0  0  0  0  0  0  0  0  0  0
    1.1511    3.7014    1.2950 H   0  0  0  0  0  0  0  0  0  0  0  0
  5  6  2  0  0  0  0
  5  7  1  0  0  0  0
  2  3  1  0  0  0  0
  2  4  1  0  0  0  0
  2  5  1  0  0  0  0
  1  2  1  0  0  0  0
 17 18  2  0  0  0  0
 17 19  1  0  0  0  0
 14 15  1  0  0  0  0
 14 16  2  0  0  0  0
 11 12  1  0  0  0  0
 11 13  1  0  0  0  0
 11 14  1  0  0  0  0
  9 10  1  0  0  0  0
  9 11  1  0  0  0  0
  9 17  1  0  0  0  0
  7  8  1  0  0  0  0
  7  9  1  0  0  0  0
 21 22  1  0  0  0  0
 21 23  1  0  0  0  0
 21 24  1  0  0  0  0
 19 20  1  0  0  0  0
 19 21  1  0  0  0  0
M  CHG  1  15  -1
M  END
$$$$
default_name
  -OEChem-02102213163D

 24 23  0     1  0  0  0  0  0999 V2000
   -2.8347   -3.7166    0.8034 H   0  0  0  0  0  0  0  0  0  0  0  0
   -2.7728   -2.7096    0.3954 C   0  0  0  0  0  0  0  0  0  0  0  0
   -3.4267   -2.0426    0.9524 H   0  0  0  0  0  0  0  0  0  0  0  0
   -3.0538   -2.7186   -0.6556 H   0  0  0  0  0  0  0  0  0  0  0  0
   -1.3498   -2.2206    0.5184 C   0  0  0  0  0  0  0  0  0  0  0  0
   -0.4997   -2.9426    1.0194 O   0  0  0  0  0  0  0  0  0  0  0  0
   -1.1198   -0.9926    0.0674 N   0  0  0  0  0  0  0  0  0  0  0  0
   -1.8978   -0.4486   -0.2716 H   0  0  0  0  0  0  0  0  0  0  0  0
    0.1693   -0.2866    0.0854 C   0  0  1  0  0  0  0  0  0  0  0  0
    0.8425   -0.7905    0.7811 H   0  0  0  0  0  0  0  0  0  0  0  0
    0.7993   -0.3404   -1.3233 C   0  0  0  0  0  0  0  0  0  0  0  0
    0.0314   -0.6383   -2.0393 H   0  0  0  0  0  0  0  0  0  0  0  0
    1.1379    0.6616   -1.5958 H   0  0  0  0  0  0  0  0  0  0  0  0
    1.9704   -1.3258   -1.4608 C   0  0  0  0  0  0  0  0  0  0  0  0
    3.0785   -1.0123   -0.9654 O   0  5  0  0  0  0  0  0  0  0  0  0
    1.7491   -2.3865   -2.0837 O   0  0  0  0  0  0  0  0  0  0  0  0
   -0.0374    1.1645    0.5781 C   0  0  0  0  0  0  0  0  0  0  0  0
   -0.9816    1.8416    0.1544 O   0  0  0  0  0  0  0  0  0  0  0  0
    0.8235    1.6462    1.4801 N   0  0  0  0  0  0  0  0  0  0  0  0
    1.6183    1.0435    1.7020 H   0  0  0  0  0  0  0  0  0  0  0  0
    0.7895    2.9929    2.0404 C   0  0  0  0  0  0  0  0  0  0  0  0
   -0.2344    3.2522    2.3130 H   0  0  0  0  0  0  0  0  0  0  0  0
    1.4265    3.0377    2.9233 H   0  0  0  0  0  0  0  0  0  0  0  0
    1.1511    3.7014    1.2950 H   0  0  0  0  0  0  0  0  0  0  0  0
  5  6  2  0  0  0  0
  5  7  1  0  0  0  0
  2  3  1  0  0  0  0
  2  4  1  0  0  0  0
  2  5  1  0  0  0  0
  1  2  1  0  0  0  0
 17 18  2  0  0  0  0
 17 19  1  0  0  0  0
 14 15  1  0  0  0  0
 14 16  2  0  0  0  0
 11 12  1  0  0  0  0
 11 13  1  0  0  0  0
 11 14  1  0  0  0  0
  9 10  1  0  0  0  0
  9 11  1  0  0  0  0
  9 17  1  0  0  0  0
  7  8  1  0  0  0  0
  7  9  1  0  0  0  0
 21 22  1  0  0  0  0
 21 23  1  0  0  0  0
 21 24  1  0  0  0  0
 19 20  1  0  0  0  0
 19 21  1  0  0  0  0
M  CHG  1  15  -1
M  END
$$$$
default_name
  -OEChem-02102213163D

 24 23  0     1  0  0  0  0  0999 V2000
   -2.8347   -3.7166    0.8034 H   0  0  0  0  0  0  0  0  0  0  0  0
   -2.7728   -2.7096    0.3954 C   0  0  0  0  0  0  0  0  0  0  0  0
   -3.4267   -2.0426    0.9524 H   0  0  0  0  0  0  0  0  0  0  0  0
   -3.0538   -2.7186   -0.6556 H   0  0  0  0  0  0  0  0  0  0  0  0
   -1.3498   -2.2206    0.5184 C   0  0  0  0  0  0  0  0  0  0  0  0
   -0.4997   -2.9426    1.0194 O   0  0  0  0  0  0  0  0  0  0  0  0
   -1.1198   -0.9926    0.0674 N   0  0  0  0  0  0  0  0  0  0  0  0
   -1.8978   -0.4486   -0.2716 H   0  0  0  0  0  0  0  0  0  0  0  0
    0.1693   -0.2866    0.0854 C   0  0  1  0  0  0  0  0  0  0  0  0
    0.8425   -0.7905    0.7811 H   0  0  0  0  0  0  0  0  0  0  0  0
    0.7993   -0.3404   -1.3233 C   0  0  0  0  0  0  0  0  0  0  0  0
    0.0314   -0.6383   -2.0393 H   0  0  0  0  0  0  0  0  0  0  0  0
    1.1379    0.6616   -1.5958 H   0  0  0  0  0  0  0  0  0  0  0  0
    1.9704   -1.3258   -1.4608 C   0  0  0  0  0  0  0  0  0  0  0  0
    2.9813   -1.1595   -0.7384 O   0  5  0  0  0  0  0  0  0  0  0  0
    1.8502   -2.2348   -2.3102 O   0  0  0  0  0  0  0  0  0  0  0  0
   -0.0374    1.1645    0.5781 C   0  0  0  0  0  0  0  0  0  0  0  0
   -0.9816    1.8416    0.1544 O   0  0  0  0  0  0  0  0  0  0  0  0
    0.8235    1.6462    1.4801 N   0  0  0  0  0  0  0  0  0  0  0  0
    1.6183    1.0435    1.7020 H   0  0  0  0  0  0  0  0  0  0  0  0
    0.7895    2.9929    2.0404 C   0  0  0  0  0  0  0  0  0  0  0  0
   -0.2344    3.2522    2.3130 H   0  0  0  0  0  0  0  0  0  0  0  0
    1.4265    3.0377    2.9233 H   0  0  0  0  0  0  0  0  0  0  0  0
    1.1511    3.7014    1.2950 H   0  0  0  0  0  0  0  0  0  0  0  0
  5  6  2  0  0  0  0
  5  7  1  0  0  0  0
  2  3  1  0  0  0  0
  2  4  1  0  0  0  0
  2  5  1  0  0  0  0
  1  2  1  0  0  0  0
 17 18  2  0  0  0  0
 17 19  1  0  0  0  0
 14 15  1  0  0  0  0
 14 16  2  0  0  0  0
 11 12  1  0  0  0  0
 11 13  1  0  0  0  0
 11 14  1  0  0  0  0
  9 10  1  0  0  0  0
  9 11  1  0  0  0  0
  9 17  1  0  0  0  0
  7  8  1  0  0  0  0
  7  9  1  0  0  0  0
 21 22  1  0  0  0  0
 21 23  1  0  0  0  0
 21 24  1  0  0  0  0
 19 20  1  0  0  0  0
 19 21  1  0  0  0  0
M  CHG  1  15  -1
M  END
$$$$
default_name
  -OEChem-02102213163D

 24 23  0     1  0  0  0  0  0999 V2000
   -2.8347   -3.7166    0.8034 H   0  0  0  0  0  0  0  0  0  0  0  0
   -2.7728   -2.7096    0.3954 C   0  0  0  0  0  0  0  0  0  0  0  0
   -3.4267   -2.0426    0.9524 H   0  0  0  0  0  0  0  0  0  0  0  0
   -3.0538   -2.7186   -0.6556 H   0  0  0  0  0  0  0  0  0  0  0  0
   -1.3498   -2.2206    0.5184 C   0  0  0  0  0  0  0  0  0  0  0  0
   -0.4997   -2.9426    1.0194 O   0  0  0  0  0  0  0  0  0  0  0  0
   -1.1198   -0.9926    0.0674 N   0  0  0  0  0  0  0  0  0  0  0  0
   -1.8978   -0.4486   -0.2716 H   0  0  0  0  0  0  0  0  0  0  0  0
    0.1693   -0.2866    0.0854 C   0  0  1  0  0  0  0  0  0  0  0  0
    0.8425   -0.7905    0.7811 H   0  0  0  0  0  0  0  0  0  0  0  0
    0.7993   -0.3404   -1.3233 C   0  0  0  0  0  0  0  0  0  0  0  0
    0.0314   -0.6383   -2.0393 H   0  0  0  0  0  0  0  0  0  0  0  0
    1.1379    0.6616   -1.5958 H   0  0  0  0  0  0  0  0  0  0  0  0
    1.9704   -1.3258   -1.4608 C   0  0  0  0  0  0  0  0  0  0  0  0
    2.8464   -1.3441   -0.5642 O   0  5  0  0  0  0  0  0  0  0  0  0
    1.9889   -2.0459   -2.4822 O   0  0  0  0  0  0  0  0  0  0  0  0
   -0.0374    1.1645    0.5781 C   0  0  0  0  0  0  0  0  0  0  0  0
   -0.9816    1.8416    0.1544 O   0  0  0  0  0  0  0  0  0  0  0  0
    0.8235    1.6462    1.4801 N   0  0  0  0  0  0  0  0  0  0  0  0
    1.6183    1.0435    1.7020 H   0  0  0  0  0  0  0  0  0  0  0  0
    0.7895    2.9929    2.0404 C   0  0  0  0  0  0  0  0  0  0  0  0
   -0.2344    3.2522    2.3130 H   0  0  0  0  0  0  0  0  0  0  0  0
    1.4265    3.0377    2.9233 H   0  0  0  0  0  0  0  0  0  0  0  0
    1.1511    3.7014    1.2950 H   0  0  0  0  0  0  0  0  0  0  0  0
  5  6  2  0  0  0  0
  5  7  1  0  0  0  0
  2  3  1  0  0  0  0
  2  4  1  0  0  0  0
  2  5  1  0  0  0  0
  1  2  1  0  0  0  0
 17 18  2  0  0  0  0
 17 19  1  0  0  0  0
 14 15  1  0  0  0  0
 14 16  2  0  0  0  0
 11 12  1  0  0  0  0
 11 13  1  0  0  0  0
 11 14  1  0  0  0  0
  9 10  1  0  0  0  0
  9 11  1  0  0  0  0
  9 17  1  0  0  0  0
  7  8  1  0  0  0  0
  7  9  1  0  0  0  0
 21 22  1  0  0  0  0
 21 23  1  0  0  0  0
 21 24  1  0  0  0  0
 19 20  1  0  0  0  0
 19 21  1  0  0  0  0
M  CHG  1  15  -1
M  END
$$$$
default_name
  -OEChem-02102213163D

 24 23  0     1  0  0  0  0  0999 V2000
   -2.8347   -3.7166    0.8034 H   0  0  0  0  0  0  0  0  0  0  0  0
   -2.7728   -2.7096    0.3954 C   0  0  0  0  0  0  0  0  0  0  0  0
   -3.4267   -2.0426    0.9524 H   0  0  0  0  0  0  0  0  0  0  0  0
   -3.0538   -2.7186   -0.6556 H   0  0  0  0  0  0  0  0  0  0  0  0
   -1.3498   -2.2206    0.5184 C   0  0  0  0  0  0  0  0  0  0  0  0
   -0.4997   -2.9426    1.0194 O   0  0  0  0  0  0  0  0  0  0  0  0
   -1.1198   -0.9926    0.0674 N   0  0  0  0  0  0  0  0  0  0  0  0
   -1.8978   -0.4486   -0.2716 H   0  0  0  0  0  0  0  0  0  0  0  0
    0.1693   -0.2866    0.0854 C   0  0  1  0  0  0  0  0  0  0  0  0
    0.8425   -0.7905    0.7811 H   0  0  0  0  0  0  0  0  0  0  0  0
    0.7993   -0.3404   -1.3233 C   0  0  0  0  0  0  0  0  0  0  0  0
    0.0314   -0.6383   -2.0393 H   0  0  0  0  0  0  0  0  0  0  0  0
    1.1379    0.6616   -1.5958 H   0  0  0  0  0  0  0  0  0  0  0  0
    1.9704   -1.3258   -1.4608 C   0  0  0  0  0  0  0  0  0  0  0  0
    2.6829   -1.5538   -0.4548 O   0  5  0  0  0  0  0  0  0  0  0  0
    2.1558   -1.8327   -2.5881 O   0  0  0  0  0  0  0  0  0  0  0  0
   -0.0374    1.1645    0.5781 C   0  0  0  0  0  0  0  0  0  0  0  0
   -0.9816    1.8416    0.1544 O   0  0  0  0  0  0  0  0  0  0  0  0
    0.8235    1.6462    1.4801 N   0  0  0  0  0  0  0  0  0  0  0  0
    1.6183    1.0435    1.7020 H   0  0  0  0  0  0  0  0  0  0  0  0
    0.7895    2.9929    2.0404 C   0  0  0  0  0  0  0  0  0  0  0  0
   -0.2344    3.2522    2.3130 H   0  0  0  0  0  0  0  0  0  0  0  0
    1.4265    3.0377    2.9233 H   0  0  0  0  0  0  0  0  0  0  0  0
    1.1511    3.7014    1.2950 H   0  0  0  0  0  0  0  0  0  0  0  0
  5  6  2  0  0  0  0
  5  7  1  0  0  0  0
  2  3  1  0  0  0  0
  2  4  1  0  0  0  0
  2  5  1  0  0  0  0
  1  2  1  0  0  0  0
 17 18  2  0  0  0  0
 17 19  1  0  0  0  0
 14 15  1  0  0  0  0
 14 16  2  0  0  0  0
 11 12  1  0  0  0  0
 11 13  1  0  0  0  0
 11 14  1  0  0  0  0
  9 10  1  0  0  0  0
  9 11  1  0  0  0  0
  9 17  1  0  0  0  0
  7  8  1  0  0  0  0
  7  9  1  0  0  0  0
 21 22  1  0  0  0  0
 21 23  1  0  0  0  0
 21 24  1  0  0  0  0
 19 20  1  0  0  0  0
 19 21  1  0  0  0  0
M  CHG  1  15  -1
M  END
$$$$
default_name
  -OEChem-02102213163D

 24 23  0     1  0  0  0  0  0999 V2000
   -2.8347   -3.7166    0.8034 H   0  0  0  0  0  0  0  0  0  0  0  0
   -2.7728   -2.7096    0.3954 C   0  0  0  0  0  0  0  0  0  0  0  0
   -3.4267   -2.0426    0.9524 H   0  0  0  0  0  0  0  0  0  0  0  0
   -3.0538   -2.7186   -0.6556 H   0  0  0  0  0  0  0  0  0  0  0  0
   -1.3498   -2.2206    0.5184 C   0  0  0  0  0  0  0  0  0  0  0  0
   -0.4997   -2.9426    1.0194 O   0  0  0  0  0  0  0  0  0  0  0  0
   -1.1198   -0.9926    0.0674 N   0  0  0  0  0  0  0  0  0  0  0  0
   -1.8978   -0.4486   -0.2716 H   0  0  0  0  0  0  0  0  0  0  0  0
    0.1693   -0.2866    0.0854 C   0  0  1  0  0  0  0  0  0  0  0  0
    0.8425   -0.7905    0.7811 H   0  0  0  0  0  0  0  0  0  0  0  0
    0.7993   -0.3404   -1.3233 C   0  0  0  0  0  0  0  0  0  0  0  0
    0.0314   -0.6383   -2.0393 H   0  0  0  0  0  0  0  0  0  0  0  0
    1.1379    0.6616   -1.5958 H   0  0  0  0  0  0  0  0  0  0  0  0
    1.9704   -1.3258   -1.4608 C   0  0  0  0  0  0  0  0  0  0  0  0
    2.5019   -1.7740   -0.4176 O   0  5  0  0  0  0  0  0  0  0  0  0
    2.3396   -1.6098   -2.6207 O   0  0  0  0  0  0  0  0  0  0  0  0
   -0.0374    1.1645    0.5781 C   0  0  0  0  0  0  0  0  0  0  0  0
   -0.9816    1.8416    0.1544 O   0  0  0  0  0  0  0  0  0  0  0  0
    0.8235    1.6462    1.4801 N   0  0  0  0  0  0  0  0  0  0  0  0
    1.6183    1.0435    1.7020 H   0  0  0  0  0  0  0  0  0  0  0  0
    0.7895    2.9929    2.0404 C   0  0  0  0  0  0  0  0  0  0  0  0
   -0.2344    3.2522    2.3130 H   0  0  0  0  0  0  0  0  0  0  0  0
    1.4265    3.0377    2.9233 H   0  0  0  0  0  0  0  0  0  0  0  0
    1.1511    3.7014    1.2950 H   0  0  0  0  0  0  0  0  0  0  0  0
  5  6  2  0  0  0  0
  5  7  1  0  0  0  0
  2  3  1  0  0  0  0
  2  4  1  0  0  0  0
  2  5  1  0  0  0  0
  1  2  1  0  0  0  0
 17 18  2  0  0  0  0
 17 19  1  0  0  0  0
 14 15  1  0  0  0  0
 14 16  2  0  0  0  0
 11 12  1  0  0  0  0
 11 13  1  0  0  0  0
 11 14  1  0  0  0  0
  9 10  1  0  0  0  0
  9 11  1  0  0  0  0
  9 17  1  0  0  0  0
  7  8  1  0  0  0  0
  7  9  1  0  0  0  0
 21 22  1  0  0  0  0
 21 23  1  0  0  0  0
 21 24  1  0  0  0  0
 19 20  1  0  0  0  0
 19 21  1  0  0  0  0
M  CHG  1  15  -1
M  END
$$$$
default_name
  -OEChem-02102213163D

 24 23  0     1  0  0  0  0  0999 V2000
   -2.8347   -3.7166    0.8034 H   0  0  0  0  0  0  0  0  0  0  0  0
   -2.7728   -2.7096    0.3954 C   0  0  0  0  0  0  0  0  0  0  0  0
   -3.4267   -2.0426    0.9524 H   0  0  0  0  0  0  0  0  0  0  0  0
   -3.0538   -2.7186   -0.6556 H   0  0  0  0  0  0  0  0  0  0  0  0
   -1.3498   -2.2206    0.5184 C   0  0  0  0  0  0  0  0  0  0  0  0
   -0.4997   -2.9426    1.0194 O   0  0  0  0  0  0  0  0  0  0  0  0
   -1.1198   -0.9926    0.0674 N   0  0  0  0  0  0  0  0  0  0  0  0
   -1.8978   -0.4486   -0.2716 H   0  0  0  0  0  0  0  0  0  0  0  0
    0.1693   -0.2866    0.0854 C   0  0  1  0  0  0  0  0  0  0  0  0
    0.8425   -0.7905    0.7811 H   0  0  0  0  0  0  0  0  0  0  0  0
    0.7993   -0.3404   -1.3233 C   0  0  0  0  0  0  0  0  0  0  0  0
    0.0314   -0.6383   -2.0393 H   0  0  0  0  0  0  0  0  0  0  0  0
    1.1379    0.6616   -1.5958 H   0  0  0  0  0  0  0  0  0  0  0  0
    1.9704   -1.3258   -1.4608 C   0  0  0  0  0  0  0  0  0  0  0  0
    2.3158   -1.9899   -0.4552 O   0  5  0  0  0  0  0  0  0  0  0  0
    2.5277   -1.3923   -2.5776 O   0  0  0  0  0  0  0  0  0  0  0  0
   -0.0374    1.1645    0.5781 C   0  0  0  0  0  0  0  0  0  0  0  0
   -0.9816    1.8416    0.1544 O   0  0  0  0  0  0  0  0  0  0  0  0
    0.8235    1.6462    1.4801 N   0  0  0  0  0  0  0  0  0  0  0  0
    1.6183    1.0435    1.7020 H   0  0  0  0  0  0  0  0  0  0  0  0
    0.7895    2.9929    2.0404 C   0  0  0  0  0  0  0  0  0  0  0  0
   -0.2344    3.2522    2.3130 H   0  0  0  0  0  0  0  0  0  0  0  0
    1.4265    3.0377    2.9233 H   0  0  0  0  0  0  0  0  0  0  0  0
    1.1511    3.7014    1.2950 H   0  0  0  0  0  0  0  0  0  0  0  0
  5  6  2  0  0  0  0
  5  7  1  0  0  0  0
  2  3  1  0  0  0  0
  2  4  1  0  0  0  0
  2  5  1  0  0  0  0
  1  2  1  0  0  0  0
 17 18  2  0  0  0  0
 17 19  1  0  0  0  0
 14 15  1  0  0  0  0
 14 16  2  0  0  0  0
 11 12  1  0  0  0  0
 11 13  1  0  0  0  0
 11 14  1  0  0  0  0
  9 10  1  0  0  0  0
  9 11  1  0  0  0  0
  9 17  1  0  0  0  0
  7  8  1  0  0  0  0
  7  9  1  0  0  0  0
 21 22  1  0  0  0  0
 21 23  1  0  0  0  0
 21 24  1  0  0  0  0
 19 20  1  0  0  0  0
 19 21  1  0  0  0  0
M  CHG  1  15  -1
M  END
$$$$
default_name
  -OEChem-02102213163D

 24 23  0     1  0  0  0  0  0999 V2000
   -2.8347   -3.7166    0.8034 H   0  0  0  0  0  0  0  0  0  0  0  0
   -2.7728   -2.7096    0.3954 C   0  0  0  0  0  0  0  0  0  0  0  0
   -3.4267   -2.0426    0.9524 H   0  0  0  0  0  0  0  0  0  0  0  0
   -3.0538   -2.7186   -0.6556 H   0  0  0  0  0  0  0  0  0  0  0  0
   -1.3498   -2.2206    0.5184 C   0  0  0  0  0  0  0  0  0  0  0  0
   -0.4997   -2.9426    1.0194 O   0  0  0  0  0  0  0  0  0  0  0  0
   -1.1198   -0.9926    0.0674 N   0  0  0  0  0  0  0  0  0  0  0  0
   -1.8978   -0.4486   -0.2716 H   0  0  0  0  0  0  0  0  0  0  0  0
    0.1693   -0.2866    0.0854 C   0  0  1  0  0  0  0  0  0  0  0  0
    0.8425   -0.7905    0.7811 H   0  0  0  0  0  0  0  0  0  0  0  0
    0.7993   -0.3404   -1.3233 C   0  0  0  0  0  0  0  0  0  0  0  0
    0.0314   -0.6383   -2.0393 H   0  0  0  0  0  0  0  0  0  0  0  0
    1.1379    0.6616   -1.5958 H   0  0  0  0  0  0  0  0  0  0  0  0
    1.9704   -1.3258   -1.4608 C   0  0  0  0  0  0  0  0  0  0  0  0
    2.1373   -2.1867   -0.5650 O   0  5  0  0  0  0  0  0  0  0  0  0
    2.7072   -1.1951   -2.4619 O   0  0  0  0  0  0  0  0  0  0  0  0
   -0.0374    1.1645    0.5781 C   0  0  0  0  0  0  0  0  0  0  0  0
   -0.9816    1.8416    0.1544 O   0  0  0  0  0  0  0  0  0  0  0  0
    0.8235    1.6462    1.4801 N   0  0  0  0  0  0  0  0  0  0  0  0
    1.6183    1.0435    1.7020 H   0  0  0  0  0  0  0  0  0  0  0  0
    0.7895    2.9929    2.0404 C   0  0  0  0  0  0  0  0  0  0  0  0
   -0.2344    3.2522    2.3130 H   0  0  0  0  0  0  0  0  0  0  0  0
    1.4265    3.0377    2.9233 H   0  0  0  0  0  0  0  0  0  0  0  0
    1.1511    3.7014    1.2950 H   0  0  0  0  0  0  0  0  0  0  0  0
  5  6  2  0  0  0  0
  5  7  1  0  0  0  0
  2  3  1  0  0  0  0
  2  4  1  0  0  0  0
  2  5  1  0  0  0  0
  1  2  1  0  0  0  0
 17 18  2  0  0  0  0
 17 19  1  0  0  0  0
 14 15  1  0  0  0  0
 14 16  2  0  0  0  0
 11 12  1  0  0  0  0
 11 13  1  0  0  0  0
 11 14  1  0  0  0  0
  9 10  1  0  0  0  0
  9 11  1  0  0  0  0
  9 17  1  0  0  0  0
  7  8  1  0  0  0  0
  7  9  1  0  0  0  0
 21 22  1  0  0  0  0
 21 23  1  0  0  0  0
 21 24  1  0  0  0  0
 19 20  1  0  0  0  0
 19 21  1  0  0  0  0
M  CHG  1  15  -1
M  END
$$$$
default_name
  -OEChem-02102213163D

 24 23  0     1  0  0  0  0  0999 V2000
   -2.8347   -3.7166    0.8034 H   0  0  0  0  0  0  0  0  0  0  0  0
   -2.7728   -2.7096    0.3954 C   0  0  0  0  0  0  0  0  0  0  0  0
   -3.4267   -2.0426    0.9524 H   0  0  0  0  0  0  0  0  0  0  0  0
   -3.0538   -2.7186   -0.6556 H   0  0  0  0  0  0  0  0  0  0  0  0
   -1.3498   -2.2206    0.5184 C   0  0  0  0  0  0  0  0  0  0  0  0
   -0.4997   -2.9426    1.0194 O   0  0  0  0  0  0  0  0  0  0  0  0
   -1.1198   -0.9926    0.0674 N   0  0  0  0  0  0  0  0  0  0  0  0
   -1.8978   -0.4486   -0.2716 H   0  0  0  0  0  0  0  0  0  0  0  0
    0.1693   -0.2866    0.0854 C   0  0  1  0  0  0  0  0  0  0  0  0
    0.8425   -0.7905    0.7811 H   0  0  0  0  0  0  0  0  0  0  0  0
    0.7993   -0.3404   -1.3233 C   0  0  0  0  0  0  0  0  0  0  0  0
    0.0314   -0.6383   -2.0393 H   0  0  0  0  0  0  0  0  0  0  0  0
    1.1379    0.6616   -1.5958 H   0  0  0  0  0  0  0  0  0  0  0  0
    1.9704   -1.3258   -1.4608 C   0  0  0  0  0  0  0  0  0  0  0  0
    1.9785   -2.3510   -0.7394 O   0  5  0  0  0  0  0  0  0  0  0  0
    2.8660   -1.0316   -2.2815 O   0  0  0  0  0  0  0  0  0  0  0  0
   -0.0374    1.1645    0.5781 C   0  0  0  0  0  0  0  0  0  0  0  0
   -0.9816    1.8416    0.1544 O   0  0  0  0  0  0  0  0  0  0  0  0
    0.8235    1.6462    1.4801 N   0  0  0  0  0  0  0  0  0  0  0  0
    1.6183    1.0435    1.7020 H   0  0  0  0  0  0  0  0  0  0  0  0
    0.7895    2.9929    2.0404 C   0  0  0  0  0  0  0  0  0  0  0  0
   -0.2344    3.2522    2.3130 H   0  0  0  0  0  0  0  0  0  0  0  0
    1.4265    3.0377    2.9233 H   0  0  0  0  0  0  0  0  0  0  0  0
    1.1511    3.7014    1.2950 H   0  0  0  0  0  0  0  0  0  0  0  0
  5  6  2  0  0  0  0
  5  7  1  0  0  0  0
  2  3  1  0  0  0  0
  2  4  1  0  0  0  0
  2  5  1  0  0  0  0
  1  2  1  0  0  0  0
 17 18  2  0  0  0  0
 17 19  1  0  0  0  0
 14 15  1  0  0  0  0
 14 16  2  0  0  0  0
 11 12  1  0  0  0  0
 11 13  1  0  0  0  0
 11 14  1  0  0  0  0
  9 10  1  0  0  0  0
  9 11  1  0  0  0  0
  9 17  1  0  0  0  0
  7  8  1  0  0  0  0
  7  9  1  0  0  0  0
 21 22  1  0  0  0  0
 21 23  1  0  0  0  0
 21 24  1  0  0  0  0
 19 20  1  0  0  0  0
 19 21  1  0  0  0  0
M  CHG  1  15  -1
M  END
$$$$
default_name
  -OEChem-02102213163D

 24 23  0     1  0  0  0  0  0999 V2000
   -2.8347   -3.7166    0.8034 H   0  0  0  0  0  0  0  0  0  0  0  0
   -2.7728   -2.7096    0.3954 C   0  0  0  0  0  0  0  0  0  0  0  0
   -3.4267   -2.0426    0.9524 H   0  0  0  0  0  0  0  0  0  0  0  0
   -3.0538   -2.7186   -0.6556 H   0  0  0  0  0  0  0  0  0  0  0  0
   -1.3498   -2.2206    0.5184 C   0  0  0  0  0  0  0  0  0  0  0  0
   -0.4997   -2.9426    1.0194 O   0  0  0  0  0  0  0  0  0  0  0  0
   -1.1198   -0.9926    0.0674 N   0  0  0  0  0  0  0  0  0  0  0  0
   -1.8978   -0.4486   -0.2716 H   0  0  0  0  0  0  0  0  0  0  0  0
    0.1693   -0.2866    0.0854 C   0  0  1  0  0  0  0  0  0  0  0  0
    0.8425   -0.7905    0.7811 H   0  0  0  0  0  0  0  0  0  0  0  0
    0.7993   -0.3404   -1.3233 C   0  0  0  0  0  0  0  0  0  0  0  0
    0.0314   -0.6383   -2.0393 H   0  0  0  0  0  0  0  0  0  0  0  0
    1.1379    0.6616   -1.5958 H   0  0  0  0  0  0  0  0  0  0  0  0
    1.9704   -1.3258   -1.4608 C   0  0  0  0  0  0  0  0  0  0  0  0
    1.8503   -2.4717   -0.9667 O   0  5  0  0  0  0  0  0  0  0  0  0
    2.9933   -0.9129   -2.0486 O   0  0  0  0  0  0  0  0  0  0  0  0
   -0.0374    1.1645    0.5781 C   0  0  0  0  0  0  0  0  0  0  0  0
   -0.9816    1.8416    0.1544 O   0  0  0  0  0  0  0  0  0  0  0  0
    0.8235    1.6462    1.4801 N   0  0  0  0  0  0  0  0  0  0  0  0
    1.6183    1.0435    1.7020 H   0  0  0  0  0  0  0  0  0  0  0  0
    0.7895    2.9929    2.0404 C   0  0  0  0  0  0  0  0  0  0  0  0
   -0.2344    3.2522    2.3130 H   0  0  0  0  0  0  0  0  0  0  0  0
    1.4265    3.0377    2.9233 H   0  0  0  0  0  0  0  0  0  0  0  0
    1.1511    3.7014    1.2950 H   0  0  0  0  0  0  0  0  0  0  0  0
  5  6  2  0  0  0  0
  5  7  1  0  0  0  0
  2  3  1  0  0  0  0
  2  4  1  0  0  0  0
  2  5  1  0  0  0  0
  1  2  1  0  0  0  0
 17 18  2  0  0  0  0
 17 19  1  0  0  0  0
 14 15  1  0  0  0  0
 14 16  2  0  0  0  0
 11 12  1  0  0  0  0
 11 13  1  0  0  0  0
 11 14  1  0  0  0  0
  9 10  1  0  0  0  0
  9 11  1  0  0  0  0
  9 17  1  0  0  0  0
  7  8  1  0  0  0  0
  7  9  1  0  0  0  0
 21 22  1  0  0  0  0
 21 23  1  0  0  0  0
 21 24  1  0  0  0  0
 19 20  1  0  0  0  0
 19 21  1  0  0  0  0
M  CHG  1  15  -1
M  END
$$$$
default_name
  -OEChem-02102213163D

 24 23  0     1  0  0  0  0  0999 V2000
   -2.8347   -3.7166    0.8034 H   0  0  0  0  0  0  0  0  0  0  0  0
   -2.7728   -2.7096    0.3954 C   0  0  0  0  0  0  0  0  0  0  0  0
   -3.4267   -2.0426    0.9524 H   0  0  0  0  0  0  0  0  0  0  0  0
   -3.0538   -2.7186   -0.6556 H   0  0  0  0  0  0  0  0  0  0  0  0
   -1.3498   -2.2206    0.5184 C   0  0  0  0  0  0  0  0  0  0  0  0
   -0.4997   -2.9426    1.0194 O   0  0  0  0  0  0  0  0  0  0  0  0
   -1.1198   -0.9926    0.0674 N   0  0  0  0  0  0  0  0  0  0  0  0
   -1.8978   -0.4486   -0.2716 H   0  0  0  0  0  0  0  0  0  0  0  0
    0.1693   -0.2866    0.0854 C   0  0  1  0  0  0  0  0  0  0  0  0
    0.8425   -0.7905    0.7811 H   0  0  0  0  0  0  0  0  0  0  0  0
    0.7993   -0.3404   -1.3233 C   0  0  0  0  0  0  0  0  0  0  0  0
    0.0314   -0.6383   -2.0393 H   0  0  0  0  0  0  0  0  0  0  0  0
    1.1379    0.6616   -1.5958 H   0  0  0  0  0  0  0  0  0  0  0  0
    1.9704   -1.3258   -1.4608 C   0  0  0  0  0  0  0  0  0  0  0  0
    1.7614   -2.5404   -1.2313 O   0  5  0  0  0  0  0  0  0  0  0  0
    3.0803   -0.8471   -1.7791 O   0  0  0  0  0  0  0  0  0  0  0  0
   -0.0374    1.1645    0.5781 C   0  0  0  0  0  0  0  0  0  0  0  0
   -0.9816    1.8416    0.1544 O   0  0  0  0  0  0  0  0  0  0  0  0
    0.8235    1.6462    1.4801 N   0  0  0  0  0  0  0  0  0  0  0  0
    1.6183    1.0435    1.7020 H   0  0  0  0  0  0  0  0  0  0  0  0
    0.7895    2.9929    2.0404 C   0  0  0  0  0  0  0  0  0  0  0  0
   -0.2344    3.2522    2.3130 H   0  0  0  0  0  0  0  0  0  0  0  0
    1.4265    3.0377    2.9233 H   0  0  0  0  0  0  0  0  0  0  0  0
    1.1511    3.7014    1.2950 H   0  0  0  0  0  0  0  0  0  0  0  0
  5  6  2  0  0  0  0
  5  7  1  0  0  0  0
  2  3  1  0  0  0  0
  2  4  1  0  0  0  0
  2  5  1  0  0  0  0
  1  2  1  0  0  0  0
 17 18  2  0  0  0  0
 17 19  1  0  0  0  0
 14 15  1  0  0  0  0
 14 16  2  0  0  0  0
 11 12  1  0  0  0  0
 11 13  1  0  0  0  0
 11 14  1  0  0  0  0
  9 10  1  0  0  0  0
  9 11  1  0  0  0  0
  9 17  1  0  0  0  0
  7  8  1  0  0  0  0
  7  9  1  0  0  0  0
 21 22  1  0  0  0  0
 21 23  1  0  0  0  0
 21 24  1  0  0  0  0
 19 20  1  0  0  0  0
 19 21  1  0  0  0  0
M  CHG  1  15  -1
M  END
$$$$
default_name
  -OEChem-02102213163D

 24 23  0     1  0  0  0  0  0999 V2000
   -2.8347   -3.7166    0.8034 H   0  0  0  0  0  0  0  0  0  0  0  0
   -2.7728   -2.7096    0.3954 C   0  0  0  0  0  0  0  0  0  0  0  0
   -3.4267   -2.0426    0.9524 H   0  0  0  0  0  0  0  0  0  0  0  0
   -3.0538   -2.7186   -0.6556 H   0  0  0  0  0  0  0  0  0  0  0  0
   -1.3498   -2.2206    0.5184 C   0  0  0  0  0  0  0  0  0  0  0  0
   -0.4997   -2.9426    1.0194 O   0  0  0  0  0  0  0  0  0  0  0  0
   -1.1198   -0.9926    0.0674 N   0  0  0  0  0  0  0  0  0  0  0  0
   -1.8978   -0.4486   -0.2716 H   0  0  0  0  0  0  0  0  0  0  0  0
    0.1693   -0.2866    0.0854 C   0  0  1  0  0  0  0  0  0  0  0  0
    0.8425   -0.7905    0.7811 H   0  0  0  0  0  0  0  0  0  0  0  0
    0.7993   -0.3404   -1.3233 C   0  0  0  0  0  0  0  0  0  0  0  0
    0.0314   -0.6383   -2.0393 H   0  0  0  0  0  0  0  0  0  0  0  0
    1.1379    0.6616   -1.5958 H   0  0  0  0  0  0  0  0  0  0  0  0
    1.9704   -1.3258   -1.4608 C   0  0  0  0  0  0  0  0  0  0  0  0
    1.7178   -2.5525   -1.5152 O   0  5  0  0  0  0  0  0  0  0  0  0
    3.1211   -0.8388   -1.4913 O   0  0  0  0  0  0  0  0  0  0  0  0
   -0.0374    1.1645    0.5781 C   0  0  0  0  0  0  0  0  0  0  0  0
   -0.9816    1.8416    0.1544 O   0  0  0  0  0  0  0  0  0  0  0  0
    0.8235    1.6462    1.4801 N   0  0  0  0  0  0  0  0  0  0  0  0
    1.6183    1.0435    1.7020 H   0  0  0  0  0  0  0  0  0  0  0  0
    0.7895    2.9929    2.0404 C   0  0  0  0  0  0  0  0  0  0  0  0
   -0.2344    3.2522    2.3130 H   0  0  0  0  0  0  0  0  0  0  0  0
    1.4265    3.0377    2.9233 H   0  0  0  0  0  0  0  0  0  0  0  0
    1.1511    3.7014    1.2950 H   0  0  0  0  0  0  0  0  0  0  0  0
  5  6  2  0  0  0  0
  5  7  1  0  0  0  0
  2  3  1  0  0  0  0
  2  4  1  0  0  0  0
  2  5  1  0  0  0  0
  1  2  1  0  0  0  0
 17 18  2  0  0  0  0
 17 19  1  0  0  0  0
 14 15  1  0  0  0  0
 14 16  2  0  0  0  0
 11 12  1  0  0  0  0
 11 13  1  0  0  0  0
 11 14  1  0  0  0  0
  9 10  1  0  0  0  0
  9 11  1  0  0  0  0
  9 17  1  0  0  0  0
  7  8  1  0  0  0  0
  7  9  1  0  0  0  0
 21 22  1  0  0  0  0
 21 23  1  0  0  0  0
 21 24  1  0  0  0  0
 19 20  1  0  0  0  0
 19 21  1  0  0  0  0
M  CHG  1  15  -1
M  END
$$$$
default_name
  -OEChem-02102213163D

 24 23  0     1  0  0  0  0  0999 V2000
   -2.8347   -3.7166    0.8034 H   0  0  0  0  0  0  0  0  0  0  0  0
   -2.7728   -2.7096    0.3954 C   0  0  0  0  0  0  0  0  0  0  0  0
   -3.4267   -2.0426    0.9524 H   0  0  0  0  0  0  0  0  0  0  0  0
   -3.0538   -2.7186   -0.6556 H   0  0  0  0  0  0  0  0  0  0  0  0
   -1.3498   -2.2206    0.5184 C   0  0  0  0  0  0  0  0  0  0  0  0
   -0.4997   -2.9426    1.0194 O   0  0  0  0  0  0  0  0  0  0  0  0
   -1.1198   -0.9926    0.0674 N   0  0  0  0  0  0  0  0  0  0  0  0
   -1.8978   -0.4486   -0.2716 H   0  0  0  0  0  0  0  0  0  0  0  0
    0.1693   -0.2866    0.0854 C   0  0  1  0  0  0  0  0  0  0  0  0
    0.8425   -0.7905    0.7811 H   0  0  0  0  0  0  0  0  0  0  0  0
    0.7993   -0.3404   -1.3233 C   0  0  0  0  0  0  0  0  0  0  0  0
    0.0314   -0.6383   -2.0393 H   0  0  0  0  0  0  0  0  0  0  0  0
    1.1379    0.6616   -1.5958 H   0  0  0  0  0  0  0  0  0  0  0  0
    1.9704   -1.3258   -1.4608 C   0  0  0  0  0  0  0  0  0  0  0  0
    1.7226   -2.5072   -1.7991 O   0  5  0  0  0  0  0  0  0  0  0  0
    3.1129   -0.8884   -1.2050 O   0  0  0  0  0  0  0  0  0  0  0  0
   -0.0374    1.1645    0.5781 C   0  0  0  0  0  0  0  0  0  0  0  0
   -0.9816    1.8416    0.1544 O   0  0  0  0  0  0  0  0  0  0  0  0
    0.8235    1.6462    1.4801 N   0  0  0  0  0  0  0  0  0  0  0  0
    1.6183    1.0435    1.7020 H   0  0  0  0  0  0  0  0  0  0  0  0
    0.7895    2.9929    2.0404 C   0  0  0  0  0  0  0  0  0  0  0  0
   -0.2344    3.2522    2.3130 H   0  0  0  0  0  0  0  0  0  0  0  0
    1.4265    3.0377    2.9233 H   0  0  0  0  0  0  0  0  0  0  0  0
    1.1511    3.7014    1.2950 H   0  0  0  0  0  0  0  0  0  0  0  0
  5  6  2  0  0  0  0
  5  7  1  0  0  0  0
  2  3  1  0  0  0  0
  2  4  1  0  0  0  0
  2  5  1  0  0  0  0
  1  2  1  0  0  0  0
 17 18  2  0  0  0  0
 17 19  1  0  0  0  0
 14 15  1  0  0  0  0
 14 16  2  0  0  0  0
 11 12  1  0  0  0  0
 11 13  1  0  0  0  0
 11 14  1  0  0  0  0
  9 10  1  0  0  0  0
  9 11  1  0  0  0  0
  9 17  1  0  0  0  0
  7  8  1  0  0  0  0
  7  9  1  0  0  0  0
 21 22  1  0  0  0  0
 21 23  1  0  0  0  0
 21 24  1  0  0  0  0
 19 20  1  0  0  0  0
 19 21  1  0  0  0  0
M  CHG  1  15  -1
M  END
$$$$
default_name
  -OEChem-02102213163D

 24 23  0     1  0  0  0  0  0999 V2000
   -2.8347   -3.7166    0.8034 H   0  0  0  0  0  0  0  0  0  0  0  0
   -2.7728   -2.7096    0.3954 C   0  0  0  0  0  0  0  0  0  0  0  0
   -3.4267   -2.0426    0.9524 H   0  0  0  0  0  0  0  0  0  0  0  0
   -3.0538   -2.7186   -0.6556 H   0  0  0  0  0  0  0  0  0  0  0  0
   -1.3498   -2.2206    0.5184 C   0  0  0  0  0  0  0  0  0  0  0  0
   -0.4997   -2.9426    1.0194 O   0  0  0  0  0  0  0  0  0  0  0  0
   -1.1198   -0.9926    0.0674 N   0  0  0  0  0  0  0  0  0  0  0  0
   -1.8978   -0.4486   -0.2716 H   0  0  0  0  0  0  0  0  0  0  0  0
    0.1693   -0.2866    0.0854 C   0  0  1  0  0  0  0  0  0  0  0  0
    0.8425   -0.7905    0.7811 H   0  0  0  0  0  0  0  0  0  0  0  0
    0.7993   -0.3404   -1.3233 C   0  0  0  0  0  0  0  0  0  0  0  0
    0.0314   -0.6383   -2.0393 H   0  0  0  0  0  0  0  0  0  0  0  0
    1.1379    0.6616   -1.5958 H   0  0  0  0  0  0  0  0  0  0  0  0
    1.9704   -1.3258   -1.4608 C   0  0  0  0  0  0  0  0  0  0  0  0
    1.7754   -2.4076   -2.0635 O   0  5  0  0  0  0  0  0  0  0  0  0
    3.0564   -0.9927   -0.9395 O   0  0  0  0  0  0  0  0  0  0  0  0
   -0.0374    1.1645    0.5781 C   0  0  0  0  0  0  0  0  0  0  0  0
   -0.9816    1.8416    0.1544 O   0  0  0  0  0  0  0  0  0  0  0  0
    0.8235    1.6462    1.4801 N   0  0  0  0  0  0  0  0  0  0  0  0
    1.6183    1.0435    1.7020 H   0  0  0  0  0  0  0  0  0  0  0  0
    0.7895    2.9929    2.0404 C   0  0  0  0  0  0  0  0  0  0  0  0
   -0.2344    3.2522    2.3130 H   0  0  0  0  0  0  0  0  0  0  0  0
    1.4265    3.0377    2.9233 H   0  0  0  0  0  0  0  0  0  0  0  0
    1.1511    3.7014    1.2950 H   0  0  0  0  0  0  0  0  0  0  0  0
  5  6  2  0  0  0  0
  5  7  1  0  0  0  0
  2  3  1  0  0  0  0
  2  4  1  0  0  0  0
  2  5  1  0  0  0  0
  1  2  1  0  0  0  0
 17 18  2  0  0  0  0
 17 19  1  0  0  0  0
 14 15  1  0  0  0  0
 14 16  2  0  0  0  0
 11 12  1  0  0  0  0
 11 13  1  0  0  0  0
 11 14  1  0  0  0  0
  9 10  1  0  0  0  0
  9 11  1  0  0  0  0
  9 17  1  0  0  0  0
  7  8  1  0  0  0  0
  7  9  1  0  0  0  0
 21 22  1  0  0  0  0
 21 23  1  0  0  0  0
 21 24  1  0  0  0  0
 19 20  1  0  0  0  0
 19 21  1  0  0  0  0
M  CHG  1  15  -1
M  END
$$$$
default_name
  -OEChem-02102213163D

 24 23  0     1  0  0  0  0  0999 V2000
   -2.8347   -3.7166    0.8034 H   0  0  0  0  0  0  0  0  0  0  0  0
   -2.7728   -2.7096    0.3954 C   0  0  0  0  0  0  0  0  0  0  0  0
   -3.4267   -2.0426    0.9524 H   0  0  0  0  0  0  0  0  0  0  0  0
   -3.0538   -2.7186   -0.6556 H   0  0  0  0  0  0  0  0  0  0  0  0
   -1.3498   -2.2206    0.5184 C   0  0  0  0  0  0  0  0  0  0  0  0
   -0.4997   -2.9426    1.0194 O   0  0  0  0  0  0  0  0  0  0  0  0
   -1.1198   -0.9926    0.0674 N   0  0  0  0  0  0  0  0  0  0  0  0
   -1.8978   -0.4486   -0.2716 H   0  0  0  0  0  0  0  0  0  0  0  0
    0.1693   -0.2866    0.0854 C   0  0  1  0  0  0  0  0  0  0  0  0
    0.8425   -0.7905    0.7811 H   0  0  0  0  0  0  0  0  0  0  0  0
    0.7993   -0.3404   -1.3233 C   0  0  0  0  0  0  0  0  0  0  0  0
    0.0314   -0.6383   -2.0393 H   0  0  0  0  0  0  0  0  0  0  0  0
    1.1379    0.6616   -1.5958 H   0  0  0  0  0  0  0  0  0  0  0  0
    1.9704   -1.3258   -1.4608 C   0  0  0  0  0  0  0  0  0  0  0  0
    1.8725   -2.2605   -2.2906 O   0  5  0  0  0  0  0  0  0  0  0  0
    2.9553   -1.1444   -0.7131 O   0  0  0  0  0  0  0  0  0  0  0  0
   -0.0374    1.1645    0.5781 C   0  0  0  0  0  0  0  0  0  0  0  0
   -0.9816    1.8416    0.1544 O   0  0  0  0  0  0  0  0  0  0  0  0
    0.8235    1.6462    1.4801 N   0  0  0  0  0  0  0  0  0  0  0  0
    1.6183    1.0435    1.7020 H   0  0  0  0  0  0  0  0  0  0  0  0
    0.7895    2.9929    2.0404 C   0  0  0  0  0  0  0  0  0  0  0  0
   -0.2344    3.2522    2.3130 H   0  0  0  0  0  0  0  0  0  0  0  0
    1.4265    3.0377    2.9233 H   0  0  0  0  0  0  0  0  0  0  0  0
    1.1511    3.7014    1.2950 H   0  0  0  0  0  0  0  0  0  0  0  0
  5  6  2  0  0  0  0
  5  7  1  0  0  0  0
  2  3  1  0  0  0  0
  2  4  1  0  0  0  0
  2  5  1  0  0  0  0
  1  2  1  0  0  0  0
 17 18  2  0  0  0  0
 17 19  1  0  0  0  0
 14 15  1  0  0  0  0
 14 16  2  0  0  0  0
 11 12  1  0  0  0  0
 11 13  1  0  0  0  0
 11 14  1  0  0  0  0
  9 10  1  0  0  0  0
  9 11  1  0  0  0  0
  9 17  1  0  0  0  0
  7  8  1  0  0  0  0
  7  9  1  0  0  0  0
 21 22  1  0  0  0  0
 21 23  1  0  0  0  0
 21 24  1  0  0  0  0
 19 20  1  0  0  0  0
 19 21  1  0  0  0  0
M  CHG  1  15  -1
M  END
$$$$
default_name
  -OEChem-02102213163D

 24 23  0     1  0  0  0  0  0999 V2000
   -2.8347   -3.7166    0.8034 H   0  0  0  0  0  0  0  0  0  0  0  0
   -2.7728   -2.7096    0.3954 C   0  0  0  0  0  0  0  0  0  0  0  0
   -3.4267   -2.0426    0.9524 H   0  0  0  0  0  0  0  0  0  0  0  0
   -3.0538   -2.7186   -0.6556 H   0  0  0  0  0  0  0  0  0  0  0  0
   -1.3498   -2.2206    0.5184 C   0  0  0  0  0  0  0  0  0  0  0  0
   -0.4997   -2.9426    1.0194 O   0  0  0  0  0  0  0  0  0  0  0  0
   -1.1198   -0.9926    0.0674 N   0  0  0  0  0  0  0  0  0  0  0  0
   -1.8978   -0.4486   -0.2716 H   0  0  0  0  0  0  0  0  0  0  0  0
    0.1693   -0.2866    0.0854 C   0  0  1  0  0  0  0  0  0  0  0  0
    0.8425   -0.7905    0.7811 H   0  0  0  0  0  0  0  0  0  0  0  0
    0.7993   -0.3404   -1.3233 C   0  0  0  0  0  0  0  0  0  0  0  0
    0.0314   -0.6383   -2.0393 H   0  0  0  0  0  0  0  0  0  0  0  0
    1.1379    0.6616   -1.5958 H   0  0  0  0  0  0  0  0  0  0  0  0
    1.9704   -1.3258   -1.4608 C   0  0  0  0  0  0  0  0  0  0  0  0
    2.0075   -2.0758   -2.4647 O   0  5  0  0  0  0  0  0  0  0  0  0
    2.8166   -1.3333   -0.5410 O   0  0  0  0  0  0  0  0  0  0  0  0
   -0.0374    1.1645    0.5781 C   0  0  0  0  0  0  0  0  0  0  0  0
   -0.9816    1.8416    0.1544 O   0  0  0  0  0  0  0  0  0  0  0  0
    0.8235    1.6462    1.4801 N   0  0  0  0  0  0  0  0  0  0  0  0
    1.6183    1.0435    1.7020 H   0  0  0  0  0  0  0  0  0  0  0  0
    0.7895    2.9929    2.0404 C   0  0  0  0  0  0  0  0  0  0  0  0
   -0.2344    3.2522    2.3130 H   0  0  0  0  0  0  0  0  0  0  0  0
    1.4265    3.0377    2.9233 H   0  0  0  0  0  0  0  0  0  0  0  0
    1.1511    3.7014    1.2950 H   0  0  0  0  0  0  0  0  0  0  0  0
  5  6  2  0  0  0  0
  5  7  1  0  0  0  0
  2  3  1  0  0  0  0
  2  4  1  0  0  0  0
  2  5  1  0  0  0  0
  1  2  1  0  0  0  0
 17 18  2  0  0  0  0
 17 19  1  0  0  0  0
 14 15  1  0  0  0  0
 14 16  2  0  0  0  0
 11 12  1  0  0  0  0
 11 13  1  0  0  0  0
 11 14  1  0  0  0  0
  9 10  1  0  0  0  0
  9 11  1  0  0  0  0
  9 17  1  0  0  0  0
  7  8  1  0  0  0  0
  7  9  1  0  0  0  0
 21 22  1  0  0  0  0
 21 23  1  0  0  0  0
 21 24  1  0  0  0  0
 19 20  1  0  0  0  0
 19 21  1  0  0  0  0
M  CHG  1  15  -1
M  END
$$$$
default_name
  -OEChem-02102213163D

 24 23  0     1  0  0  0  0  0999 V2000
   -2.8347   -3.7166    0.8034 H   0  0  0  0  0  0  0  0  0  0  0  0
   -2.7728   -2.7096    0.3954 C   0  0  0  0  0  0  0  0  0  0  0  0
   -3.4267   -2.0426    0.9524 H   0  0  0  0  0  0  0  0  0  0  0  0
   -3.0538   -2.7186   -0.6556 H   0  0  0  0  0  0  0  0  0  0  0  0
   -1.3498   -2.2206    0.5184 C   0  0  0  0  0  0  0  0  0  0  0  0
   -0.4997   -2.9426    1.0194 O   0  0  0  0  0  0  0  0  0  0  0  0
   -1.1198   -0.9926    0.0674 N   0  0  0  0  0  0  0  0  0  0  0  0
   -1.8978   -0.4486   -0.2716 H   0  0  0  0  0  0  0  0  0  0  0  0
    0.1693   -0.2866    0.0854 C   0  0  1  0  0  0  0  0  0  0  0  0
    0.8425   -0.7905    0.7811 H   0  0  0  0  0  0  0  0  0  0  0  0
    0.7993   -0.3404   -1.3233 C   0  0  0  0  0  0  0  0  0  0  0  0
    0.0314   -0.6383   -2.0393 H   0  0  0  0  0  0  0  0  0  0  0  0
    1.1379    0.6616   -1.5958 H   0  0  0  0  0  0  0  0  0  0  0  0
    1.9704   -1.3258   -1.4608 C   0  0  0  0  0  0  0  0  0  0  0  0
    2.1710   -1.8662   -2.5741 O   0  5  0  0  0  0  0  0  0  0  0  0
    2.6497   -1.5464   -0.4351 O   0  0  0  0  0  0  0  0  0  0  0  0
   -0.0374    1.1645    0.5781 C   0  0  0  0  0  0  0  0  0  0  0  0
   -0.9816    1.8416    0.1544 O   0  0  0  0  0  0  0  0  0  0  0  0
    0.8235    1.6462    1.4801 N   0  0  0  0  0  0  0  0  0  0  0  0
    1.6183    1.0435    1.7020 H   0  0  0  0  0  0  0  0  0  0  0  0
    0.7895    2.9929    2.0404 C   0  0  0  0  0  0  0  0  0  0  0  0
   -0.2344    3.2522    2.3130 H   0  0  0  0  0  0  0  0  0  0  0  0
    1.4265    3.0377    2.9233 H   0  0  0  0  0  0  0  0  0  0  0  0
    1.1511    3.7014    1.2950 H   0  0  0  0  0  0  0  0  0  0  0  0
  5  6  2  0  0  0  0
  5  7  1  0  0  0  0
  2  3  1  0  0  0  0
  2  4  1  0  0  0  0
  2  5  1  0  0  0  0
  1  2  1  0  0  0  0
 17 18  2  0  0  0  0
 17 19  1  0  0  0  0
 14 15  1  0  0  0  0
 14 16  2  0  0  0  0
 11 12  1  0  0  0  0
 11 13  1  0  0  0  0
 11 14  1  0  0  0  0
  9 10  1  0  0  0  0
  9 11  1  0  0  0  0
  9 17  1  0  0  0  0
  7  8  1  0  0  0  0
  7  9  1  0  0  0  0
 21 22  1  0  0  0  0
 21 23  1  0  0  0  0
 21 24  1  0  0  0  0
 19 20  1  0  0  0  0
 19 21  1  0  0  0  0
M  CHG  1  15  -1
M  END
$$$$
default_name
  -OEChem-02102213163D

 24 23  0     1  0  0  0  0  0999 V2000
   -2.8347   -3.7166    0.8034 H   0  0  0  0  0  0  0  0  0  0  0  0
   -2.7728   -2.7096    0.3954 C   0  0  0  0  0  0  0  0  0  0  0  0
   -3.4267   -2.0426    0.9524 H   0  0  0  0  0  0  0  0  0  0  0  0
   -3.0538   -2.7186   -0.6556 H   0  0  0  0  0  0  0  0  0  0  0  0
   -1.3498   -2.2206    0.5184 C   0  0  0  0  0  0  0  0  0  0  0  0
   -0.4997   -2.9426    1.0194 O   0  0  0  0  0  0  0  0  0  0  0  0
   -1.1198   -0.9926    0.0674 N   0  0  0  0  0  0  0  0  0  0  0  0
   -1.8978   -0.4486   -0.2716 H   0  0  0  0  0  0  0  0  0  0  0  0
    0.1693   -0.2866    0.0854 C   0  0  1  0  0  0  0  0  0  0  0  0
    0.8425   -0.7905    0.7811 H   0  0  0  0  0  0  0  0  0  0  0  0
    0.7993   -0.3404   -1.3233 C   0  0  0  0  0  0  0  0  0  0  0  0
    0.0314   -0.6383   -2.0393 H   0  0  0  0  0  0  0  0  0  0  0  0
    1.1379    0.6616   -1.5958 H   0  0  0  0  0  0  0  0  0  0  0  0
    1.9704   -1.3258   -1.4608 C   0  0  0  0  0  0  0  0  0  0  0  0
    2.3520   -1.6459   -2.6113 O   0  5  0  0  0  0  0  0  0  0  0  0
    2.4659   -1.7694   -0.4026 O   0  0  0  0  0  0  0  0  0  0  0  0
   -0.0374    1.1645    0.5781 C   0  0  0  0  0  0  0  0  0  0  0  0
   -0.9816    1.8416    0.1544 O   0  0  0  0  0  0  0  0  0  0  0  0
    0.8235    1.6462    1.4801 N   0  0  0  0  0  0  0  0  0  0  0  0
    1.6183    1.0435    1.7020 H   0  0  0  0  0  0  0  0  0  0  0  0
    0.7895    2.9929    2.0404 C   0  0  0  0  0  0  0  0  0  0  0  0
   -0.2344    3.2522    2.3130 H   0  0  0  0  0  0  0  0  0  0  0  0
    1.4265    3.0377    2.9233 H   0  0  0  0  0  0  0  0  0  0  0  0
    1.1511    3.7014    1.2950 H   0  0  0  0  0  0  0  0  0  0  0  0
  5  6  2  0  0  0  0
  5  7  1  0  0  0  0
  2  3  1  0  0  0  0
  2  4  1  0  0  0  0
  2  5  1  0  0  0  0
  1  2  1  0  0  0  0
 17 18  2  0  0  0  0
 17 19  1  0  0  0  0
 14 15  1  0  0  0  0
 14 16  2  0  0  0  0
 11 12  1  0  0  0  0
 11 13  1  0  0  0  0
 11 14  1  0  0  0  0
  9 10  1  0  0  0  0
  9 11  1  0  0  0  0
  9 17  1  0  0  0  0
  7  8  1  0  0  0  0
  7  9  1  0  0  0  0
 21 22  1  0  0  0  0
 21 23  1  0  0  0  0
 21 24  1  0  0  0  0
 19 20  1  0  0  0  0
 19 21  1  0  0  0  0
M  CHG  1  15  -1
M  END
$$$$
default_name
  -OEChem-02102213163D

 24 23  0     1  0  0  0  0  0999 V2000
   -2.8347   -3.7166    0.8034 H   0  0  0  0  0  0  0  0  0  0  0  0
   -2.7728   -2.7096    0.3954 C   0  0  0  0  0  0  0  0  0  0  0  0
   -3.4267   -2.0426    0.9524 H   0  0  0  0  0  0  0  0  0  0  0  0
   -3.0538   -2.7186   -0.6556 H   0  0  0  0  0  0  0  0  0  0  0  0
   -1.3498   -2.2206    0.5184 C   0  0  0  0  0  0  0  0  0  0  0  0
   -0.4997   -2.9426    1.0194 O   0  0  0  0  0  0  0  0  0  0  0  0
   -1.1198   -0.9926    0.0674 N   0  0  0  0  0  0  0  0  0  0  0  0
   -1.8978   -0.4486   -0.2716 H   0  0  0  0  0  0  0  0  0  0  0  0
    0.1693   -0.2866    0.0854 C   0  0  1  0  0  0  0  0  0  0  0  0
    0.8425   -0.7905    0.7811 H   0  0  0  0  0  0  0  0  0  0  0  0
    0.7993   -0.3404   -1.3233 C   0  0  0  0  0  0  0  0  0  0  0  0
   -0.0014   -0.3717   -2.0642 H   0  0  0  0  0  0  0  0  0  0  0  0
    1.3703    0.5759   -1.4886 H   0  0  0  0  0  0  0  0  0  0  0  0
    1.7079   -1.5550   -1.5695 C   0  0  0  0  0  0  0  0  0  0  0  0
    2.2591   -1.6736   -2.6892 O   0  5  0  0  0  0  0  0  0  0  0  0
    1.8288   -2.3724   -0.6318 O   0  0  0  0  0  0  0  0  0  0  0  0
   -0.0374    1.1645    0.5781 C   0  0  0  0  0  0  0  0  0  0  0  0
   -0.9816    1.8416    0.1544 O   0  0  0  0  0  0  0  0  0  0  0  0
    0.8235    1.6462    1.4801 N   0  0  0  0  0  0  0  0  0  0  0  0
    1.6183    1.0435    1.7020 H   0  0  0  0  0  0  0  0  0  0  0  0
    0.7895    2.9929    2.0404 C   0  0  0  0  0  0  0  0  0  0  0  0
   -0.2344    3.2522    2.3130 H   0  0  0  0  0  0  0  0  0  0  0  0
    1.4265    3.0377    2.9233 H   0  0  0  0  0  0  0  0  0  0  0  0
    1.1511    3.7014    1.2950 H   0  0  0  0  0  0  0  0  0  0  0  0
  5  6  2  0  0  0  0
  5  7  1  0  0  0  0
  2  3  1  0  0  0  0
  2  4  1  0  0  0  0
  2  5  1  0  0  0  0
  1  2  1  0  0  0  0
 17 18  2  0  0  0  0
 17 19  1  0  0  0  0
 14 15  1  0  0  0  0
 14 16  2  0  0  0  0
 11 12  1  0  0  0  0
 11 13  1  0  0  0  0
 11 14  1  0  0  0  0
  9 10  1  0  0  0  0
  9 11  1  0  0  0  0
  9 17  1  0  0  0  0
  7  8  1  0  0  0  0
  7  9  1  0  0  0  0
 21 22  1  0  0  0  0
 21 23  1  0  0  0  0
 21 24  1  0  0  0  0
 19 20  1  0  0  0  0
 19 21  1  0  0  0  0
M  CHG  1  15  -1
M  END
$$$$
default_name
  -OEChem-02102213163D

 24 23  0     1  0  0  0  0  0999 V2000
   -2.8347   -3.7166    0.8034 H   0  0  0  0  0  0  0  0  0  0  0  0
   -2.7728   -2.7096    0.3954 C   0  0  0  0  0  0  0  0  0  0  0  0
   -3.4267   -2.0426    0.9524 H   0  0  0  0  0  0  0  0  0  0  0  0
   -3.0538   -2.7186   -0.6556 H   0  0  0  0  0  0  0  0  0  0  0  0
   -1.3498   -2.2206    0.5184 C   0  0  0  0  0  0  0  0  0  0  0  0
   -0.4997   -2.9426    1.0194 O   0  0  0  0  0  0  0  0  0  0  0  0
   -1.1198   -0.9926    0.0674 N   0  0  0  0  0  0  0  0  0  0  0  0
   -1.8978   -0.4486   -0.2716 H   0  0  0  0  0  0  0  0  0  0  0  0
    0.1693   -0.2866    0.0854 C   0  0  1  0  0  0  0  0  0  0  0  0
    0.8425   -0.7905    0.7811 H   0  0  0  0  0  0  0  0  0  0  0  0
    0.7993   -0.3404   -1.3233 C   0  0  0  0  0  0  0  0  0  0  0  0
   -0.0014   -0.3717   -2.0642 H   0  0  0  0  0  0  0  0  0  0  0  0
    1.3703    0.5759   -1.4886 H   0  0  0  0  0  0  0  0  0  0  0  0
    1.7079   -1.5550   -1.5695 C   0  0  0  0  0  0  0  0  0  0  0  0
    2.4765   -1.5372   -2.5598 O   0  5  0  0  0  0  0  0  0  0  0  0
    1.6104   -2.5083   -0.7672 O   0  0  0  0  0  0  0  0  0  0  0  0
   -0.0374    1.1645    0.5781 C   0  0  0  0  0  0  0  0  0  0  0  0
   -0.9816    1.8416    0.1544 O   0  0  0  0  0  0  0  0  0  0  0  0
    0.8235    1.6462    1.4801 N   0  0  0  0  0  0  0  0  0  0  0  0
    1.6183    1.0435    1.7020 H   0  0  0  0  0  0  0  0  0  0  0  0
    0.7895    2.9929    2.0404 C   0  0  0  0  0  0  0  0  0  0  0  0
   -0.2344    3.2522    2.3130 H   0  0  0  0  0  0  0  0  0  0  0  0
    1.4265    3.0377    2.9233 H   0  0  0  0  0  0  0  0  0  0  0  0
    1.1511    3.7014    1.2950 H   0  0  0  0  0  0  0  0  0  0  0  0
  5  6  2  0  0  0  0
  5  7  1  0  0  0  0
  2  3  1  0  0  0  0
  2  4  1  0  0  0  0
  2  5  1  0  0  0  0
  1  2  1  0  0  0  0
 17 18  2  0  0  0  0
 17 19  1  0  0  0  0
 14 15  1  0  0  0  0
 14 16  2  0  0  0  0
 11 12  1  0  0  0  0
 11 13  1  0  0  0  0
 11 14  1  0  0  0  0
  9 10  1  0  0  0  0
  9 11  1  0  0  0  0
  9 17  1  0  0  0  0
  7  8  1  0  0  0  0
  7  9  1  0  0  0  0
 21 22  1  0  0  0  0
 21 23  1  0  0  0  0
 21 24  1  0  0  0  0
 19 20  1  0  0  0  0
 19 21  1  0  0  0  0
M  CHG  1  15  -1
M  END
$$$$
default_name
  -OEChem-02102213163D

 24 23  0     1  0  0  0  0  0999 V2000
   -2.8347   -3.7166    0.8034 H   0  0  0  0  0  0  0  0  0  0  0  0
   -2.7728   -2.7096    0.3954 C   0  0  0  0  0  0  0  0  0  0  0  0
   -3.4267   -2.0426    0.9524 H   0  0  0  0  0  0  0  0  0  0  0  0
   -3.0538   -2.7186   -0.6556 H   0  0  0  0  0  0  0  0  0  0  0  0
   -1.3498   -2.2206    0.5184 C   0  0  0  0  0  0  0  0  0  0  0  0
   -0.4997   -2.9426    1.0194 O   0  0  0  0  0  0  0  0  0  0  0  0
   -1.1198   -0.9926    0.0674 N   0  0  0  0  0  0  0  0  0  0  0  0
   -1.8978   -0.4486   -0.2716 H   0  0  0  0  0  0  0  0  0  0  0  0
    0.1693   -0.2866    0.0854 C   0  0  1  0  0  0  0  0  0  0  0  0
    0.8425   -0.7905    0.7811 H   0  0  0  0  0  0  0  0  0  0  0  0
    0.7993   -0.3404   -1.3233 C   0  0  0  0  0  0  0  0  0  0  0  0
   -0.0014   -0.3717   -2.0642 H   0  0  0  0  0  0  0  0  0  0  0  0
    1.3703    0.5759   -1.4886 H   0  0  0  0  0  0  0  0  0  0  0  0
    1.7079   -1.5550   -1.5695 C   0  0  0  0  0  0  0  0  0  0  0  0
    2.6657   -1.4343   -2.3693 O   0  5  0  0  0  0  0  0  0  0  0  0
    1.4215   -2.6099   -0.9635 O   0  0  0  0  0  0  0  0  0  0  0  0
   -0.0374    1.1645    0.5781 C   0  0  0  0  0  0  0  0  0  0  0  0
   -0.9816    1.8416    0.1544 O   0  0  0  0  0  0  0  0  0  0  0  0
    0.8235    1.6462    1.4801 N   0  0  0  0  0  0  0  0  0  0  0  0
    1.6183    1.0435    1.7020 H   0  0  0  0  0  0  0  0  0  0  0  0
    0.7895    2.9929    2.0404 C   0  0  0  0  0  0  0  0  0  0  0  0
   -0.2344    3.2522    2.3130 H   0  0  0  0  0  0  0  0  0  0  0  0
    1.4265    3.0377    2.9233 H   0  0  0  0  0  0  0  0  0  0  0  0
    1.1511    3.7014    1.2950 H   0  0  0  0  0  0  0  0  0  0  0  0
  5  6  2  0  0  0  0
  5  7  1  0  0  0  0
  2  3  1  0  0  0  0
  2  4  1  0  0  0  0
  2  5  1  0  0  0  0
  1  2  1  0  0  0  0
 17 18  2  0  0  0  0
 17 19  1  0  0  0  0
 14 15  1  0  0  0  0
 14 16  2  0  0  0  0
 11 12  1  0  0  0  0
 11 13  1  0  0  0  0
 11 14  1  0  0  0  0
  9 10  1  0  0  0  0
  9 11  1  0  0  0  0
  9 17  1  0  0  0  0
  7  8  1  0  0  0  0
  7  9  1  0  0  0  0
 21 22  1  0  0  0  0
 21 23  1  0  0  0  0
 21 24  1  0  0  0  0
 19 20  1  0  0  0  0
 19 21  1  0  0  0  0
M  CHG  1  15  -1
M  END
$$$$
default_name
  -OEChem-02102213163D

 24 23  0     1  0  0  0  0  0999 V2000
   -2.8347   -3.7166    0.8034 H   0  0  0  0  0  0  0  0  0  0  0  0
   -2.7728   -2.7096    0.3954 C   0  0  0  0  0  0  0  0  0  0  0  0
   -3.4267   -2.0426    0.9524 H   0  0  0  0  0  0  0  0  0  0  0  0
   -3.0538   -2.7186   -0.6556 H   0  0  0  0  0  0  0  0  0  0  0  0
   -1.3498   -2.2206    0.5184 C   0  0  0  0  0  0  0  0  0  0  0  0
   -0.4997   -2.9426    1.0194 O   0  0  0  0  0  0  0  0  0  0  0  0
   -1.1198   -0.9926    0.0674 N   0  0  0  0  0  0  0  0  0  0  0  0
   -1.8978   -0.4486   -0.2716 H   0  0  0  0  0  0  0  0  0  0  0  0
    0.1693   -0.2866    0.0854 C   0  0  1  0  0  0  0  0  0  0  0  0
    0.8425   -0.7905    0.7811 H   0  0  0  0  0  0  0  0  0  0  0  0
    0.7993   -0.3404   -1.3233 C   0  0  0  0  0  0  0  0  0  0  0  0
   -0.0014   -0.3717   -2.0642 H   0  0  0  0  0  0  0  0  0  0  0  0
    1.3703    0.5759   -1.4886 H   0  0  0  0  0  0  0  0  0  0  0  0
    1.7079   -1.5550   -1.5695 C   0  0  0  0  0  0  0  0  0  0  0  0
    2.8138   -1.3718   -2.1310 O   0  5  0  0  0  0  0  0  0  0  0  0
    1.2750   -2.6701   -1.2072 O   0  0  0  0  0  0  0  0  0  0  0  0
   -0.0374    1.1645    0.5781 C   0  0  0  0  0  0  0  0  0  0  0  0
   -0.9816    1.8416    0.1544 O   0  0  0  0  0  0  0  0  0  0  0  0
    0.8235    1.6462    1.4801 N   0  0  0  0  0  0  0  0  0  0  0  0
    1.6183    1.0435    1.7020 H   0  0  0  0  0  0  0  0  0  0  0  0
    0.7895    2.9929    2.0404 C   0  0  0  0  0  0  0  0  0  0  0  0
   -0.2344    3.2522    2.3130 H   0  0  0  0  0  0  0  0  0  0  0  0
    1.4265    3.0377    2.9233 H   0  0  0  0  0  0  0  0  0  0  0  0
    1.1511    3.7014    1.2950 H   0  0  0  0  0  0  0  0  0  0  0  0
  5  6  2  0  0  0  0
  5  7  1  0  0  0  0
  2  3  1  0  0  0  0
  2  4  1  0  0  0  0
  2  5  1  0  0  0  0
  1  2  1  0  0  0  0
 17 18  2  0  0  0  0
 17 19  1  0  0  0  0
 14 15  1  0  0  0  0
 14 16  2  0  0  0  0
 11 12  1  0  0  0  0
 11 13  1  0  0  0  0
 11 14  1  0  0  0  0
  9 10  1  0  0  0  0
  9 11  1  0  0  0  0
  9 17  1  0  0  0  0
  7  8  1  0  0  0  0
  7  9  1  0  0  0  0
 21 22  1  0  0  0  0
 21 23  1  0  0  0  0
 21 24  1  0  0  0  0
 19 20  1  0  0  0  0
 19 21  1  0  0  0  0
M  CHG  1  15  -1
M  END
$$$$
default_name
  -OEChem-02102213163D

 24 23  0     1  0  0  0  0  0999 V2000
   -2.8347   -3.7166    0.8034 H   0  0  0  0  0  0  0  0  0  0  0  0
   -2.7728   -2.7096    0.3954 C   0  0  0  0  0  0  0  0  0  0  0  0
   -3.4267   -2.0426    0.9524 H   0  0  0  0  0  0  0  0  0  0  0  0
   -3.0538   -2.7186   -0.6556 H   0  0  0  0  0  0  0  0  0  0  0  0
   -1.3498   -2.2206    0.5184 C   0  0  0  0  0  0  0  0  0  0  0  0
   -0.4997   -2.9426    1.0194 O   0  0  0  0  0  0  0  0  0  0  0  0
   -1.1198   -0.9926    0.0674 N   0  0  0  0  0  0  0  0  0  0  0  0
   -1.8978   -0.4486   -0.2716 H   0  0  0  0  0  0  0  0  0  0  0  0
    0.1693   -0.2866    0.0854 C   0  0  1  0  0  0  0  0  0  0  0  0
    0.8425   -0.7905    0.7811 H   0  0  0  0  0  0  0  0  0  0  0  0
    0.7993   -0.3404   -1.3233 C   0  0  0  0  0  0  0  0  0  0  0  0
   -0.0014   -0.3717   -2.0642 H   0  0  0  0  0  0  0  0  0  0  0  0
    1.3703    0.5759   -1.4886 H   0  0  0  0  0  0  0  0  0  0  0  0
    1.7079   -1.5550   -1.5695 C   0  0  0  0  0  0  0  0  0  0  0  0
    2.9106   -1.3541   -1.8609 O   0  5  0  0  0  0  0  0  0  0  0  0
    1.1808   -2.6848   -1.4819 O   0  0  0  0  0  0  0  0  0  0  0  0
   -0.0374    1.1645    0.5781 C   0  0  0  0  0  0  0  0  0  0  0  0
   -0.9816    1.8416    0.1544 O   0  0  0  0  0  0  0  0  0  0  0  0
    0.8235    1.6462    1.4801 N   0  0  0  0  0  0  0  0  0  0  0  0
    1.6183    1.0435    1.7020 H   0  0  0  0  0  0  0  0  0  0  0  0
    0.7895    2.9929    2.0404 C   0  0  0  0  0  0  0  0  0  0  0  0
   -0.2344    3.2522    2.3130 H   0  0  0  0  0  0  0  0  0  0  0  0
    1.4265    3.0377    2.9233 H   0  0  0  0  0  0  0  0  0  0  0  0
    1.1511    3.7014    1.2950 H   0  0  0  0  0  0  0  0  0  0  0  0
  5  6  2  0  0  0  0
  5  7  1  0  0  0  0
  2  3  1  0  0  0  0
  2  4  1  0  0  0  0
  2  5  1  0  0  0  0
  1  2  1  0  0  0  0
 17 18  2  0  0  0  0
 17 19  1  0  0  0  0
 14 15  1  0  0  0  0
 14 16  2  0  0  0  0
 11 12  1  0  0  0  0
 11 13  1  0  0  0  0
 11 14  1  0  0  0  0
  9 10  1  0  0  0  0
  9 11  1  0  0  0  0
  9 17  1  0  0  0  0
  7  8  1  0  0  0  0
  7  9  1  0  0  0  0
 21 22  1  0  0  0  0
 21 23  1  0  0  0  0
 21 24  1  0  0  0  0
 19 20  1  0  0  0  0
 19 21  1  0  0  0  0
M  CHG  1  15  -1
M  END
$$$$
default_name
  -OEChem-02102213163D

 24 23  0     1  0  0  0  0  0999 V2000
   -2.8347   -3.7166    0.8034 H   0  0  0  0  0  0  0  0  0  0  0  0
   -2.7728   -2.7096    0.3954 C   0  0  0  0  0  0  0  0  0  0  0  0
   -3.4267   -2.0426    0.9524 H   0  0  0  0  0  0  0  0  0  0  0  0
   -3.0538   -2.7186   -0.6556 H   0  0  0  0  0  0  0  0  0  0  0  0
   -1.3498   -2.2206    0.5184 C   0  0  0  0  0  0  0  0  0  0  0  0
   -0.4997   -2.9426    1.0194 O   0  0  0  0  0  0  0  0  0  0  0  0
   -1.1198   -0.9926    0.0674 N   0  0  0  0  0  0  0  0  0  0  0  0
   -1.8978   -0.4486   -0.2716 H   0  0  0  0  0  0  0  0  0  0  0  0
    0.1693   -0.2866    0.0854 C   0  0  1  0  0  0  0  0  0  0  0  0
    0.8425   -0.7905    0.7811 H   0  0  0  0  0  0  0  0  0  0  0  0
    0.7993   -0.3404   -1.3233 C   0  0  0  0  0  0  0  0  0  0  0  0
   -0.0014   -0.3717   -2.0642 H   0  0  0  0  0  0  0  0  0  0  0  0
    1.3703    0.5759   -1.4886 H   0  0  0  0  0  0  0  0  0  0  0  0
    1.7079   -1.5550   -1.5695 C   0  0  0  0  0  0  0  0  0  0  0  0
    2.9496   -1.3824   -1.5774 O   0  5  0  0  0  0  0  0  0  0  0  0
    1.1454   -2.6531   -1.7687 O   0  0  0  0  0  0  0  0  0  0  0  0
   -0.0374    1.1645    0.5781 C   0  0  0  0  0  0  0  0  0  0  0  0
   -0.9816    1.8416    0.1544 O   0  0  0  0  0  0  0  0  0  0  0  0
    0.8235    1.6462    1.4801 N   0  0  0  0  0  0  0  0  0  0  0  0
    1.6183    1.0435    1.7020 H   0  0  0  0  0  0  0  0  0  0  0  0
    0.7895    2.9929    2.0404 C   0  0  0  0  0  0  0  0  0  0  0  0
   -0.2344    3.2522    2.3130 H   0  0  0  0  0  0  0  0  0  0  0  0
    1.4265    3.0377    2.9233 H   0  0  0  0  0  0  0  0  0  0  0  0
    1.1511    3.7014    1.2950 H   0  0  0  0  0  0  0  0  0  0  0  0
  5  6  2  0  0  0  0
  5  7  1  0  0  0  0
  2  3  1  0  0  0  0
  2  4  1  0  0  0  0
  2  5  1  0  0  0  0
  1  2  1  0  0  0  0
 17 18  2  0  0  0  0
 17 19  1  0  0  0  0
 14 15  1  0  0  0  0
 14 16  2  0  0  0  0
 11 12  1  0  0  0  0
 11 13  1  0  0  0  0
 11 14  1  0  0  0  0
  9 10  1  0  0  0  0
  9 11  1  0  0  0  0
  9 17  1  0  0  0  0
  7  8  1  0  0  0  0
  7  9  1  0  0  0  0
 21 22  1  0  0  0  0
 21 23  1  0  0  0  0
 21 24  1  0  0  0  0
 19 20  1  0  0  0  0
 19 21  1  0  0  0  0
M  CHG  1  15  -1
M  END
$$$$
default_name
  -OEChem-02102213163D

 24 23  0     1  0  0  0  0  0999 V2000
   -2.8347   -3.7166    0.8034 H   0  0  0  0  0  0  0  0  0  0  0  0
   -2.7728   -2.7096    0.3954 C   0  0  0  0  0  0  0  0  0  0  0  0
   -3.4267   -2.0426    0.9524 H   0  0  0  0  0  0  0  0  0  0  0  0
   -3.0538   -2.7186   -0.6556 H   0  0  0  0  0  0  0  0  0  0  0  0
   -1.3498   -2.2206    0.5184 C   0  0  0  0  0  0  0  0  0  0  0  0
   -0.4997   -2.9426    1.0194 O   0  0  0  0  0  0  0  0  0  0  0  0
   -1.1198   -0.9926    0.0674 N   0  0  0  0  0  0  0  0  0  0  0  0
   -1.8978   -0.4486   -0.2716 H   0  0  0  0  0  0  0  0  0  0  0  0
    0.1693   -0.2866    0.0854 C   0  0  1  0  0  0  0  0  0  0  0  0
    0.8425   -0.7905    0.7811 H   0  0  0  0  0  0  0  0  0  0  0  0
    0.7993   -0.3404   -1.3233 C   0  0  0  0  0  0  0  0  0  0  0  0
   -0.0014   -0.3717   -2.0642 H   0  0  0  0  0  0  0  0  0  0  0  0
    1.3703    0.5759   -1.4886 H   0  0  0  0  0  0  0  0  0  0  0  0
    1.7079   -1.5550   -1.5695 C   0  0  0  0  0  0  0  0  0  0  0  0
    2.9282   -1.4547   -1.3000 O   0  5  0  0  0  0  0  0  0  0  0  0
    1.1712   -2.5772   -2.0482 O   0  0  0  0  0  0  0  0  0  0  0  0
   -0.0374    1.1645    0.5781 C   0  0  0  0  0  0  0  0  0  0  0  0
   -0.9816    1.8416    0.1544 O   0  0  0  0  0  0  0  0  0  0  0  0
    0.8235    1.6462    1.4801 N   0  0  0  0  0  0  0  0  0  0  0  0
    1.6183    1.0435    1.7020 H   0  0  0  0  0  0  0  0  0  0  0  0
    0.7895    2.9929    2.0404 C   0  0  0  0  0  0  0  0  0  0  0  0
   -0.2344    3.2522    2.3130 H   0  0  0  0  0  0  0  0  0  0  0  0
    1.4265    3.0377    2.9233 H   0  0  0  0  0  0  0  0  0  0  0  0
    1.1511    3.7014    1.2950 H   0  0  0  0  0  0  0  0  0  0  0  0
  5  6  2  0  0  0  0
  5  7  1  0  0  0  0
  2  3  1  0  0  0  0
  2  4  1  0  0  0  0
  2  5  1  0  0  0  0
  1  2  1  0  0  0  0
 17 18  2  0  0  0  0
 17 19  1  0  0  0  0
 14 15  1  0  0  0  0
 14 16  2  0  0  0  0
 11 12  1  0  0  0  0
 11 13  1  0  0  0  0
 11 14  1  0  0  0  0
  9 10  1  0  0  0  0
  9 11  1  0  0  0  0
  9 17  1  0  0  0  0
  7  8  1  0  0  0  0
  7  9  1  0  0  0  0
 21 22  1  0  0  0  0
 21 23  1  0  0  0  0
 21 24  1  0  0  0  0
 19 20  1  0  0  0  0
 19 21  1  0  0  0  0
M  CHG  1  15  -1
M  END
$$$$
default_name
  -OEChem-02102213163D

 24 23  0     1  0  0  0  0  0999 V2000
   -2.8347   -3.7166    0.8034 H   0  0  0  0  0  0  0  0  0  0  0  0
   -2.7728   -2.7096    0.3954 C   0  0  0  0  0  0  0  0  0  0  0  0
   -3.4267   -2.0426    0.9524 H   0  0  0  0  0  0  0  0  0  0  0  0
   -3.0538   -2.7186   -0.6556 H   0  0  0  0  0  0  0  0  0  0  0  0
   -1.3498   -2.2206    0.5184 C   0  0  0  0  0  0  0  0  0  0  0  0
   -0.4997   -2.9426    1.0194 O   0  0  0  0  0  0  0  0  0  0  0  0
   -1.1198   -0.9926    0.0674 N   0  0  0  0  0  0  0  0  0  0  0  0
   -1.8978   -0.4486   -0.2716 H   0  0  0  0  0  0  0  0  0  0  0  0
    0.1693   -0.2866    0.0854 C   0  0  1  0  0  0  0  0  0  0  0  0
    0.8425   -0.7905    0.7811 H   0  0  0  0  0  0  0  0  0  0  0  0
    0.7993   -0.3404   -1.3233 C   0  0  0  0  0  0  0  0  0  0  0  0
   -0.0014   -0.3717   -2.0642 H   0  0  0  0  0  0  0  0  0  0  0  0
    1.3703    0.5759   -1.4886 H   0  0  0  0  0  0  0  0  0  0  0  0
    1.7079   -1.5550   -1.5695 C   0  0  0  0  0  0  0  0  0  0  0  0
    2.8477   -1.5661   -1.0475 O   0  5  0  0  0  0  0  0  0  0  0  0
    1.2565   -2.4621   -2.3012 O   0  0  0  0  0  0  0  0  0  0  0  0
   -0.0374    1.1645    0.5781 C   0  0  0  0  0  0  0  0  0  0  0  0
   -0.9816    1.8416    0.1544 O   0  0  0  0  0  0  0  0  0  0  0  0
    0.8235    1.6462    1.4801 N   0  0  0  0  0  0  0  0  0  0  0  0
    1.6183    1.0435    1.7020 H   0  0  0  0  0  0  0  0  0  0  0  0
    0.7895    2.9929    2.0404 C   0  0  0  0  0  0  0  0  0  0  0  0
   -0.2344    3.2522    2.3130 H   0  0  0  0  0  0  0  0  0  0  0  0
    1.4265    3.0377    2.9233 H   0  0  0  0  0  0  0  0  0  0  0  0
    1.1511    3.7014    1.2950 H   0  0  0  0  0  0  0  0  0  0  0  0
  5  6  2  0  0  0  0
  5  7  1  0  0  0  0
  2  3  1  0  0  0  0
  2  4  1  0  0  0  0
  2  5  1  0  0  0  0
  1  2  1  0  0  0  0
 17 18  2  0  0  0  0
 17 19  1  0  0  0  0
 14 15  1  0  0  0  0
 14 16  2  0  0  0  0
 11 12  1  0  0  0  0
 11 13  1  0  0  0  0
 11 14  1  0  0  0  0
  9 10  1  0  0  0  0
  9 11  1  0  0  0  0
  9 17  1  0  0  0  0
  7  8  1  0  0  0  0
  7  9  1  0  0  0  0
 21 22  1  0  0  0  0
 21 23  1  0  0  0  0
 21 24  1  0  0  0  0
 19 20  1  0  0  0  0
 19 21  1  0  0  0  0
M  CHG  1  15  -1
M  END
$$$$
default_name
  -OEChem-02102213163D

 24 23  0     1  0  0  0  0  0999 V2000
   -2.8347   -3.7166    0.8034 H   0  0  0  0  0  0  0  0  0  0  0  0
   -2.7728   -2.7096    0.3954 C   0  0  0  0  0  0  0  0  0  0  0  0
   -3.4267   -2.0426    0.9524 H   0  0  0  0  0  0  0  0  0  0  0  0
   -3.0538   -2.7186   -0.6556 H   0  0  0  0  0  0  0  0  0  0  0  0
   -1.3498   -2.2206    0.5184 C   0  0  0  0  0  0  0  0  0  0  0  0
   -0.4997   -2.9426    1.0194 O   0  0  0  0  0  0  0  0  0  0  0  0
   -1.1198   -0.9926    0.0674 N   0  0  0  0  0  0  0  0  0  0  0  0
   -1.8978   -0.4486   -0.2716 H   0  0  0  0  0  0  0  0  0  0  0  0
    0.1693   -0.2866    0.0854 C   0  0  1  0  0  0  0  0  0  0  0  0
    0.8425   -0.7905    0.7811 H   0  0  0  0  0  0  0  0  0  0  0  0
    0.7993   -0.3404   -1.3233 C   0  0  0  0  0  0  0  0  0  0  0  0
   -0.0014   -0.3717   -2.0642 H   0  0  0  0  0  0  0  0  0  0  0  0
    1.3703    0.5759   -1.4886 H   0  0  0  0  0  0  0  0  0  0  0  0
    1.7079   -1.5550   -1.5695 C   0  0  0  0  0  0  0  0  0  0  0  0
    2.7137   -1.7090   -0.8371 O   0  5  0  0  0  0  0  0  0  0  0  0
    1.3953   -2.3158   -2.5105 O   0  0  0  0  0  0  0  0  0  0  0  0
   -0.0374    1.1645    0.5781 C   0  0  0  0  0  0  0  0  0  0  0  0
   -0.9816    1.8416    0.1544 O   0  0  0  0  0  0  0  0  0  0  0  0
    0.8235    1.6462    1.4801 N   0  0  0  0  0  0  0  0  0  0  0  0
    1.6183    1.0435    1.7020 H   0  0  0  0  0  0  0  0  0  0  0  0
    0.7895    2.9929    2.0404 C   0  0  0  0  0  0  0  0  0  0  0  0
   -0.2344    3.2522    2.3130 H   0  0  0  0  0  0  0  0  0  0  0  0
    1.4265    3.0377    2.9233 H   0  0  0  0  0  0  0  0  0  0  0  0
    1.1511    3.7014    1.2950 H   0  0  0  0  0  0  0  0  0  0  0  0
  5  6  2  0  0  0  0
  5  7  1  0  0  0  0
  2  3  1  0  0  0  0
  2  4  1  0  0  0  0
  2  5  1  0  0  0  0
  1  2  1  0  0  0  0
 17 18  2  0  0  0  0
 17 19  1  0  0  0  0
 14 15  1  0  0  0  0
 14 16  2  0  0  0  0
 11 12  1  0  0  0  0
 11 13  1  0  0  0  0
 11 14  1  0  0  0  0
  9 10  1  0  0  0  0
  9 11  1  0  0  0  0
  9 17  1  0  0  0  0
  7  8  1  0  0  0  0
  7  9  1  0  0  0  0
 21 22  1  0  0  0  0
 21 23  1  0  0  0  0
 21 24  1  0  0  0  0
 19 20  1  0  0  0  0
 19 21  1  0  0  0  0
M  CHG  1  15  -1
M  END
$$$$
default_name
  -OEChem-02102213163D

 24 23  0     1  0  0  0  0  0999 V2000
   -2.8347   -3.7166    0.8034 H   0  0  0  0  0  0  0  0  0  0  0  0
   -2.7728   -2.7096    0.3954 C   0  0  0  0  0  0  0  0  0  0  0  0
   -3.4267   -2.0426    0.9524 H   0  0  0  0  0  0  0  0  0  0  0  0
   -3.0538   -2.7186   -0.6556 H   0  0  0  0  0  0  0  0  0  0  0  0
   -1.3498   -2.2206    0.5184 C   0  0  0  0  0  0  0  0  0  0  0  0
   -0.4997   -2.9426    1.0194 O   0  0  0  0  0  0  0  0  0  0  0  0
   -1.1198   -0.9926    0.0674 N   0  0  0  0  0  0  0  0  0  0  0  0
   -1.8978   -0.4486   -0.2716 H   0  0  0  0  0  0  0  0  0  0  0  0
    0.1693   -0.2866    0.0854 C   0  0  1  0  0  0  0  0  0  0  0  0
    0.8425   -0.7905    0.7811 H   0  0  0  0  0  0  0  0  0  0  0  0
    0.7993   -0.3404   -1.3233 C   0  0  0  0  0  0  0  0  0  0  0  0
   -0.0014   -0.3717   -2.0642 H   0  0  0  0  0  0  0  0  0  0  0  0
    1.3703    0.5759   -1.4886 H   0  0  0  0  0  0  0  0  0  0  0  0
    1.7079   -1.5550   -1.5695 C   0  0  0  0  0  0  0  0  0  0  0  0
    2.5353   -1.8737   -0.6832 O   0  5  0  0  0  0  0  0  0  0  0  0
    1.5784   -2.1482   -2.6620 O   0  0  0  0  0  0  0  0  0  0  0  0
   -0.0374    1.1645    0.5781 C   0  0  0  0  0  0  0  0  0  0  0  0
   -0.9816    1.8416    0.1544 O   0  0  0  0  0  0  0  0  0  0  0  0
    0.8235    1.6462    1.4801 N   0  0  0  0  0  0  0  0  0  0  0  0
    1.6183    1.0435    1.7020 H   0  0  0  0  0  0  0  0  0  0  0  0
    0.7895    2.9929    2.0404 C   0  0  0  0  0  0  0  0  0  0  0  0
   -0.2344    3.2522    2.3130 H   0  0  0  0  0  0  0  0  0  0  0  0
    1.4265    3.0377    2.9233 H   0  0  0  0  0  0  0  0  0  0  0  0
    1.1511    3.7014    1.2950 H   0  0  0  0  0  0  0  0  0  0  0  0
  5  6  2  0  0  0  0
  5  7  1  0  0  0  0
  2  3  1  0  0  0  0
  2  4  1  0  0  0  0
  2  5  1  0  0  0  0
  1  2  1  0  0  0  0
 17 18  2  0  0  0  0
 17 19  1  0  0  0  0
 14 15  1  0  0  0  0
 14 16  2  0  0  0  0
 11 12  1  0  0  0  0
 11 13  1  0  0  0  0
 11 14  1  0  0  0  0
  9 10  1  0  0  0  0
  9 11  1  0  0  0  0
  9 17  1  0  0  0  0
  7  8  1  0  0  0  0
  7  9  1  0  0  0  0
 21 22  1  0  0  0  0
 21 23  1  0  0  0  0
 21 24  1  0  0  0  0
 19 20  1  0  0  0  0
 19 21  1  0  0  0  0
M  CHG  1  15  -1
M  END
$$$$
default_name
  -OEChem-02102213163D

 24 23  0     1  0  0  0  0  0999 V2000
   -2.8347   -3.7166    0.8034 H   0  0  0  0  0  0  0  0  0  0  0  0
   -2.7728   -2.7096    0.3954 C   0  0  0  0  0  0  0  0  0  0  0  0
   -3.4267   -2.0426    0.9524 H   0  0  0  0  0  0  0  0  0  0  0  0
   -3.0538   -2.7186   -0.6556 H   0  0  0  0  0  0  0  0  0  0  0  0
   -1.3498   -2.2206    0.5184 C   0  0  0  0  0  0  0  0  0  0  0  0
   -0.4997   -2.9426    1.0194 O   0  0  0  0  0  0  0  0  0  0  0  0
   -1.1198   -0.9926    0.0674 N   0  0  0  0  0  0  0  0  0  0  0  0
   -1.8978   -0.4486   -0.2716 H   0  0  0  0  0  0  0  0  0  0  0  0
    0.1693   -0.2866    0.0854 C   0  0  1  0  0  0  0  0  0  0  0  0
    0.8425   -0.7905    0.7811 H   0  0  0  0  0  0  0  0  0  0  0  0
    0.7993   -0.3404   -1.3233 C   0  0  0  0  0  0  0  0  0  0  0  0
   -0.0014   -0.3717   -2.0642 H   0  0  0  0  0  0  0  0  0  0  0  0
    1.3703    0.5759   -1.4886 H   0  0  0  0  0  0  0  0  0  0  0  0
    1.7079   -1.5550   -1.5695 C   0  0  0  0  0  0  0  0  0  0  0  0
    2.3246   -2.0489   -0.5962 O   0  5  0  0  0  0  0  0  0  0  0  0
    1.7931   -1.9707   -2.7451 O   0  0  0  0  0  0  0  0  0  0  0  0
   -0.0374    1.1645    0.5781 C   0  0  0  0  0  0  0  0  0  0  0  0
   -0.9816    1.8416    0.1544 O   0  0  0  0  0  0  0  0  0  0  0  0
    0.8235    1.6462    1.4801 N   0  0  0  0  0  0  0  0  0  0  0  0
    1.6183    1.0435    1.7020 H   0  0  0  0  0  0  0  0  0  0  0  0
    0.7895    2.9929    2.0404 C   0  0  0  0  0  0  0  0  0  0  0  0
   -0.2344    3.2522    2.3130 H   0  0  0  0  0  0  0  0  0  0  0  0
    1.4265    3.0377    2.9233 H   0  0  0  0  0  0  0  0  0  0  0  0
    1.1511    3.7014    1.2950 H   0  0  0  0  0  0  0  0  0  0  0  0
  5  6  2  0  0  0  0
  5  7  1  0  0  0  0
  2  3  1  0  0  0  0
  2  4  1  0  0  0  0
  2  5  1  0  0  0  0
  1  2  1  0  0  0  0
 17 18  2  0  0  0  0
 17 19  1  0  0  0  0
 14 15  1  0  0  0  0
 14 16  2  0  0  0  0
 11 12  1  0  0  0  0
 11 13  1  0  0  0  0
 11 14  1  0  0  0  0
  9 10  1  0  0  0  0
  9 11  1  0  0  0  0
  9 17  1  0  0  0  0
  7  8  1  0  0  0  0
  7  9  1  0  0  0  0
 21 22  1  0  0  0  0
 21 23  1  0  0  0  0
 21 24  1  0  0  0  0
 19 20  1  0  0  0  0
 19 21  1  0  0  0  0
M  CHG  1  15  -1
M  END
$$$$
default_name
  -OEChem-02102213163D

 24 23  0     1  0  0  0  0  0999 V2000
   -2.8347   -3.7166    0.8034 H   0  0  0  0  0  0  0  0  0  0  0  0
   -2.7728   -2.7096    0.3954 C   0  0  0  0  0  0  0  0  0  0  0  0
   -3.4267   -2.0426    0.9524 H   0  0  0  0  0  0  0  0  0  0  0  0
   -3.0538   -2.7186   -0.6556 H   0  0  0  0  0  0  0  0  0  0  0  0
   -1.3498   -2.2206    0.5184 C   0  0  0  0  0  0  0  0  0  0  0  0
   -0.4997   -2.9426    1.0194 O   0  0  0  0  0  0  0  0  0  0  0  0
   -1.1198   -0.9926    0.0674 N   0  0  0  0  0  0  0  0  0  0  0  0
   -1.8978   -0.4486   -0.2716 H   0  0  0  0  0  0  0  0  0  0  0  0
    0.1693   -0.2866    0.0854 C   0  0  1  0  0  0  0  0  0  0  0  0
    0.8425   -0.7905    0.7811 H   0  0  0  0  0  0  0  0  0  0  0  0
    0.7993   -0.3404   -1.3233 C   0  0  0  0  0  0  0  0  0  0  0  0
   -0.0014   -0.3717   -2.0642 H   0  0  0  0  0  0  0  0  0  0  0  0
    1.3703    0.5759   -1.4886 H   0  0  0  0  0  0  0  0  0  0  0  0
    1.7079   -1.5550   -1.5695 C   0  0  0  0  0  0  0  0  0  0  0  0
    2.0961   -2.2227   -0.5820 O   0  5  0  0  0  0  0  0  0  0  0  0
    2.0249   -1.7954   -2.7544 O   0  0  0  0  0  0  0  0  0  0  0  0
   -0.0374    1.1645    0.5781 C   0  0  0  0  0  0  0  0  0  0  0  0
   -0.9816    1.8416    0.1544 O   0  0  0  0  0  0  0  0  0  0  0  0
    0.8235    1.6462    1.4801 N   0  0  0  0  0  0  0  0  0  0  0  0
    1.6183    1.0435    1.7020 H   0  0  0  0  0  0  0  0  0  0  0  0
    0.7895    2.9929    2.0404 C   0  0  0  0  0  0  0  0  0  0  0  0
   -0.2344    3.2522    2.3130 H   0  0  0  0  0  0  0  0  0  0  0  0
    1.4265    3.0377    2.9233 H   0  0  0  0  0  0  0  0  0  0  0  0
    1.1511    3.7014    1.2950 H   0  0  0  0  0  0  0  0  0  0  0  0
  5  6  2  0  0  0  0
  5  7  1  0  0  0  0
  2  3  1  0  0  0  0
  2  4  1  0  0  0  0
  2  5  1  0  0  0  0
  1  2  1  0  0  0  0
 17 18  2  0  0  0  0
 17 19  1  0  0  0  0
 14 15  1  0  0  0  0
 14 16  2  0  0  0  0
 11 12  1  0  0  0  0
 11 13  1  0  0  0  0
 11 14  1  0  0  0  0
  9 10  1  0  0  0  0
  9 11  1  0  0  0  0
  9 17  1  0  0  0  0
  7  8  1  0  0  0  0
  7  9  1  0  0  0  0
 21 22  1  0  0  0  0
 21 23  1  0  0  0  0
 21 24  1  0  0  0  0
 19 20  1  0  0  0  0
 19 21  1  0  0  0  0
M  CHG  1  15  -1
M  END
$$$$
default_name
  -OEChem-02102213163D

 24 23  0     1  0  0  0  0  0999 V2000
   -2.8347   -3.7166    0.8034 H   0  0  0  0  0  0  0  0  0  0  0  0
   -2.7728   -2.7096    0.3954 C   0  0  0  0  0  0  0  0  0  0  0  0
   -3.4267   -2.0426    0.9524 H   0  0  0  0  0  0  0  0  0  0  0  0
   -3.0538   -2.7186   -0.6556 H   0  0  0  0  0  0  0  0  0  0  0  0
   -1.3498   -2.2206    0.5184 C   0  0  0  0  0  0  0  0  0  0  0  0
   -0.4997   -2.9426    1.0194 O   0  0  0  0  0  0  0  0  0  0  0  0
   -1.1198   -0.9926    0.0674 N   0  0  0  0  0  0  0  0  0  0  0  0
   -1.8978   -0.4486   -0.2716 H   0  0  0  0  0  0  0  0  0  0  0  0
    0.1693   -0.2866    0.0854 C   0  0  1  0  0  0  0  0  0  0  0  0
    0.8425   -0.7905    0.7811 H   0  0  0  0  0  0  0  0  0  0  0  0
    0.7993   -0.3404   -1.3233 C   0  0  0  0  0  0  0  0  0  0  0  0
   -0.0014   -0.3717   -2.0642 H   0  0  0  0  0  0  0  0  0  0  0  0
    1.3703    0.5759   -1.4886 H   0  0  0  0  0  0  0  0  0  0  0  0
    1.7079   -1.5550   -1.5695 C   0  0  0  0  0  0  0  0  0  0  0  0
    1.8652   -2.3833   -0.6417 O   0  5  0  0  0  0  0  0  0  0  0  0
    2.2579   -1.6343   -2.6890 O   0  0  0  0  0  0  0  0  0  0  0  0
   -0.0374    1.1645    0.5781 C   0  0  0  0  0  0  0  0  0  0  0  0
   -0.9816    1.8416    0.1544 O   0  0  0  0  0  0  0  0  0  0  0  0
    0.8235    1.6462    1.4801 N   0  0  0  0  0  0  0  0  0  0  0  0
    1.6183    1.0435    1.7020 H   0  0  0  0  0  0  0  0  0  0  0  0
    0.7895    2.9929    2.0404 C   0  0  0  0  0  0  0  0  0  0  0  0
   -0.2344    3.2522    2.3130 H   0  0  0  0  0  0  0  0  0  0  0  0
    1.4265    3.0377    2.9233 H   0  0  0  0  0  0  0  0  0  0  0  0
    1.1511    3.7014    1.2950 H   0  0  0  0  0  0  0  0  0  0  0  0
  5  6  2  0  0  0  0
  5  7  1  0  0  0  0
  2  3  1  0  0  0  0
  2  4  1  0  0  0  0
  2  5  1  0  0  0  0
  1  2  1  0  0  0  0
 17 18  2  0  0  0  0
 17 19  1  0  0  0  0
 14 15  1  0  0  0  0
 14 16  2  0  0  0  0
 11 12  1  0  0  0  0
 11 13  1  0  0  0  0
 11 14  1  0  0  0  0
  9 10  1  0  0  0  0
  9 11  1  0  0  0  0
  9 17  1  0  0  0  0
  7  8  1  0  0  0  0
  7  9  1  0  0  0  0
 21 22  1  0  0  0  0
 21 23  1  0  0  0  0
 21 24  1  0  0  0  0
 19 20  1  0  0  0  0
 19 21  1  0  0  0  0
M  CHG  1  15  -1
M  END
$$$$
default_name
  -OEChem-02102213163D

 24 23  0     1  0  0  0  0  0999 V2000
   -2.8347   -3.7166    0.8034 H   0  0  0  0  0  0  0  0  0  0  0  0
   -2.7728   -2.7096    0.3954 C   0  0  0  0  0  0  0  0  0  0  0  0
   -3.4267   -2.0426    0.9524 H   0  0  0  0  0  0  0  0  0  0  0  0
   -3.0538   -2.7186   -0.6556 H   0  0  0  0  0  0  0  0  0  0  0  0
   -1.3498   -2.2206    0.5184 C   0  0  0  0  0  0  0  0  0  0  0  0
   -0.4997   -2.9426    1.0194 O   0  0  0  0  0  0  0  0  0  0  0  0
   -1.1198   -0.9926    0.0674 N   0  0  0  0  0  0  0  0  0  0  0  0
   -1.8978   -0.4486   -0.2716 H   0  0  0  0  0  0  0  0  0  0  0  0
    0.1693   -0.2866    0.0854 C   0  0  1  0  0  0  0  0  0  0  0  0
    0.8425   -0.7905    0.7811 H   0  0  0  0  0  0  0  0  0  0  0  0
    0.7993   -0.3404   -1.3233 C   0  0  0  0  0  0  0  0  0  0  0  0
   -0.0014   -0.3717   -2.0642 H   0  0  0  0  0  0  0  0  0  0  0  0
    1.3703    0.5759   -1.4886 H   0  0  0  0  0  0  0  0  0  0  0  0
    1.7079   -1.5550   -1.5695 C   0  0  0  0  0  0  0  0  0  0  0  0
    1.6478   -2.5197   -0.7712 O   0  5  0  0  0  0  0  0  0  0  0  0
    2.4763   -1.4984   -2.5536 O   0  0  0  0  0  0  0  0  0  0  0  0
   -0.0374    1.1645    0.5781 C   0  0  0  0  0  0  0  0  0  0  0  0
   -0.9816    1.8416    0.1544 O   0  0  0  0  0  0  0  0  0  0  0  0
    0.8235    1.6462    1.4801 N   0  0  0  0  0  0  0  0  0  0  0  0
    1.6183    1.0435    1.7020 H   0  0  0  0  0  0  0  0  0  0  0  0
    0.7895    2.9929    2.0404 C   0  0  0  0  0  0  0  0  0  0  0  0
   -0.2344    3.2522    2.3130 H   0  0  0  0  0  0  0  0  0  0  0  0
    1.4265    3.0377    2.9233 H   0  0  0  0  0  0  0  0  0  0  0  0
    1.1511    3.7014    1.2950 H   0  0  0  0  0  0  0  0  0  0  0  0
  5  6  2  0  0  0  0
  5  7  1  0  0  0  0
  2  3  1  0  0  0  0
  2  4  1  0  0  0  0
  2  5  1  0  0  0  0
  1  2  1  0  0  0  0
 17 18  2  0  0  0  0
 17 19  1  0  0  0  0
 14 15  1  0  0  0  0
 14 16  2  0  0  0  0
 11 12  1  0  0  0  0
 11 13  1  0  0  0  0
 11 14  1  0  0  0  0
  9 10  1  0  0  0  0
  9 11  1  0  0  0  0
  9 17  1  0  0  0  0
  7  8  1  0  0  0  0
  7  9  1  0  0  0  0
 21 22  1  0  0  0  0
 21 23  1  0  0  0  0
 21 24  1  0  0  0  0
 19 20  1  0  0  0  0
 19 21  1  0  0  0  0
M  CHG  1  15  -1
M  END
$$$$
default_name
  -OEChem-02102213163D

 24 23  0     1  0  0  0  0  0999 V2000
   -2.8347   -3.7166    0.8034 H   0  0  0  0  0  0  0  0  0  0  0  0
   -2.7728   -2.7096    0.3954 C   0  0  0  0  0  0  0  0  0  0  0  0
   -3.4267   -2.0426    0.9524 H   0  0  0  0  0  0  0  0  0  0  0  0
   -3.0538   -2.7186   -0.6556 H   0  0  0  0  0  0  0  0  0  0  0  0
   -1.3498   -2.2206    0.5184 C   0  0  0  0  0  0  0  0  0  0  0  0
   -0.4997   -2.9426    1.0194 O   0  0  0  0  0  0  0  0  0  0  0  0
   -1.1198   -0.9926    0.0674 N   0  0  0  0  0  0  0  0  0  0  0  0
   -1.8978   -0.4486   -0.2716 H   0  0  0  0  0  0  0  0  0  0  0  0
    0.1693   -0.2866    0.0854 C   0  0  1  0  0  0  0  0  0  0  0  0
    0.8425   -0.7905    0.7811 H   0  0  0  0  0  0  0  0  0  0  0  0
    0.7993   -0.3404   -1.3233 C   0  0  0  0  0  0  0  0  0  0  0  0
   -0.0014   -0.3717   -2.0642 H   0  0  0  0  0  0  0  0  0  0  0  0
    1.3703    0.5759   -1.4886 H   0  0  0  0  0  0  0  0  0  0  0  0
    1.7079   -1.5550   -1.5695 C   0  0  0  0  0  0  0  0  0  0  0  0
    1.4586   -2.6226   -0.9616 O   0  5  0  0  0  0  0  0  0  0  0  0
    2.6653   -1.3969   -2.3573 O   0  0  0  0  0  0  0  0  0  0  0  0
   -0.0374    1.1645    0.5781 C   0  0  0  0  0  0  0  0  0  0  0  0
   -0.9816    1.8416    0.1544 O   0  0  0  0  0  0  0  0  0  0  0  0
    0.8235    1.6462    1.4801 N   0  0  0  0  0  0  0  0  0  0  0  0
    1.6183    1.0435    1.7020 H   0  0  0  0  0  0  0  0  0  0  0  0
    0.7895    2.9929    2.0404 C   0  0  0  0  0  0  0  0  0  0  0  0
   -0.2344    3.2522    2.3130 H   0  0  0  0  0  0  0  0  0  0  0  0
    1.4265    3.0377    2.9233 H   0  0  0  0  0  0  0  0  0  0  0  0
    1.1511    3.7014    1.2950 H   0  0  0  0  0  0  0  0  0  0  0  0
  5  6  2  0  0  0  0
  5  7  1  0  0  0  0
  2  3  1  0  0  0  0
  2  4  1  0  0  0  0
  2  5  1  0  0  0  0
  1  2  1  0  0  0  0
 17 18  2  0  0  0  0
 17 19  1  0  0  0  0
 14 15  1  0  0  0  0
 14 16  2  0  0  0  0
 11 12  1  0  0  0  0
 11 13  1  0  0  0  0
 11 14  1  0  0  0  0
  9 10  1  0  0  0  0
  9 11  1  0  0  0  0
  9 17  1  0  0  0  0
  7  8  1  0  0  0  0
  7  9  1  0  0  0  0
 21 22  1  0  0  0  0
 21 23  1  0  0  0  0
 21 24  1  0  0  0  0
 19 20  1  0  0  0  0
 19 21  1  0  0  0  0
M  CHG  1  15  -1
M  END
$$$$
default_name
  -OEChem-02102213163D

 24 23  0     1  0  0  0  0  0999 V2000
   -2.8347   -3.7166    0.8034 H   0  0  0  0  0  0  0  0  0  0  0  0
   -2.7728   -2.7096    0.3954 C   0  0  0  0  0  0  0  0  0  0  0  0
   -3.4267   -2.0426    0.9524 H   0  0  0  0  0  0  0  0  0  0  0  0
   -3.0538   -2.7186   -0.6556 H   0  0  0  0  0  0  0  0  0  0  0  0
   -1.3498   -2.2206    0.5184 C   0  0  0  0  0  0  0  0  0  0  0  0
   -0.4997   -2.9426    1.0194 O   0  0  0  0  0  0  0  0  0  0  0  0
   -1.1198   -0.9926    0.0674 N   0  0  0  0  0  0  0  0  0  0  0  0
   -1.8978   -0.4486   -0.2716 H   0  0  0  0  0  0  0  0  0  0  0  0
    0.1693   -0.2866    0.0854 C   0  0  1  0  0  0  0  0  0  0  0  0
    0.8425   -0.7905    0.7811 H   0  0  0  0  0  0  0  0  0  0  0  0
    0.7993   -0.3404   -1.3233 C   0  0  0  0  0  0  0  0  0  0  0  0
   -0.0014   -0.3717   -2.0642 H   0  0  0  0  0  0  0  0  0  0  0  0
    1.3703    0.5759   -1.4886 H   0  0  0  0  0  0  0  0  0  0  0  0
    1.7079   -1.5550   -1.5695 C   0  0  0  0  0  0  0  0  0  0  0  0
    1.3105   -2.6851   -1.2000 O   0  5  0  0  0  0  0  0  0  0  0  0
    2.8118   -1.3367   -2.1136 O   0  0  0  0  0  0  0  0  0  0  0  0
   -0.0374    1.1645    0.5781 C   0  0  0  0  0  0  0  0  0  0  0  0
   -0.9816    1.8416    0.1544 O   0  0  0  0  0  0  0  0  0  0  0  0
    0.8235    1.6462    1.4801 N   0  0  0  0  0  0  0  0  0  0  0  0
    1.6183    1.0435    1.7020 H   0  0  0  0  0  0  0  0  0  0  0  0
    0.7895    2.9929    2.0404 C   0  0  0  0  0  0  0  0  0  0  0  0
   -0.2344    3.2522    2.3130 H   0  0  0  0  0  0  0  0  0  0  0  0
    1.4265    3.0377    2.9233 H   0  0  0  0  0  0  0  0  0  0  0  0
    1.1511    3.7014    1.2950 H   0  0  0  0  0  0  0  0  0  0  0  0
  5  6  2  0  0  0  0
  5  7  1  0  0  0  0
  2  3  1  0  0  0  0
  2  4  1  0  0  0  0
  2  5  1  0  0  0  0
  1  2  1  0  0  0  0
 17 18  2  0  0  0  0
 17 19  1  0  0  0  0
 14 15  1  0  0  0  0
 14 16  2  0  0  0  0
 11 12  1  0  0  0  0
 11 13  1  0  0  0  0
 11 14  1  0  0  0  0
  9 10  1  0  0  0  0
  9 11  1  0  0  0  0
  9 17  1  0  0  0  0
  7  8  1  0  0  0  0
  7  9  1  0  0  0  0
 21 22  1  0  0  0  0
 21 23  1  0  0  0  0
 21 24  1  0  0  0  0
 19 20  1  0  0  0  0
 19 21  1  0  0  0  0
M  CHG  1  15  -1
M  END
$$$$
default_name
  -OEChem-02102213163D

 24 23  0     1  0  0  0  0  0999 V2000
   -2.8347   -3.7166    0.8034 H   0  0  0  0  0  0  0  0  0  0  0  0
   -2.7728   -2.7096    0.3954 C   0  0  0  0  0  0  0  0  0  0  0  0
   -3.4267   -2.0426    0.9524 H   0  0  0  0  0  0  0  0  0  0  0  0
   -3.0538   -2.7186   -0.6556 H   0  0  0  0  0  0  0  0  0  0  0  0
   -1.3498   -2.2206    0.5184 C   0  0  0  0  0  0  0  0  0  0  0  0
   -0.4997   -2.9426    1.0194 O   0  0  0  0  0  0  0  0  0  0  0  0
   -1.1198   -0.9926    0.0674 N   0  0  0  0  0  0  0  0  0  0  0  0
   -1.8978   -0.4486   -0.2716 H   0  0  0  0  0  0  0  0  0  0  0  0
    0.1693   -0.2866    0.0854 C   0  0  1  0  0  0  0  0  0  0  0  0
    0.8425   -0.7905    0.7811 H   0  0  0  0  0  0  0  0  0  0  0  0
    0.7993   -0.3404   -1.3233 C   0  0  0  0  0  0  0  0  0  0  0  0
   -0.0014   -0.3717   -2.0642 H   0  0  0  0  0  0  0  0  0  0  0  0
    1.3703    0.5759   -1.4886 H   0  0  0  0  0  0  0  0  0  0  0  0
    1.7079   -1.5550   -1.5695 C   0  0  0  0  0  0  0  0  0  0  0  0
    1.2137   -2.7028   -1.4701 O   0  5  0  0  0  0  0  0  0  0  0  0
    2.9060   -1.3219   -1.8389 O   0  0  0  0  0  0  0  0  0  0  0  0
   -0.0374    1.1645    0.5781 C   0  0  0  0  0  0  0  0  0  0  0  0
   -0.9816    1.8416    0.1544 O   0  0  0  0  0  0  0  0  0  0  0  0
    0.8235    1.6462    1.4801 N   0  0  0  0  0  0  0  0  0  0  0  0
    1.6183    1.0435    1.7020 H   0  0  0  0  0  0  0  0  0  0  0  0
    0.7895    2.9929    2.0404 C   0  0  0  0  0  0  0  0  0  0  0  0
   -0.2344    3.2522    2.3130 H   0  0  0  0  0  0  0  0  0  0  0  0
    1.4265    3.0377    2.9233 H   0  0  0  0  0  0  0  0  0  0  0  0
    1.1511    3.7014    1.2950 H   0  0  0  0  0  0  0  0  0  0  0  0
  5  6  2  0  0  0  0
  5  7  1  0  0  0  0
  2  3  1  0  0  0  0
  2  4  1  0  0  0  0
  2  5  1  0  0  0  0
  1  2  1  0  0  0  0
 17 18  2  0  0  0  0
 17 19  1  0  0  0  0
 14 15  1  0  0  0  0
 14 16  2  0  0  0  0
 11 12  1  0  0  0  0
 11 13  1  0  0  0  0
 11 14  1  0  0  0  0
  9 10  1  0  0  0  0
  9 11  1  0  0  0  0
  9 17  1  0  0  0  0
  7  8  1  0  0  0  0
  7  9  1  0  0  0  0
 21 22  1  0  0  0  0
 21 23  1  0  0  0  0
 21 24  1  0  0  0  0
 19 20  1  0  0  0  0
 19 21  1  0  0  0  0
M  CHG  1  15  -1
M  END
$$$$
default_name
  -OEChem-02102213163D

 24 23  0     1  0  0  0  0  0999 V2000
   -2.8347   -3.7166    0.8034 H   0  0  0  0  0  0  0  0  0  0  0  0
   -2.7728   -2.7096    0.3954 C   0  0  0  0  0  0  0  0  0  0  0  0
   -3.4267   -2.0426    0.9524 H   0  0  0  0  0  0  0  0  0  0  0  0
   -3.0538   -2.7186   -0.6556 H   0  0  0  0  0  0  0  0  0  0  0  0
   -1.3498   -2.2206    0.5184 C   0  0  0  0  0  0  0  0  0  0  0  0
   -0.4997   -2.9426    1.0194 O   0  0  0  0  0  0  0  0  0  0  0  0
   -1.1198   -0.9926    0.0674 N   0  0  0  0  0  0  0  0  0  0  0  0
   -1.8978   -0.4486   -0.2716 H   0  0  0  0  0  0  0  0  0  0  0  0
    0.1693   -0.2866    0.0854 C   0  0  1  0  0  0  0  0  0  0  0  0
    0.8425   -0.7905    0.7811 H   0  0  0  0  0  0  0  0  0  0  0  0
    0.7993   -0.3404   -1.3233 C   0  0  0  0  0  0  0  0  0  0  0  0
   -0.0014   -0.3717   -2.0642 H   0  0  0  0  0  0  0  0  0  0  0  0
    1.3703    0.5759   -1.4886 H   0  0  0  0  0  0  0  0  0  0  0  0
    1.7079   -1.5550   -1.5695 C   0  0  0  0  0  0  0  0  0  0  0  0
    1.1747   -2.6745   -1.7535 O   0  5  0  0  0  0  0  0  0  0  0  0
    2.9413   -1.3536   -1.5521 O   0  0  0  0  0  0  0  0  0  0  0  0
   -0.0374    1.1645    0.5781 C   0  0  0  0  0  0  0  0  0  0  0  0
   -0.9816    1.8416    0.1544 O   0  0  0  0  0  0  0  0  0  0  0  0
    0.8235    1.6462    1.4801 N   0  0  0  0  0  0  0  0  0  0  0  0
    1.6183    1.0435    1.7020 H   0  0  0  0  0  0  0  0  0  0  0  0
    0.7895    2.9929    2.0404 C   0  0  0  0  0  0  0  0  0  0  0  0
   -0.2344    3.2522    2.3130 H   0  0  0  0  0  0  0  0  0  0  0  0
    1.4265    3.0377    2.9233 H   0  0  0  0  0  0  0  0  0  0  0  0
    1.1511    3.7014    1.2950 H   0  0  0  0  0  0  0  0  0  0  0  0
  5  6  2  0  0  0  0
  5  7  1  0  0  0  0
  2  3  1  0  0  0  0
  2  4  1  0  0  0  0
  2  5  1  0  0  0  0
  1  2  1  0  0  0  0
 17 18  2  0  0  0  0
 17 19  1  0  0  0  0
 14 15  1  0  0  0  0
 14 16  2  0  0  0  0
 11 12  1  0  0  0  0
 11 13  1  0  0  0  0
 11 14  1  0  0  0  0
  9 10  1  0  0  0  0
  9 11  1  0  0  0  0
  9 17  1  0  0  0  0
  7  8  1  0  0  0  0
  7  9  1  0  0  0  0
 21 22  1  0  0  0  0
 21 23  1  0  0  0  0
 21 24  1  0  0  0  0
 19 20  1  0  0  0  0
 19 21  1  0  0  0  0
M  CHG  1  15  -1
M  END
$$$$
default_name
  -OEChem-02102213163D

 24 23  0     1  0  0  0  0  0999 V2000
   -2.8347   -3.7166    0.8034 H   0  0  0  0  0  0  0  0  0  0  0  0
   -2.7728   -2.7096    0.3954 C   0  0  0  0  0  0  0  0  0  0  0  0
   -3.4267   -2.0426    0.9524 H   0  0  0  0  0  0  0  0  0  0  0  0
   -3.0538   -2.7186   -0.6556 H   0  0  0  0  0  0  0  0  0  0  0  0
   -1.3498   -2.2206    0.5184 C   0  0  0  0  0  0  0  0  0  0  0  0
   -0.4997   -2.9426    1.0194 O   0  0  0  0  0  0  0  0  0  0  0  0
   -1.1198   -0.9926    0.0674 N   0  0  0  0  0  0  0  0  0  0  0  0
   -1.8978   -0.4486   -0.2716 H   0  0  0  0  0  0  0  0  0  0  0  0
    0.1693   -0.2866    0.0854 C   0  0  1  0  0  0  0  0  0  0  0  0
    0.8425   -0.7905    0.7811 H   0  0  0  0  0  0  0  0  0  0  0  0
    0.7993   -0.3404   -1.3233 C   0  0  0  0  0  0  0  0  0  0  0  0
   -0.0014   -0.3717   -2.0642 H   0  0  0  0  0  0  0  0  0  0  0  0
    1.3703    0.5759   -1.4886 H   0  0  0  0  0  0  0  0  0  0  0  0
    1.7079   -1.5550   -1.5695 C   0  0  0  0  0  0  0  0  0  0  0  0
    1.1961   -2.6022   -2.0310 O   0  5  0  0  0  0  0  0  0  0  0  0
    2.9155   -1.4295   -1.2726 O   0  0  0  0  0  0  0  0  0  0  0  0
   -0.0374    1.1645    0.5781 C   0  0  0  0  0  0  0  0  0  0  0  0
   -0.9816    1.8416    0.1544 O   0  0  0  0  0  0  0  0  0  0  0  0
    0.8235    1.6462    1.4801 N   0  0  0  0  0  0  0  0  0  0  0  0
    1.6183    1.0435    1.7020 H   0  0  0  0  0  0  0  0  0  0  0  0
    0.7895    2.9929    2.0404 C   0  0  0  0  0  0  0  0  0  0  0  0
   -0.2344    3.2522    2.3130 H   0  0  0  0  0  0  0  0  0  0  0  0
    1.4265    3.0377    2.9233 H   0  0  0  0  0  0  0  0  0  0  0  0
    1.1511    3.7014    1.2950 H   0  0  0  0  0  0  0  0  0  0  0  0
  5  6  2  0  0  0  0
  5  7  1  0  0  0  0
  2  3  1  0  0  0  0
  2  4  1  0  0  0  0
  2  5  1  0  0  0  0
  1  2  1  0  0  0  0
 17 18  2  0  0  0  0
 17 19  1  0  0  0  0
 14 15  1  0  0  0  0
 14 16  2  0  0  0  0
 11 12  1  0  0  0  0
 11 13  1  0  0  0  0
 11 14  1  0  0  0  0
  9 10  1  0  0  0  0
  9 11  1  0  0  0  0
  9 17  1  0  0  0  0
  7  8  1  0  0  0  0
  7  9  1  0  0  0  0
 21 22  1  0  0  0  0
 21 23  1  0  0  0  0
 21 24  1  0  0  0  0
 19 20  1  0  0  0  0
 19 21  1  0  0  0  0
M  CHG  1  15  -1
M  END
$$$$
default_name
  -OEChem-02102213163D

 24 23  0     1  0  0  0  0  0999 V2000
   -2.8347   -3.7166    0.8034 H   0  0  0  0  0  0  0  0  0  0  0  0
   -2.7728   -2.7096    0.3954 C   0  0  0  0  0  0  0  0  0  0  0  0
   -3.4267   -2.0426    0.9524 H   0  0  0  0  0  0  0  0  0  0  0  0
   -3.0538   -2.7186   -0.6556 H   0  0  0  0  0  0  0  0  0  0  0  0
   -1.3498   -2.2206    0.5184 C   0  0  0  0  0  0  0  0  0  0  0  0
   -0.4997   -2.9426    1.0194 O   0  0  0  0  0  0  0  0  0  0  0  0
   -1.1198   -0.9926    0.0674 N   0  0  0  0  0  0  0  0  0  0  0  0
   -1.8978   -0.4486   -0.2716 H   0  0  0  0  0  0  0  0  0  0  0  0
    0.1693   -0.2866    0.0854 C   0  0  1  0  0  0  0  0  0  0  0  0
    0.8425   -0.7905    0.7811 H   0  0  0  0  0  0  0  0  0  0  0  0
    0.7993   -0.3404   -1.3233 C   0  0  0  0  0  0  0  0  0  0  0  0
   -0.0014   -0.3717   -2.0642 H   0  0  0  0  0  0  0  0  0  0  0  0
    1.3703    0.5759   -1.4886 H   0  0  0  0  0  0  0  0  0  0  0  0
    1.7079   -1.5550   -1.5695 C   0  0  0  0  0  0  0  0  0  0  0  0
    1.2766   -2.4908   -2.2835 O   0  5  0  0  0  0  0  0  0  0  0  0
    2.8303   -1.5446   -1.0196 O   0  0  0  0  0  0  0  0  0  0  0  0
   -0.0374    1.1645    0.5781 C   0  0  0  0  0  0  0  0  0  0  0  0
   -0.9816    1.8416    0.1544 O   0  0  0  0  0  0  0  0  0  0  0  0
    0.8235    1.6462    1.4801 N   0  0  0  0  0  0  0  0  0  0  0  0
    1.6183    1.0435    1.7020 H   0  0  0  0  0  0  0  0  0  0  0  0
    0.7895    2.9929    2.0404 C   0  0  0  0  0  0  0  0  0  0  0  0
   -0.2344    3.2522    2.3130 H   0  0  0  0  0  0  0  0  0  0  0  0
    1.4265    3.0377    2.9233 H   0  0  0  0  0  0  0  0  0  0  0  0
    1.1511    3.7014    1.2950 H   0  0  0  0  0  0  0  0  0  0  0  0
  5  6  2  0  0  0  0
  5  7  1  0  0  0  0
  2  3  1  0  0  0  0
  2  4  1  0  0  0  0
  2  5  1  0  0  0  0
  1  2  1  0  0  0  0
 17 18  2  0  0  0  0
 17 19  1  0  0  0  0
 14 15  1  0  0  0  0
 14 16  2  0  0  0  0
 11 12  1  0  0  0  0
 11 13  1  0  0  0  0
 11 14  1  0  0  0  0
  9 10  1  0  0  0  0
  9 11  1  0  0  0  0
  9 17  1  0  0  0  0
  7  8  1  0  0  0  0
  7  9  1  0  0  0  0
 21 22  1  0  0  0  0
 21 23  1  0  0  0  0
 21 24  1  0  0  0  0
 19 20  1  0  0  0  0
 19 21  1  0  0  0  0
M  CHG  1  15  -1
M  END
$$$$
default_name
  -OEChem-02102213163D

 24 23  0     1  0  0  0  0  0999 V2000
   -2.8347   -3.7166    0.8034 H   0  0  0  0  0  0  0  0  0  0  0  0
   -2.7728   -2.7096    0.3954 C   0  0  0  0  0  0  0  0  0  0  0  0
   -3.4267   -2.0426    0.9524 H   0  0  0  0  0  0  0  0  0  0  0  0
   -3.0538   -2.7186   -0.6556 H   0  0  0  0  0  0  0  0  0  0  0  0
   -1.3498   -2.2206    0.5184 C   0  0  0  0  0  0  0  0  0  0  0  0
   -0.4997   -2.9426    1.0194 O   0  0  0  0  0  0  0  0  0  0  0  0
   -1.1198   -0.9926    0.0674 N   0  0  0  0  0  0  0  0  0  0  0  0
   -1.8978   -0.4486   -0.2716 H   0  0  0  0  0  0  0  0  0  0  0  0
    0.1693   -0.2866    0.0854 C   0  0  1  0  0  0  0  0  0  0  0  0
    0.8425   -0.7905    0.7811 H   0  0  0  0  0  0  0  0  0  0  0  0
    0.7993   -0.3404   -1.3233 C   0  0  0  0  0  0  0  0  0  0  0  0
   -0.0014   -0.3717   -2.0642 H   0  0  0  0  0  0  0  0  0  0  0  0
    1.3703    0.5759   -1.4886 H   0  0  0  0  0  0  0  0  0  0  0  0
    1.7079   -1.5550   -1.5695 C   0  0  0  0  0  0  0  0  0  0  0  0
    1.4106   -2.3479   -2.4939 O   0  5  0  0  0  0  0  0  0  0  0  0
    2.6914   -1.6909   -0.8103 O   0  0  0  0  0  0  0  0  0  0  0  0
   -0.0374    1.1645    0.5781 C   0  0  0  0  0  0  0  0  0  0  0  0
   -0.9816    1.8416    0.1544 O   0  0  0  0  0  0  0  0  0  0  0  0
    0.8235    1.6462    1.4801 N   0  0  0  0  0  0  0  0  0  0  0  0
    1.6183    1.0435    1.7020 H   0  0  0  0  0  0  0  0  0  0  0  0
    0.7895    2.9929    2.0404 C   0  0  0  0  0  0  0  0  0  0  0  0
   -0.2344    3.2522    2.3130 H   0  0  0  0  0  0  0  0  0  0  0  0
    1.4265    3.0377    2.9233 H   0  0  0  0  0  0  0  0  0  0  0  0
    1.1511    3.7014    1.2950 H   0  0  0  0  0  0  0  0  0  0  0  0
  5  6  2  0  0  0  0
  5  7  1  0  0  0  0
  2  3  1  0  0  0  0
  2  4  1  0  0  0  0
  2  5  1  0  0  0  0
  1  2  1  0  0  0  0
 17 18  2  0  0  0  0
 17 19  1  0  0  0  0
 14 15  1  0  0  0  0
 14 16  2  0  0  0  0
 11 12  1  0  0  0  0
 11 13  1  0  0  0  0
 11 14  1  0  0  0  0
  9 10  1  0  0  0  0
  9 11  1  0  0  0  0
  9 17  1  0  0  0  0
  7  8  1  0  0  0  0
  7  9  1  0  0  0  0
 21 22  1  0  0  0  0
 21 23  1  0  0  0  0
 21 24  1  0  0  0  0
 19 20  1  0  0  0  0
 19 21  1  0  0  0  0
M  CHG  1  15  -1
M  END
$$$$
default_name
  -OEChem-02102213163D

 24 23  0     1  0  0  0  0  0999 V2000
   -2.8347   -3.7166    0.8034 H   0  0  0  0  0  0  0  0  0  0  0  0
   -2.7728   -2.7096    0.3954 C   0  0  0  0  0  0  0  0  0  0  0  0
   -3.4267   -2.0426    0.9524 H   0  0  0  0  0  0  0  0  0  0  0  0
   -3.0538   -2.7186   -0.6556 H   0  0  0  0  0  0  0  0  0  0  0  0
   -1.3498   -2.2206    0.5184 C   0  0  0  0  0  0  0  0  0  0  0  0
   -0.4997   -2.9426    1.0194 O   0  0  0  0  0  0  0  0  0  0  0  0
   -1.1198   -0.9926    0.0674 N   0  0  0  0  0  0  0  0  0  0  0  0
   -1.8978   -0.4486   -0.2716 H   0  0  0  0  0  0  0  0  0  0  0  0
    0.1693   -0.2866    0.0854 C   0  0  1  0  0  0  0  0  0  0  0  0
    0.8425   -0.7905    0.7811 H   0  0  0  0  0  0  0  0  0  0  0  0
    0.7993   -0.3404   -1.3233 C   0  0  0  0  0  0  0  0  0  0  0  0
   -0.0014   -0.3717   -2.0642 H   0  0  0  0  0  0  0  0  0  0  0  0
    1.3703    0.5759   -1.4886 H   0  0  0  0  0  0  0  0  0  0  0  0
    1.7079   -1.5550   -1.5695 C   0  0  0  0  0  0  0  0  0  0  0  0
    1.5890   -2.1832   -2.6478 O   0  5  0  0  0  0  0  0  0  0  0  0
    2.5084   -1.8585   -0.6588 O   0  0  0  0  0  0  0  0  0  0  0  0
   -0.0374    1.1645    0.5781 C   0  0  0  0  0  0  0  0  0  0  0  0
   -0.9816    1.8416    0.1544 O   0  0  0  0  0  0  0  0  0  0  0  0
    0.8235    1.6462    1.4801 N   0  0  0  0  0  0  0  0  0  0  0  0
    1.6183    1.0435    1.7020 H   0  0  0  0  0  0  0  0  0  0  0  0
    0.7895    2.9929    2.0404 C   0  0  0  0  0  0  0  0  0  0  0  0
   -0.2344    3.2522    2.3130 H   0  0  0  0  0  0  0  0  0  0  0  0
    1.4265    3.0377    2.9233 H   0  0  0  0  0  0  0  0  0  0  0  0
    1.1511    3.7014    1.2950 H   0  0  0  0  0  0  0  0  0  0  0  0
  5  6  2  0  0  0  0
  5  7  1  0  0  0  0
  2  3  1  0  0  0  0
  2  4  1  0  0  0  0
  2  5  1  0  0  0  0
  1  2  1  0  0  0  0
 17 18  2  0  0  0  0
 17 19  1  0  0  0  0
 14 15  1  0  0  0  0
 14 16  2  0  0  0  0
 11 12  1  0  0  0  0
 11 13  1  0  0  0  0
 11 14  1  0  0  0  0
  9 10  1  0  0  0  0
  9 11  1  0  0  0  0
  9 17  1  0  0  0  0
  7  8  1  0  0  0  0
  7  9  1  0  0  0  0
 21 22  1  0  0  0  0
 21 23  1  0  0  0  0
 21 24  1  0  0  0  0
 19 20  1  0  0  0  0
 19 21  1  0  0  0  0
M  CHG  1  15  -1
M  END
$$$$
default_name
  -OEChem-02102213163D

 24 23  0     1  0  0  0  0  0999 V2000
   -2.8347   -3.7166    0.8034 H   0  0  0  0  0  0  0  0  0  0  0  0
   -2.7728   -2.7096    0.3954 C   0  0  0  0  0  0  0  0  0  0  0  0
   -3.4267   -2.0426    0.9524 H   0  0  0  0  0  0  0  0  0  0  0  0
   -3.0538   -2.7186   -0.6556 H   0  0  0  0  0  0  0  0  0  0  0  0
   -1.3498   -2.2206    0.5184 C   0  0  0  0  0  0  0  0  0  0  0  0
   -0.4997   -2.9426    1.0194 O   0  0  0  0  0  0  0  0  0  0  0  0
   -1.1198   -0.9926    0.0674 N   0  0  0  0  0  0  0  0  0  0  0  0
   -1.8978   -0.4486   -0.2716 H   0  0  0  0  0  0  0  0  0  0  0  0
    0.1693   -0.2866    0.0854 C   0  0  1  0  0  0  0  0  0  0  0  0
    0.8425   -0.7905    0.7811 H   0  0  0  0  0  0  0  0  0  0  0  0
    0.7993   -0.3404   -1.3233 C   0  0  0  0  0  0  0  0  0  0  0  0
   -0.0014   -0.3717   -2.0642 H   0  0  0  0  0  0  0  0  0  0  0  0
    1.3703    0.5759   -1.4886 H   0  0  0  0  0  0  0  0  0  0  0  0
    1.7079   -1.5550   -1.5695 C   0  0  0  0  0  0  0  0  0  0  0  0
    1.7997   -2.0080   -2.7348 O   0  5  0  0  0  0  0  0  0  0  0  0
    2.2936   -2.0360   -0.5757 O   0  0  0  0  0  0  0  0  0  0  0  0
   -0.0374    1.1645    0.5781 C   0  0  0  0  0  0  0  0  0  0  0  0
   -0.9816    1.8416    0.1544 O   0  0  0  0  0  0  0  0  0  0  0  0
    0.8235    1.6462    1.4801 N   0  0  0  0  0  0  0  0  0  0  0  0
    1.6183    1.0435    1.7020 H   0  0  0  0  0  0  0  0  0  0  0  0
    0.7895    2.9929    2.0404 C   0  0  0  0  0  0  0  0  0  0  0  0
   -0.2344    3.2522    2.3130 H   0  0  0  0  0  0  0  0  0  0  0  0
    1.4265    3.0377    2.9233 H   0  0  0  0  0  0  0  0  0  0  0  0
    1.1511    3.7014    1.2950 H   0  0  0  0  0  0  0  0  0  0  0  0
  5  6  2  0  0  0  0
  5  7  1  0  0  0  0
  2  3  1  0  0  0  0
  2  4  1  0  0  0  0
  2  5  1  0  0  0  0
  1  2  1  0  0  0  0
 17 18  2  0  0  0  0
 17 19  1  0  0  0  0
 14 15  1  0  0  0  0
 14 16  2  0  0  0  0
 11 12  1  0  0  0  0
 11 13  1  0  0  0  0
 11 14  1  0  0  0  0
  9 10  1  0  0  0  0
  9 11  1  0  0  0  0
  9 17  1  0  0  0  0
  7  8  1  0  0  0  0
  7  9  1  0  0  0  0
 21 22  1  0  0  0  0
 21 23  1  0  0  0  0
 21 24  1  0  0  0  0
 19 20  1  0  0  0  0
 19 21  1  0  0  0  0
M  CHG  1  15  -1
M  END
$$$$
default_name
  -OEChem-02102213163D

 24 23  0     1  0  0  0  0  0999 V2000
   -2.8347   -3.7166    0.8034 H   0  0  0  0  0  0  0  0  0  0  0  0
   -2.7728   -2.7096    0.3954 C   0  0  0  0  0  0  0  0  0  0  0  0
   -3.4267   -2.0426    0.9524 H   0  0  0  0  0  0  0  0  0  0  0  0
   -3.0538   -2.7186   -0.6556 H   0  0  0  0  0  0  0  0  0  0  0  0
   -1.3498   -2.2206    0.5184 C   0  0  0  0  0  0  0  0  0  0  0  0
   -0.4997   -2.9426    1.0194 O   0  0  0  0  0  0  0  0  0  0  0  0
   -1.1198   -0.9926    0.0674 N   0  0  0  0  0  0  0  0  0  0  0  0
   -1.8978   -0.4486   -0.2716 H   0  0  0  0  0  0  0  0  0  0  0  0
    0.1693   -0.2866    0.0854 C   0  0  1  0  0  0  0  0  0  0  0  0
    0.8425   -0.7905    0.7811 H   0  0  0  0  0  0  0  0  0  0  0  0
    0.7993   -0.3404   -1.3233 C   0  0  0  0  0  0  0  0  0  0  0  0
   -0.0014   -0.3717   -2.0642 H   0  0  0  0  0  0  0  0  0  0  0  0
    1.3703    0.5759   -1.4886 H   0  0  0  0  0  0  0  0  0  0  0  0
    1.7079   -1.5550   -1.5695 C   0  0  0  0  0  0  0  0  0  0  0  0
    2.0282   -1.8342   -2.7489 O   0  5  0  0  0  0  0  0  0  0  0  0
    2.0619   -2.2113   -0.5665 O   0  0  0  0  0  0  0  0  0  0  0  0
   -0.0374    1.1645    0.5781 C   0  0  0  0  0  0  0  0  0  0  0  0
   -0.9816    1.8416    0.1544 O   0  0  0  0  0  0  0  0  0  0  0  0
    0.8235    1.6462    1.4801 N   0  0  0  0  0  0  0  0  0  0  0  0
    1.6183    1.0435    1.7020 H   0  0  0  0  0  0  0  0  0  0  0  0
    0.7895    2.9929    2.0404 C   0  0  0  0  0  0  0  0  0  0  0  0
   -0.2344    3.2522    2.3130 H   0  0  0  0  0  0  0  0  0  0  0  0
    1.4265    3.0377    2.9233 H   0  0  0  0  0  0  0  0  0  0  0  0
    1.1511    3.7014    1.2950 H   0  0  0  0  0  0  0  0  0  0  0  0
  5  6  2  0  0  0  0
  5  7  1  0  0  0  0
  2  3  1  0  0  0  0
  2  4  1  0  0  0  0
  2  5  1  0  0  0  0
  1  2  1  0  0  0  0
 17 18  2  0  0  0  0
 17 19  1  0  0  0  0
 14 15  1  0  0  0  0
 14 16  2  0  0  0  0
 11 12  1  0  0  0  0
 11 13  1  0  0  0  0
 11 14  1  0  0  0  0
  9 10  1  0  0  0  0
  9 11  1  0  0  0  0
  9 17  1  0  0  0  0
  7  8  1  0  0  0  0
  7  9  1  0  0  0  0
 21 22  1  0  0  0  0
 21 23  1  0  0  0  0
 21 24  1  0  0  0  0
 19 20  1  0  0  0  0
 19 21  1  0  0  0  0
M  CHG  1  15  -1
M  END
$$$$
default_name
  -OEChem-02102213163D

 24 23  0     1  0  0  0  0  0999 V2000
   -2.8347   -3.7166    0.8034 H   0  0  0  0  0  0  0  0  0  0  0  0
   -2.7728   -2.7096    0.3954 C   0  0  0  0  0  0  0  0  0  0  0  0
   -3.4267   -2.0426    0.9524 H   0  0  0  0  0  0  0  0  0  0  0  0
   -3.0538   -2.7186   -0.6556 H   0  0  0  0  0  0  0  0  0  0  0  0
   -1.3498   -2.2206    0.5184 C   0  0  0  0  0  0  0  0  0  0  0  0
   -0.4997   -2.9426    1.0194 O   0  0  0  0  0  0  0  0  0  0  0  0
   -1.1198   -0.9926    0.0674 N   0  0  0  0  0  0  0  0  0  0  0  0
   -1.8978   -0.4486   -0.2716 H   0  0  0  0  0  0  0  0  0  0  0  0
    0.1693   -0.2866    0.0854 C   0  0  1  0  0  0  0  0  0  0  0  0
    0.8425   -0.7905    0.7811 H   0  0  0  0  0  0  0  0  0  0  0  0
    0.7993   -0.3404   -1.3233 C   0  0  0  0  0  0  0  0  0  0  0  0
    0.0300   -0.1037   -2.0604 H   0  0  0  0  0  0  0  0  0  0  0  0
    1.5736    0.4269   -1.3920 H   0  0  0  0  0  0  0  0  0  0  0  0
    1.4013   -1.7029   -1.7010 C   0  0  0  0  0  0  0  0  0  0  0  0
    1.9331   -1.8308   -2.8290 O   0  5  0  0  0  0  0  0  0  0  0  0
    1.3058   -2.6191   -0.8563 O   0  0  0  0  0  0  0  0  0  0  0  0
   -0.0374    1.1645    0.5781 C   0  0  0  0  0  0  0  0  0  0  0  0
   -0.9816    1.8416    0.1544 O   0  0  0  0  0  0  0  0  0  0  0  0
    0.8235    1.6462    1.4801 N   0  0  0  0  0  0  0  0  0  0  0  0
    1.6183    1.0435    1.7020 H   0  0  0  0  0  0  0  0  0  0  0  0
    0.7895    2.9929    2.0404 C   0  0  0  0  0  0  0  0  0  0  0  0
   -0.2344    3.2522    2.3130 H   0  0  0  0  0  0  0  0  0  0  0  0
    1.4265    3.0377    2.9233 H   0  0  0  0  0  0  0  0  0  0  0  0
    1.1511    3.7014    1.2950 H   0  0  0  0  0  0  0  0  0  0  0  0
  5  6  2  0  0  0  0
  5  7  1  0  0  0  0
  2  3  1  0  0  0  0
  2  4  1  0  0  0  0
  2  5  1  0  0  0  0
  1  2  1  0  0  0  0
 17 18  2  0  0  0  0
 17 19  1  0  0  0  0
 14 15  1  0  0  0  0
 14 16  2  0  0  0  0
 11 12  1  0  0  0  0
 11 13  1  0  0  0  0
 11 14  1  0  0  0  0
  9 10  1  0  0  0  0
  9 11  1  0  0  0  0
  9 17  1  0  0  0  0
  7  8  1  0  0  0  0
  7  9  1  0  0  0  0
 21 22  1  0  0  0  0
 21 23  1  0  0  0  0
 21 24  1  0  0  0  0
 19 20  1  0  0  0  0
 19 21  1  0  0  0  0
M  CHG  1  15  -1
M  END
$$$$
default_name
  -OEChem-02102213163D

 24 23  0     1  0  0  0  0  0999 V2000
   -2.8347   -3.7166    0.8034 H   0  0  0  0  0  0  0  0  0  0  0  0
   -2.7728   -2.7096    0.3954 C   0  0  0  0  0  0  0  0  0  0  0  0
   -3.4267   -2.0426    0.9524 H   0  0  0  0  0  0  0  0  0  0  0  0
   -3.0538   -2.7186   -0.6556 H   0  0  0  0  0  0  0  0  0  0  0  0
   -1.3498   -2.2206    0.5184 C   0  0  0  0  0  0  0  0  0  0  0  0
   -0.4997   -2.9426    1.0194 O   0  0  0  0  0  0  0  0  0  0  0  0
   -1.1198   -0.9926    0.0674 N   0  0  0  0  0  0  0  0  0  0  0  0
   -1.8978   -0.4486   -0.2716 H   0  0  0  0  0  0  0  0  0  0  0  0
    0.1693   -0.2866    0.0854 C   0  0  1  0  0  0  0  0  0  0  0  0
    0.8425   -0.7905    0.7811 H   0  0  0  0  0  0  0  0  0  0  0  0
    0.7993   -0.3404   -1.3233 C   0  0  0  0  0  0  0  0  0  0  0  0
    0.0300   -0.1037   -2.0604 H   0  0  0  0  0  0  0  0  0  0  0  0
    1.5736    0.4269   -1.3920 H   0  0  0  0  0  0  0  0  0  0  0  0
    1.4013   -1.7029   -1.7010 C   0  0  0  0  0  0  0  0  0  0  0  0
    2.1737   -1.7640   -2.6866 O   0  5  0  0  0  0  0  0  0  0  0  0
    1.0645   -2.6846   -1.0046 O   0  0  0  0  0  0  0  0  0  0  0  0
   -0.0374    1.1645    0.5781 C   0  0  0  0  0  0  0  0  0  0  0  0
   -0.9816    1.8416    0.1544 O   0  0  0  0  0  0  0  0  0  0  0  0
    0.8235    1.6462    1.4801 N   0  0  0  0  0  0  0  0  0  0  0  0
    1.6183    1.0435    1.7020 H   0  0  0  0  0  0  0  0  0  0  0  0
    0.7895    2.9929    2.0404 C   0  0  0  0  0  0  0  0  0  0  0  0
   -0.2344    3.2522    2.3130 H   0  0  0  0  0  0  0  0  0  0  0  0
    1.4265    3.0377    2.9233 H   0  0  0  0  0  0  0  0  0  0  0  0
    1.1511    3.7014    1.2950 H   0  0  0  0  0  0  0  0  0  0  0  0
  5  6  2  0  0  0  0
  5  7  1  0  0  0  0
  2  3  1  0  0  0  0
  2  4  1  0  0  0  0
  2  5  1  0  0  0  0
  1  2  1  0  0  0  0
 17 18  2  0  0  0  0
 17 19  1  0  0  0  0
 14 15  1  0  0  0  0
 14 16  2  0  0  0  0
 11 12  1  0  0  0  0
 11 13  1  0  0  0  0
 11 14  1  0  0  0  0
  9 10  1  0  0  0  0
  9 11  1  0  0  0  0
  9 17  1  0  0  0  0
  7  8  1  0  0  0  0
  7  9  1  0  0  0  0
 21 22  1  0  0  0  0
 21 23  1  0  0  0  0
 21 24  1  0  0  0  0
 19 20  1  0  0  0  0
 19 21  1  0  0  0  0
M  CHG  1  15  -1
M  END
$$$$
default_name
  -OEChem-02102213163D

 24 23  0     1  0  0  0  0  0999 V2000
   -2.8347   -3.7166    0.8034 H   0  0  0  0  0  0  0  0  0  0  0  0
   -2.7728   -2.7096    0.3954 C   0  0  0  0  0  0  0  0  0  0  0  0
   -3.4267   -2.0426    0.9524 H   0  0  0  0  0  0  0  0  0  0  0  0
   -3.0538   -2.7186   -0.6556 H   0  0  0  0  0  0  0  0  0  0  0  0
   -1.3498   -2.2206    0.5184 C   0  0  0  0  0  0  0  0  0  0  0  0
   -0.4997   -2.9426    1.0194 O   0  0  0  0  0  0  0  0  0  0  0  0
   -1.1198   -0.9926    0.0674 N   0  0  0  0  0  0  0  0  0  0  0  0
   -1.8978   -0.4486   -0.2716 H   0  0  0  0  0  0  0  0  0  0  0  0
    0.1693   -0.2866    0.0854 C   0  0  1  0  0  0  0  0  0  0  0  0
    0.8425   -0.7905    0.7811 H   0  0  0  0  0  0  0  0  0  0  0  0
    0.7993   -0.3404   -1.3233 C   0  0  0  0  0  0  0  0  0  0  0  0
    0.0300   -0.1037   -2.0604 H   0  0  0  0  0  0  0  0  0  0  0  0
    1.5736    0.4269   -1.3920 H   0  0  0  0  0  0  0  0  0  0  0  0
    1.4013   -1.7029   -1.7010 C   0  0  0  0  0  0  0  0  0  0  0  0
    2.3776   -1.7293   -2.4869 O   0  5  0  0  0  0  0  0  0  0  0  0
    0.8612   -2.7174   -1.2099 O   0  0  0  0  0  0  0  0  0  0  0  0
   -0.0374    1.1645    0.5781 C   0  0  0  0  0  0  0  0  0  0  0  0
   -0.9816    1.8416    0.1544 O   0  0  0  0  0  0  0  0  0  0  0  0
    0.8235    1.6462    1.4801 N   0  0  0  0  0  0  0  0  0  0  0  0
    1.6183    1.0435    1.7020 H   0  0  0  0  0  0  0  0  0  0  0  0
    0.7895    2.9929    2.0404 C   0  0  0  0  0  0  0  0  0  0  0  0
   -0.2344    3.2522    2.3130 H   0  0  0  0  0  0  0  0  0  0  0  0
    1.4265    3.0377    2.9233 H   0  0  0  0  0  0  0  0  0  0  0  0
    1.1511    3.7014    1.2950 H   0  0  0  0  0  0  0  0  0  0  0  0
  5  6  2  0  0  0  0
  5  7  1  0  0  0  0
  2  3  1  0  0  0  0
  2  4  1  0  0  0  0
  2  5  1  0  0  0  0
  1  2  1  0  0  0  0
 17 18  2  0  0  0  0
 17 19  1  0  0  0  0
 14 15  1  0  0  0  0
 14 16  2  0  0  0  0
 11 12  1  0  0  0  0
 11 13  1  0  0  0  0
 11 14  1  0  0  0  0
  9 10  1  0  0  0  0
  9 11  1  0  0  0  0
  9 17  1  0  0  0  0
  7  8  1  0  0  0  0
  7  9  1  0  0  0  0
 21 22  1  0  0  0  0
 21 23  1  0  0  0  0
 21 24  1  0  0  0  0
 19 20  1  0  0  0  0
 19 21  1  0  0  0  0
M  CHG  1  15  -1
M  END
$$$$
default_name
  -OEChem-02102213163D

 24 23  0     1  0  0  0  0  0999 V2000
   -2.8347   -3.7166    0.8034 H   0  0  0  0  0  0  0  0  0  0  0  0
   -2.7728   -2.7096    0.3954 C   0  0  0  0  0  0  0  0  0  0  0  0
   -3.4267   -2.0426    0.9524 H   0  0  0  0  0  0  0  0  0  0  0  0
   -3.0538   -2.7186   -0.6556 H   0  0  0  0  0  0  0  0  0  0  0  0
   -1.3498   -2.2206    0.5184 C   0  0  0  0  0  0  0  0  0  0  0  0
   -0.4997   -2.9426    1.0194 O   0  0  0  0  0  0  0  0  0  0  0  0
   -1.1198   -0.9926    0.0674 N   0  0  0  0  0  0  0  0  0  0  0  0
   -1.8978   -0.4486   -0.2716 H   0  0  0  0  0  0  0  0  0  0  0  0
    0.1693   -0.2866    0.0854 C   0  0  1  0  0  0  0  0  0  0  0  0
    0.8425   -0.7905    0.7811 H   0  0  0  0  0  0  0  0  0  0  0  0
    0.7993   -0.3404   -1.3233 C   0  0  0  0  0  0  0  0  0  0  0  0
    0.0300   -0.1037   -2.0604 H   0  0  0  0  0  0  0  0  0  0  0  0
    1.5736    0.4269   -1.3920 H   0  0  0  0  0  0  0  0  0  0  0  0
    1.4013   -1.7029   -1.7010 C   0  0  0  0  0  0  0  0  0  0  0  0
    2.5310   -1.7289   -2.2438 O   0  5  0  0  0  0  0  0  0  0  0  0
    0.7100   -2.7154   -1.4582 O   0  0  0  0  0  0  0  0  0  0  0  0
   -0.0374    1.1645    0.5781 C   0  0  0  0  0  0  0  0  0  0  0  0
   -0.9816    1.8416    0.1544 O   0  0  0  0  0  0  0  0  0  0  0  0
    0.8235    1.6462    1.4801 N   0  0  0  0  0  0  0  0  0  0  0  0
    1.6183    1.0435    1.7020 H   0  0  0  0  0  0  0  0  0  0  0  0
    0.7895    2.9929    2.0404 C   0  0  0  0  0  0  0  0  0  0  0  0
   -0.2344    3.2522    2.3130 H   0  0  0  0  0  0  0  0  0  0  0  0
    1.4265    3.0377    2.9233 H   0  0  0  0  0  0  0  0  0  0  0  0
    1.1511    3.7014    1.2950 H   0  0  0  0  0  0  0  0  0  0  0  0
  5  6  2  0  0  0  0
  5  7  1  0  0  0  0
  2  3  1  0  0  0  0
  2  4  1  0  0  0  0
  2  5  1  0  0  0  0
  1  2  1  0  0  0  0
 17 18  2  0  0  0  0
 17 19  1  0  0  0  0
 14 15  1  0  0  0  0
 14 16  2  0  0  0  0
 11 12  1  0  0  0  0
 11 13  1  0  0  0  0
 11 14  1  0  0  0  0
  9 10  1  0  0  0  0
  9 11  1  0  0  0  0
  9 17  1  0  0  0  0
  7  8  1  0  0  0  0
  7  9  1  0  0  0  0
 21 22  1  0  0  0  0
 21 23  1  0  0  0  0
 21 24  1  0  0  0  0
 19 20  1  0  0  0  0
 19 21  1  0  0  0  0
M  CHG  1  15  -1
M  END
$$$$
default_name
  -OEChem-02102213163D

 24 23  0     1  0  0  0  0  0999 V2000
   -2.8347   -3.7166    0.8034 H   0  0  0  0  0  0  0  0  0  0  0  0
   -2.7728   -2.7096    0.3954 C   0  0  0  0  0  0  0  0  0  0  0  0
   -3.4267   -2.0426    0.9524 H   0  0  0  0  0  0  0  0  0  0  0  0
   -3.0538   -2.7186   -0.6556 H   0  0  0  0  0  0  0  0  0  0  0  0
   -1.3498   -2.2206    0.5184 C   0  0  0  0  0  0  0  0  0  0  0  0
   -0.4997   -2.9426    1.0194 O   0  0  0  0  0  0  0  0  0  0  0  0
   -1.1198   -0.9926    0.0674 N   0  0  0  0  0  0  0  0  0  0  0  0
   -1.8978   -0.4486   -0.2716 H   0  0  0  0  0  0  0  0  0  0  0  0
    0.1693   -0.2866    0.0854 C   0  0  1  0  0  0  0  0  0  0  0  0
    0.8425   -0.7905    0.7811 H   0  0  0  0  0  0  0  0  0  0  0  0
    0.7993   -0.3404   -1.3233 C   0  0  0  0  0  0  0  0  0  0  0  0
    0.0300   -0.1037   -2.0604 H   0  0  0  0  0  0  0  0  0  0  0  0
    1.5736    0.4269   -1.3920 H   0  0  0  0  0  0  0  0  0  0  0  0
    1.4013   -1.7029   -1.7010 C   0  0  0  0  0  0  0  0  0  0  0  0
    2.6234   -1.7630   -1.9737 O   0  5  0  0  0  0  0  0  0  0  0  0
    0.6210   -2.6787   -1.7325 O   0  0  0  0  0  0  0  0  0  0  0  0
   -0.0374    1.1645    0.5781 C   0  0  0  0  0  0  0  0  0  0  0  0
   -0.9816    1.8416    0.1544 O   0  0  0  0  0  0  0  0  0  0  0  0
    0.8235    1.6462    1.4801 N   0  0  0  0  0  0  0  0  0  0  0  0
    1.6183    1.0435    1.7020 H   0  0  0  0  0  0  0  0  0  0  0  0
    0.7895    2.9929    2.0404 C   0  0  0  0  0  0  0  0  0  0  0  0
   -0.2344    3.2522    2.3130 H   0  0  0  0  0  0  0  0  0  0  0  0
    1.4265    3.0377    2.9233 H   0  0  0  0  0  0  0  0  0  0  0  0
    1.1511    3.7014    1.2950 H   0  0  0  0  0  0  0  0  0  0  0  0
  5  6  2  0  0  0  0
  5  7  1  0  0  0  0
  2  3  1  0  0  0  0
  2  4  1  0  0  0  0
  2  5  1  0  0  0  0
  1  2  1  0  0  0  0
 17 18  2  0  0  0  0
 17 19  1  0  0  0  0
 14 15  1  0  0  0  0
 14 16  2  0  0  0  0
 11 12  1  0  0  0  0
 11 13  1  0  0  0  0
 11 14  1  0  0  0  0
  9 10  1  0  0  0  0
  9 11  1  0  0  0  0
  9 17  1  0  0  0  0
  7  8  1  0  0  0  0
  7  9  1  0  0  0  0
 21 22  1  0  0  0  0
 21 23  1  0  0  0  0
 21 24  1  0  0  0  0
 19 20  1  0  0  0  0
 19 21  1  0  0  0  0
M  CHG  1  15  -1
M  END
$$$$
default_name
  -OEChem-02102213163D

 24 23  0     1  0  0  0  0  0999 V2000
   -2.8347   -3.7166    0.8034 H   0  0  0  0  0  0  0  0  0  0  0  0
   -2.7728   -2.7096    0.3954 C   0  0  0  0  0  0  0  0  0  0  0  0
   -3.4267   -2.0426    0.9524 H   0  0  0  0  0  0  0  0  0  0  0  0
   -3.0538   -2.7186   -0.6556 H   0  0  0  0  0  0  0  0  0  0  0  0
   -1.3498   -2.2206    0.5184 C   0  0  0  0  0  0  0  0  0  0  0  0
   -0.4997   -2.9426    1.0194 O   0  0  0  0  0  0  0  0  0  0  0  0
   -1.1198   -0.9926    0.0674 N   0  0  0  0  0  0  0  0  0  0  0  0
   -1.8978   -0.4486   -0.2716 H   0  0  0  0  0  0  0  0  0  0  0  0
    0.1693   -0.2866    0.0854 C   0  0  1  0  0  0  0  0  0  0  0  0
    0.8425   -0.7905    0.7811 H   0  0  0  0  0  0  0  0  0  0  0  0
    0.7993   -0.3404   -1.3233 C   0  0  0  0  0  0  0  0  0  0  0  0
    0.0300   -0.1037   -2.0604 H   0  0  0  0  0  0  0  0  0  0  0  0
    1.5736    0.4269   -1.3920 H   0  0  0  0  0  0  0  0  0  0  0  0
    1.4013   -1.7029   -1.7010 C   0  0  0  0  0  0  0  0  0  0  0  0
    2.6485   -1.8291   -1.6951 O   0  5  0  0  0  0  0  0  0  0  0  0
    0.6003   -2.6098   -2.0142 O   0  0  0  0  0  0  0  0  0  0  0  0
   -0.0374    1.1645    0.5781 C   0  0  0  0  0  0  0  0  0  0  0  0
   -0.9816    1.8416    0.1544 O   0  0  0  0  0  0  0  0  0  0  0  0
    0.8235    1.6462    1.4801 N   0  0  0  0  0  0  0  0  0  0  0  0
    1.6183    1.0435    1.7020 H   0  0  0  0  0  0  0  0  0  0  0  0
    0.7895    2.9929    2.0404 C   0  0  0  0  0  0  0  0  0  0  0  0
   -0.2344    3.2522    2.3130 H   0  0  0  0  0  0  0  0  0  0  0  0
    1.4265    3.0377    2.9233 H   0  0  0  0  0  0  0  0  0  0  0  0
    1.1511    3.7014    1.2950 H   0  0  0  0  0  0  0  0  0  0  0  0
  5  6  2  0  0  0  0
  5  7  1  0  0  0  0
  2  3  1  0  0  0  0
  2  4  1  0  0  0  0
  2  5  1  0  0  0  0
  1  2  1  0  0  0  0
 17 18  2  0  0  0  0
 17 19  1  0  0  0  0
 14 15  1  0  0  0  0
 14 16  2  0  0  0  0
 11 12  1  0  0  0  0
 11 13  1  0  0  0  0
 11 14  1  0  0  0  0
  9 10  1  0  0  0  0
  9 11  1  0  0  0  0
  9 17  1  0  0  0  0
  7  8  1  0  0  0  0
  7  9  1  0  0  0  0
 21 22  1  0  0  0  0
 21 23  1  0  0  0  0
 21 24  1  0  0  0  0
 19 20  1  0  0  0  0
 19 21  1  0  0  0  0
M  CHG  1  15  -1
M  END
$$$$
default_name
  -OEChem-02102213163D

 24 23  0     1  0  0  0  0  0999 V2000
   -2.8347   -3.7166    0.8034 H   0  0  0  0  0  0  0  0  0  0  0  0
   -2.7728   -2.7096    0.3954 C   0  0  0  0  0  0  0  0  0  0  0  0
   -3.4267   -2.0426    0.9524 H   0  0  0  0  0  0  0  0  0  0  0  0
   -3.0538   -2.7186   -0.6556 H   0  0  0  0  0  0  0  0  0  0  0  0
   -1.3498   -2.2206    0.5184 C   0  0  0  0  0  0  0  0  0  0  0  0
   -0.4997   -2.9426    1.0194 O   0  0  0  0  0  0  0  0  0  0  0  0
   -1.1198   -0.9926    0.0674 N   0  0  0  0  0  0  0  0  0  0  0  0
   -1.8978   -0.4486   -0.2716 H   0  0  0  0  0  0  0  0  0  0  0  0
    0.1693   -0.2866    0.0854 C   0  0  1  0  0  0  0  0  0  0  0  0
    0.8425   -0.7905    0.7811 H   0  0  0  0  0  0  0  0  0  0  0  0
    0.7993   -0.3404   -1.3233 C   0  0  0  0  0  0  0  0  0  0  0  0
    0.0300   -0.1037   -2.0604 H   0  0  0  0  0  0  0  0  0  0  0  0
    1.5736    0.4269   -1.3920 H   0  0  0  0  0  0  0  0  0  0  0  0
    1.4013   -1.7029   -1.7010 C   0  0  0  0  0  0  0  0  0  0  0  0
    2.6046   -1.9229   -1.4269 O   0  5  0  0  0  0  0  0  0  0  0  0
    0.6493   -2.5133   -2.2840 O   0  0  0  0  0  0  0  0  0  0  0  0
   -0.0374    1.1645    0.5781 C   0  0  0  0  0  0  0  0  0  0  0  0
   -0.9816    1.8416    0.1544 O   0  0  0  0  0  0  0  0  0  0  0  0
    0.8235    1.6462    1.4801 N   0  0  0  0  0  0  0  0  0  0  0  0
    1.6183    1.0435    1.7020 H   0  0  0  0  0  0  0  0  0  0  0  0
    0.7895    2.9929    2.0404 C   0  0  0  0  0  0  0  0  0  0  0  0
   -0.2344    3.2522    2.3130 H   0  0  0  0  0  0  0  0  0  0  0  0
    1.4265    3.0377    2.9233 H   0  0  0  0  0  0  0  0  0  0  0  0
    1.1511    3.7014    1.2950 H   0  0  0  0  0  0  0  0  0  0  0  0
  5  6  2  0  0  0  0
  5  7  1  0  0  0  0
  2  3  1  0  0  0  0
  2  4  1  0  0  0  0
  2  5  1  0  0  0  0
  1  2  1  0  0  0  0
 17 18  2  0  0  0  0
 17 19  1  0  0  0  0
 14 15  1  0  0  0  0
 14 16  2  0  0  0  0
 11 12  1  0  0  0  0
 11 13  1  0  0  0  0
 11 14  1  0  0  0  0
  9 10  1  0  0  0  0
  9 11  1  0  0  0  0
  9 17  1  0  0  0  0
  7  8  1  0  0  0  0
  7  9  1  0  0  0  0
 21 22  1  0  0  0  0
 21 23  1  0  0  0  0
 21 24  1  0  0  0  0
 19 20  1  0  0  0  0
 19 21  1  0  0  0  0
M  CHG  1  15  -1
M  END
$$$$
default_name
  -OEChem-02102213163D

 24 23  0     1  0  0  0  0  0999 V2000
   -2.8347   -3.7166    0.8034 H   0  0  0  0  0  0  0  0  0  0  0  0
   -2.7728   -2.7096    0.3954 C   0  0  0  0  0  0  0  0  0  0  0  0
   -3.4267   -2.0426    0.9524 H   0  0  0  0  0  0  0  0  0  0  0  0
   -3.0538   -2.7186   -0.6556 H   0  0  0  0  0  0  0  0  0  0  0  0
   -1.3498   -2.2206    0.5184 C   0  0  0  0  0  0  0  0  0  0  0  0
   -0.4997   -2.9426    1.0194 O   0  0  0  0  0  0  0  0  0  0  0  0
   -1.1198   -0.9926    0.0674 N   0  0  0  0  0  0  0  0  0  0  0  0
   -1.8978   -0.4486   -0.2716 H   0  0  0  0  0  0  0  0  0  0  0  0
    0.1693   -0.2866    0.0854 C   0  0  1  0  0  0  0  0  0  0  0  0
    0.8425   -0.7905    0.7811 H   0  0  0  0  0  0  0  0  0  0  0  0
    0.7993   -0.3404   -1.3233 C   0  0  0  0  0  0  0  0  0  0  0  0
    0.0300   -0.1037   -2.0604 H   0  0  0  0  0  0  0  0  0  0  0  0
    1.5736    0.4269   -1.3920 H   0  0  0  0  0  0  0  0  0  0  0  0
    1.4013   -1.7029   -1.7010 C   0  0  0  0  0  0  0  0  0  0  0  0
    2.4947   -2.0378   -1.1874 O   0  5  0  0  0  0  0  0  0  0  0  0
    0.7647   -2.3959   -2.5237 O   0  0  0  0  0  0  0  0  0  0  0  0
   -0.0374    1.1645    0.5781 C   0  0  0  0  0  0  0  0  0  0  0  0
   -0.9816    1.8416    0.1544 O   0  0  0  0  0  0  0  0  0  0  0  0
    0.8235    1.6462    1.4801 N   0  0  0  0  0  0  0  0  0  0  0  0
    1.6183    1.0435    1.7020 H   0  0  0  0  0  0  0  0  0  0  0  0
    0.7895    2.9929    2.0404 C   0  0  0  0  0  0  0  0  0  0  0  0
   -0.2344    3.2522    2.3130 H   0  0  0  0  0  0  0  0  0  0  0  0
    1.4265    3.0377    2.9233 H   0  0  0  0  0  0  0  0  0  0  0  0
    1.1511    3.7014    1.2950 H   0  0  0  0  0  0  0  0  0  0  0  0
  5  6  2  0  0  0  0
  5  7  1  0  0  0  0
  2  3  1  0  0  0  0
  2  4  1  0  0  0  0
  2  5  1  0  0  0  0
  1  2  1  0  0  0  0
 17 18  2  0  0  0  0
 17 19  1  0  0  0  0
 14 15  1  0  0  0  0
 14 16  2  0  0  0  0
 11 12  1  0  0  0  0
 11 13  1  0  0  0  0
 11 14  1  0  0  0  0
  9 10  1  0  0  0  0
  9 11  1  0  0  0  0
  9 17  1  0  0  0  0
  7  8  1  0  0  0  0
  7  9  1  0  0  0  0
 21 22  1  0  0  0  0
 21 23  1  0  0  0  0
 21 24  1  0  0  0  0
 19 20  1  0  0  0  0
 19 21  1  0  0  0  0
M  CHG  1  15  -1
M  END
$$$$
default_name
  -OEChem-02102213163D

 24 23  0     1  0  0  0  0  0999 V2000
   -2.8347   -3.7166    0.8034 H   0  0  0  0  0  0  0  0  0  0  0  0
   -2.7728   -2.7096    0.3954 C   0  0  0  0  0  0  0  0  0  0  0  0
   -3.4267   -2.0426    0.9524 H   0  0  0  0  0  0  0  0  0  0  0  0
   -3.0538   -2.7186   -0.6556 H   0  0  0  0  0  0  0  0  0  0  0  0
   -1.3498   -2.2206    0.5184 C   0  0  0  0  0  0  0  0  0  0  0  0
   -0.4997   -2.9426    1.0194 O   0  0  0  0  0  0  0  0  0  0  0  0
   -1.1198   -0.9926    0.0674 N   0  0  0  0  0  0  0  0  0  0  0  0
   -1.8978   -0.4486   -0.2716 H   0  0  0  0  0  0  0  0  0  0  0  0
    0.1693   -0.2866    0.0854 C   0  0  1  0  0  0  0  0  0  0  0  0
    0.8425   -0.7905    0.7811 H   0  0  0  0  0  0  0  0  0  0  0  0
    0.7993   -0.3404   -1.3233 C   0  0  0  0  0  0  0  0  0  0  0  0
    0.0300   -0.1037   -2.0604 H   0  0  0  0  0  0  0  0  0  0  0  0
    1.5736    0.4269   -1.3920 H   0  0  0  0  0  0  0  0  0  0  0  0
    1.4013   -1.7029   -1.7010 C   0  0  0  0  0  0  0  0  0  0  0  0
    2.3263   -2.1662   -0.9929 O   0  5  0  0  0  0  0  0  0  0  0  0
    0.9387   -2.2655   -2.7167 O   0  0  0  0  0  0  0  0  0  0  0  0
   -0.0374    1.1645    0.5781 C   0  0  0  0  0  0  0  0  0  0  0  0
   -0.9816    1.8416    0.1544 O   0  0  0  0  0  0  0  0  0  0  0  0
    0.8235    1.6462    1.4801 N   0  0  0  0  0  0  0  0  0  0  0  0
    1.6183    1.0435    1.7020 H   0  0  0  0  0  0  0  0  0  0  0  0
    0.7895    2.9929    2.0404 C   0  0  0  0  0  0  0  0  0  0  0  0
   -0.2344    3.2522    2.3130 H   0  0  0  0  0  0  0  0  0  0  0  0
    1.4265    3.0377    2.9233 H   0  0  0  0  0  0  0  0  0  0  0  0
    1.1511    3.7014    1.2950 H   0  0  0  0  0  0  0  0  0  0  0  0
  5  6  2  0  0  0  0
  5  7  1  0  0  0  0
  2  3  1  0  0  0  0
  2  4  1  0  0  0  0
  2  5  1  0  0  0  0
  1  2  1  0  0  0  0
 17 18  2  0  0  0  0
 17 19  1  0  0  0  0
 14 15  1  0  0  0  0
 14 16  2  0  0  0  0
 11 12  1  0  0  0  0
 11 13  1  0  0  0  0
 11 14  1  0  0  0  0
  9 10  1  0  0  0  0
  9 11  1  0  0  0  0
  9 17  1  0  0  0  0
  7  8  1  0  0  0  0
  7  9  1  0  0  0  0
 21 22  1  0  0  0  0
 21 23  1  0  0  0  0
 21 24  1  0  0  0  0
 19 20  1  0  0  0  0
 19 21  1  0  0  0  0
M  CHG  1  15  -1
M  END
$$$$
default_name
  -OEChem-02102213163D

 24 23  0     1  0  0  0  0  0999 V2000
   -2.8347   -3.7166    0.8034 H   0  0  0  0  0  0  0  0  0  0  0  0
   -2.7728   -2.7096    0.3954 C   0  0  0  0  0  0  0  0  0  0  0  0
   -3.4267   -2.0426    0.9524 H   0  0  0  0  0  0  0  0  0  0  0  0
   -3.0538   -2.7186   -0.6556 H   0  0  0  0  0  0  0  0  0  0  0  0
   -1.3498   -2.2206    0.5184 C   0  0  0  0  0  0  0  0  0  0  0  0
   -0.4997   -2.9426    1.0194 O   0  0  0  0  0  0  0  0  0  0  0  0
   -1.1198   -0.9926    0.0674 N   0  0  0  0  0  0  0  0  0  0  0  0
   -1.8978   -0.4486   -0.2716 H   0  0  0  0  0  0  0  0  0  0  0  0
    0.1693   -0.2866    0.0854 C   0  0  1  0  0  0  0  0  0  0  0  0
    0.8425   -0.7905    0.7811 H   0  0  0  0  0  0  0  0  0  0  0  0
    0.7993   -0.3404   -1.3233 C   0  0  0  0  0  0  0  0  0  0  0  0
    0.0300   -0.1037   -2.0604 H   0  0  0  0  0  0  0  0  0  0  0  0
    1.5736    0.4269   -1.3920 H   0  0  0  0  0  0  0  0  0  0  0  0
    1.4013   -1.7029   -1.7010 C   0  0  0  0  0  0  0  0  0  0  0  0
    2.1108   -2.2991   -0.8568 O   0  5  0  0  0  0  0  0  0  0  0  0
    1.1593   -2.1311   -2.8500 O   0  0  0  0  0  0  0  0  0  0  0  0
   -0.0374    1.1645    0.5781 C   0  0  0  0  0  0  0  0  0  0  0  0
   -0.9816    1.8416    0.1544 O   0  0  0  0  0  0  0  0  0  0  0  0
    0.8235    1.6462    1.4801 N   0  0  0  0  0  0  0  0  0  0  0  0
    1.6183    1.0435    1.7020 H   0  0  0  0  0  0  0  0  0  0  0  0
    0.7895    2.9929    2.0404 C   0  0  0  0  0  0  0  0  0  0  0  0
   -0.2344    3.2522    2.3130 H   0  0  0  0  0  0  0  0  0  0  0  0
    1.4265    3.0377    2.9233 H   0  0  0  0  0  0  0  0  0  0  0  0
    1.1511    3.7014    1.2950 H   0  0  0  0  0  0  0  0  0  0  0  0
  5  6  2  0  0  0  0
  5  7  1  0  0  0  0
  2  3  1  0  0  0  0
  2  4  1  0  0  0  0
  2  5  1  0  0  0  0
  1  2  1  0  0  0  0
 17 18  2  0  0  0  0
 17 19  1  0  0  0  0
 14 15  1  0  0  0  0
 14 16  2  0  0  0  0
 11 12  1  0  0  0  0
 11 13  1  0  0  0  0
 11 14  1  0  0  0  0
  9 10  1  0  0  0  0
  9 11  1  0  0  0  0
  9 17  1  0  0  0  0
  7  8  1  0  0  0  0
  7  9  1  0  0  0  0
 21 22  1  0  0  0  0
 21 23  1  0  0  0  0
 21 24  1  0  0  0  0
 19 20  1  0  0  0  0
 19 21  1  0  0  0  0
M  CHG  1  15  -1
M  END
$$$$
default_name
  -OEChem-02102213163D

 24 23  0     1  0  0  0  0  0999 V2000
   -2.8347   -3.7166    0.8034 H   0  0  0  0  0  0  0  0  0  0  0  0
   -2.7728   -2.7096    0.3954 C   0  0  0  0  0  0  0  0  0  0  0  0
   -3.4267   -2.0426    0.9524 H   0  0  0  0  0  0  0  0  0  0  0  0
   -3.0538   -2.7186   -0.6556 H   0  0  0  0  0  0  0  0  0  0  0  0
   -1.3498   -2.2206    0.5184 C   0  0  0  0  0  0  0  0  0  0  0  0
   -0.4997   -2.9426    1.0194 O   0  0  0  0  0  0  0  0  0  0  0  0
   -1.1198   -0.9926    0.0674 N   0  0  0  0  0  0  0  0  0  0  0  0
   -1.8978   -0.4486   -0.2716 H   0  0  0  0  0  0  0  0  0  0  0  0
    0.1693   -0.2866    0.0854 C   0  0  1  0  0  0  0  0  0  0  0  0
    0.8425   -0.7905    0.7811 H   0  0  0  0  0  0  0  0  0  0  0  0
    0.7993   -0.3404   -1.3233 C   0  0  0  0  0  0  0  0  0  0  0  0
    0.0300   -0.1037   -2.0604 H   0  0  0  0  0  0  0  0  0  0  0  0
    1.5736    0.4269   -1.3920 H   0  0  0  0  0  0  0  0  0  0  0  0
    1.4013   -1.7029   -1.7010 C   0  0  0  0  0  0  0  0  0  0  0  0
    1.8629   -2.4276   -0.7882 O   0  5  0  0  0  0  0  0  0  0  0  0
    1.4115   -2.0017   -2.9146 O   0  0  0  0  0  0  0  0  0  0  0  0
   -0.0374    1.1645    0.5781 C   0  0  0  0  0  0  0  0  0  0  0  0
   -0.9816    1.8416    0.1544 O   0  0  0  0  0  0  0  0  0  0  0  0
    0.8235    1.6462    1.4801 N   0  0  0  0  0  0  0  0  0  0  0  0
    1.6183    1.0435    1.7020 H   0  0  0  0  0  0  0  0  0  0  0  0
    0.7895    2.9929    2.0404 C   0  0  0  0  0  0  0  0  0  0  0  0
   -0.2344    3.2522    2.3130 H   0  0  0  0  0  0  0  0  0  0  0  0
    1.4265    3.0377    2.9233 H   0  0  0  0  0  0  0  0  0  0  0  0
    1.1511    3.7014    1.2950 H   0  0  0  0  0  0  0  0  0  0  0  0
  5  6  2  0  0  0  0
  5  7  1  0  0  0  0
  2  3  1  0  0  0  0
  2  4  1  0  0  0  0
  2  5  1  0  0  0  0
  1  2  1  0  0  0  0
 17 18  2  0  0  0  0
 17 19  1  0  0  0  0
 14 15  1  0  0  0  0
 14 16  2  0  0  0  0
 11 12  1  0  0  0  0
 11 13  1  0  0  0  0
 11 14  1  0  0  0  0
  9 10  1  0  0  0  0
  9 11  1  0  0  0  0
  9 17  1  0  0  0  0
  7  8  1  0  0  0  0
  7  9  1  0  0  0  0
 21 22  1  0  0  0  0
 21 23  1  0  0  0  0
 21 24  1  0  0  0  0
 19 20  1  0  0  0  0
 19 21  1  0  0  0  0
M  CHG  1  15  -1
M  END
$$$$
default_name
  -OEChem-02102213163D

 24 23  0     1  0  0  0  0  0999 V2000
   -2.8347   -3.7166    0.8034 H   0  0  0  0  0  0  0  0  0  0  0  0
   -2.7728   -2.7096    0.3954 C   0  0  0  0  0  0  0  0  0  0  0  0
   -3.4267   -2.0426    0.9524 H   0  0  0  0  0  0  0  0  0  0  0  0
   -3.0538   -2.7186   -0.6556 H   0  0  0  0  0  0  0  0  0  0  0  0
   -1.3498   -2.2206    0.5184 C   0  0  0  0  0  0  0  0  0  0  0  0
   -0.4997   -2.9426    1.0194 O   0  0  0  0  0  0  0  0  0  0  0  0
   -1.1198   -0.9926    0.0674 N   0  0  0  0  0  0  0  0  0  0  0  0
   -1.8978   -0.4486   -0.2716 H   0  0  0  0  0  0  0  0  0  0  0  0
    0.1693   -0.2866    0.0854 C   0  0  1  0  0  0  0  0  0  0  0  0
    0.8425   -0.7905    0.7811 H   0  0  0  0  0  0  0  0  0  0  0  0
    0.7993   -0.3404   -1.3233 C   0  0  0  0  0  0  0  0  0  0  0  0
    0.0300   -0.1037   -2.0604 H   0  0  0  0  0  0  0  0  0  0  0  0
    1.5736    0.4269   -1.3920 H   0  0  0  0  0  0  0  0  0  0  0  0
    1.4013   -1.7029   -1.7010 C   0  0  0  0  0  0  0  0  0  0  0  0
    1.5996   -2.5429   -0.7919 O   0  5  0  0  0  0  0  0  0  0  0  0
    1.6782   -1.8863   -2.9059 O   0  0  0  0  0  0  0  0  0  0  0  0
   -0.0374    1.1645    0.5781 C   0  0  0  0  0  0  0  0  0  0  0  0
   -0.9816    1.8416    0.1544 O   0  0  0  0  0  0  0  0  0  0  0  0
    0.8235    1.6462    1.4801 N   0  0  0  0  0  0  0  0  0  0  0  0
    1.6183    1.0435    1.7020 H   0  0  0  0  0  0  0  0  0  0  0  0
    0.7895    2.9929    2.0404 C   0  0  0  0  0  0  0  0  0  0  0  0
   -0.2344    3.2522    2.3130 H   0  0  0  0  0  0  0  0  0  0  0  0
    1.4265    3.0377    2.9233 H   0  0  0  0  0  0  0  0  0  0  0  0
    1.1511    3.7014    1.2950 H   0  0  0  0  0  0  0  0  0  0  0  0
  5  6  2  0  0  0  0
  5  7  1  0  0  0  0
  2  3  1  0  0  0  0
  2  4  1  0  0  0  0
  2  5  1  0  0  0  0
  1  2  1  0  0  0  0
 17 18  2  0  0  0  0
 17 19  1  0  0  0  0
 14 15  1  0  0  0  0
 14 16  2  0  0  0  0
 11 12  1  0  0  0  0
 11 13  1  0  0  0  0
 11 14  1  0  0  0  0
  9 10  1  0  0  0  0
  9 11  1  0  0  0  0
  9 17  1  0  0  0  0
  7  8  1  0  0  0  0
  7  9  1  0  0  0  0
 21 22  1  0  0  0  0
 21 23  1  0  0  0  0
 21 24  1  0  0  0  0
 19 20  1  0  0  0  0
 19 21  1  0  0  0  0
M  CHG  1  15  -1
M  END
$$$$
default_name
  -OEChem-02102213163D

 24 23  0     1  0  0  0  0  0999 V2000
   -2.8347   -3.7166    0.8034 H   0  0  0  0  0  0  0  0  0  0  0  0
   -2.7728   -2.7096    0.3954 C   0  0  0  0  0  0  0  0  0  0  0  0
   -3.4267   -2.0426    0.9524 H   0  0  0  0  0  0  0  0  0  0  0  0
   -3.0538   -2.7186   -0.6556 H   0  0  0  0  0  0  0  0  0  0  0  0
   -1.3498   -2.2206    0.5184 C   0  0  0  0  0  0  0  0  0  0  0  0
   -0.4997   -2.9426    1.0194 O   0  0  0  0  0  0  0  0  0  0  0  0
   -1.1198   -0.9926    0.0674 N   0  0  0  0  0  0  0  0  0  0  0  0
   -1.8978   -0.4486   -0.2716 H   0  0  0  0  0  0  0  0  0  0  0  0
    0.1693   -0.2866    0.0854 C   0  0  1  0  0  0  0  0  0  0  0  0
    0.8425   -0.7905    0.7811 H   0  0  0  0  0  0  0  0  0  0  0  0
    0.7993   -0.3404   -1.3233 C   0  0  0  0  0  0  0  0  0  0  0  0
    0.0300   -0.1037   -2.0604 H   0  0  0  0  0  0  0  0  0  0  0  0
    1.5736    0.4269   -1.3920 H   0  0  0  0  0  0  0  0  0  0  0  0
    1.4013   -1.7029   -1.7010 C   0  0  0  0  0  0  0  0  0  0  0  0
    1.3388   -2.6372   -0.8675 O   0  5  0  0  0  0  0  0  0  0  0  0
    1.9412   -1.7926   -2.8247 O   0  0  0  0  0  0  0  0  0  0  0  0
   -0.0374    1.1645    0.5781 C   0  0  0  0  0  0  0  0  0  0  0  0
   -0.9816    1.8416    0.1544 O   0  0  0  0  0  0  0  0  0  0  0  0
    0.8235    1.6462    1.4801 N   0  0  0  0  0  0  0  0  0  0  0  0
    1.6183    1.0435    1.7020 H   0  0  0  0  0  0  0  0  0  0  0  0
    0.7895    2.9929    2.0404 C   0  0  0  0  0  0  0  0  0  0  0  0
   -0.2344    3.2522    2.3130 H   0  0  0  0  0  0  0  0  0  0  0  0
    1.4265    3.0377    2.9233 H   0  0  0  0  0  0  0  0  0  0  0  0
    1.1511    3.7014    1.2950 H   0  0  0  0  0  0  0  0  0  0  0  0
  5  6  2  0  0  0  0
  5  7  1  0  0  0  0
  2  3  1  0  0  0  0
  2  4  1  0  0  0  0
  2  5  1  0  0  0  0
  1  2  1  0  0  0  0
 17 18  2  0  0  0  0
 17 19  1  0  0  0  0
 14 15  1  0  0  0  0
 14 16  2  0  0  0  0
 11 12  1  0  0  0  0
 11 13  1  0  0  0  0
 11 14  1  0  0  0  0
  9 10  1  0  0  0  0
  9 11  1  0  0  0  0
  9 17  1  0  0  0  0
  7  8  1  0  0  0  0
  7  9  1  0  0  0  0
 21 22  1  0  0  0  0
 21 23  1  0  0  0  0
 21 24  1  0  0  0  0
 19 20  1  0  0  0  0
 19 21  1  0  0  0  0
M  CHG  1  15  -1
M  END
$$$$
default_name
  -OEChem-02102213163D

 24 23  0     1  0  0  0  0  0999 V2000
   -2.8347   -3.7166    0.8034 H   0  0  0  0  0  0  0  0  0  0  0  0
   -2.7728   -2.7096    0.3954 C   0  0  0  0  0  0  0  0  0  0  0  0
   -3.4267   -2.0426    0.9524 H   0  0  0  0  0  0  0  0  0  0  0  0
   -3.0538   -2.7186   -0.6556 H   0  0  0  0  0  0  0  0  0  0  0  0
   -1.3498   -2.2206    0.5184 C   0  0  0  0  0  0  0  0  0  0  0  0
   -0.4997   -2.9426    1.0194 O   0  0  0  0  0  0  0  0  0  0  0  0
   -1.1198   -0.9926    0.0674 N   0  0  0  0  0  0  0  0  0  0  0  0
   -1.8978   -0.4486   -0.2716 H   0  0  0  0  0  0  0  0  0  0  0  0
    0.1693   -0.2866    0.0854 C   0  0  1  0  0  0  0  0  0  0  0  0
    0.8425   -0.7905    0.7811 H   0  0  0  0  0  0  0  0  0  0  0  0
    0.7993   -0.3404   -1.3233 C   0  0  0  0  0  0  0  0  0  0  0  0
    0.0300   -0.1037   -2.0604 H   0  0  0  0  0  0  0  0  0  0  0  0
    1.5736    0.4269   -1.3920 H   0  0  0  0  0  0  0  0  0  0  0  0
    1.4013   -1.7029   -1.7010 C   0  0  0  0  0  0  0  0  0  0  0  0
    1.0982   -2.7040   -1.0100 O   0  5  0  0  0  0  0  0  0  0  0  0
    2.1825   -1.7272   -2.6763 O   0  0  0  0  0  0  0  0  0  0  0  0
   -0.0374    1.1645    0.5781 C   0  0  0  0  0  0  0  0  0  0  0  0
   -0.9816    1.8416    0.1544 O   0  0  0  0  0  0  0  0  0  0  0  0
    0.8235    1.6462    1.4801 N   0  0  0  0  0  0  0  0  0  0  0  0
    1.6183    1.0435    1.7020 H   0  0  0  0  0  0  0  0  0  0  0  0
    0.7895    2.9929    2.0404 C   0  0  0  0  0  0  0  0  0  0  0  0
   -0.2344    3.2522    2.3130 H   0  0  0  0  0  0  0  0  0  0  0  0
    1.4265    3.0377    2.9233 H   0  0  0  0  0  0  0  0  0  0  0  0
    1.1511    3.7014    1.2950 H   0  0  0  0  0  0  0  0  0  0  0  0
  5  6  2  0  0  0  0
  5  7  1  0  0  0  0
  2  3  1  0  0  0  0
  2  4  1  0  0  0  0
  2  5  1  0  0  0  0
  1  2  1  0  0  0  0
 17 18  2  0  0  0  0
 17 19  1  0  0  0  0
 14 15  1  0  0  0  0
 14 16  2  0  0  0  0
 11 12  1  0  0  0  0
 11 13  1  0  0  0  0
 11 14  1  0  0  0  0
  9 10  1  0  0  0  0
  9 11  1  0  0  0  0
  9 17  1  0  0  0  0
  7  8  1  0  0  0  0
  7  9  1  0  0  0  0
 21 22  1  0  0  0  0
 21 23  1  0  0  0  0
 21 24  1  0  0  0  0
 19 20  1  0  0  0  0
 19 21  1  0  0  0  0
M  CHG  1  15  -1
M  END
$$$$
default_name
  -OEChem-02102213163D

 24 23  0     1  0  0  0  0  0999 V2000
   -2.8347   -3.7166    0.8034 H   0  0  0  0  0  0  0  0  0  0  0  0
   -2.7728   -2.7096    0.3954 C   0  0  0  0  0  0  0  0  0  0  0  0
   -3.4267   -2.0426    0.9524 H   0  0  0  0  0  0  0  0  0  0  0  0
   -3.0538   -2.7186   -0.6556 H   0  0  0  0  0  0  0  0  0  0  0  0
   -1.3498   -2.2206    0.5184 C   0  0  0  0  0  0  0  0  0  0  0  0
   -0.4997   -2.9426    1.0194 O   0  0  0  0  0  0  0  0  0  0  0  0
   -1.1198   -0.9926    0.0674 N   0  0  0  0  0  0  0  0  0  0  0  0
   -1.8978   -0.4486   -0.2716 H   0  0  0  0  0  0  0  0  0  0  0  0
    0.1693   -0.2866    0.0854 C   0  0  1  0  0  0  0  0  0  0  0  0
    0.8425   -0.7905    0.7811 H   0  0  0  0  0  0  0  0  0  0  0  0
    0.7993   -0.3404   -1.3233 C   0  0  0  0  0  0  0  0  0  0  0  0
    0.0300   -0.1037   -2.0604 H   0  0  0  0  0  0  0  0  0  0  0  0
    1.5736    0.4269   -1.3920 H   0  0  0  0  0  0  0  0  0  0  0  0
    1.4013   -1.7029   -1.7010 C   0  0  0  0  0  0  0  0  0  0  0  0
    0.8942   -2.7388   -1.2096 O   0  5  0  0  0  0  0  0  0  0  0  0
    2.3857   -1.6943   -2.4710 O   0  0  0  0  0  0  0  0  0  0  0  0
   -0.0374    1.1645    0.5781 C   0  0  0  0  0  0  0  0  0  0  0  0
   -0.9816    1.8416    0.1544 O   0  0  0  0  0  0  0  0  0  0  0  0
    0.8235    1.6462    1.4801 N   0  0  0  0  0  0  0  0  0  0  0  0
    1.6183    1.0435    1.7020 H   0  0  0  0  0  0  0  0  0  0  0  0
    0.7895    2.9929    2.0404 C   0  0  0  0  0  0  0  0  0  0  0  0
   -0.2344    3.2522    2.3130 H   0  0  0  0  0  0  0  0  0  0  0  0
    1.4265    3.0377    2.9233 H   0  0  0  0  0  0  0  0  0  0  0  0
    1.1511    3.7014    1.2950 H   0  0  0  0  0  0  0  0  0  0  0  0
  5  6  2  0  0  0  0
  5  7  1  0  0  0  0
  2  3  1  0  0  0  0
  2  4  1  0  0  0  0
  2  5  1  0  0  0  0
  1  2  1  0  0  0  0
 17 18  2  0  0  0  0
 17 19  1  0  0  0  0
 14 15  1  0  0  0  0
 14 16  2  0  0  0  0
 11 12  1  0  0  0  0
 11 13  1  0  0  0  0
 11 14  1  0  0  0  0
  9 10  1  0  0  0  0
  9 11  1  0  0  0  0
  9 17  1  0  0  0  0
  7  8  1  0  0  0  0
  7  9  1  0  0  0  0
 21 22  1  0  0  0  0
 21 23  1  0  0  0  0
 21 24  1  0  0  0  0
 19 20  1  0  0  0  0
 19 21  1  0  0  0  0
M  CHG  1  15  -1
M  END
$$$$
default_name
  -OEChem-02102213163D

 24 23  0     1  0  0  0  0  0999 V2000
   -2.8347   -3.7166    0.8034 H   0  0  0  0  0  0  0  0  0  0  0  0
   -2.7728   -2.7096    0.3954 C   0  0  0  0  0  0  0  0  0  0  0  0
   -3.4267   -2.0426    0.9524 H   0  0  0  0  0  0  0  0  0  0  0  0
   -3.0538   -2.7186   -0.6556 H   0  0  0  0  0  0  0  0  0  0  0  0
   -1.3498   -2.2206    0.5184 C   0  0  0  0  0  0  0  0  0  0  0  0
   -0.4997   -2.9426    1.0194 O   0  0  0  0  0  0  0  0  0  0  0  0
   -1.1198   -0.9926    0.0674 N   0  0  0  0  0  0  0  0  0  0  0  0
   -1.8978   -0.4486   -0.2716 H   0  0  0  0  0  0  0  0  0  0  0  0
    0.1693   -0.2866    0.0854 C   0  0  1  0  0  0  0  0  0  0  0  0
    0.8425   -0.7905    0.7811 H   0  0  0  0  0  0  0  0  0  0  0  0
    0.7993   -0.3404   -1.3233 C   0  0  0  0  0  0  0  0  0  0  0  0
    0.0300   -0.1037   -2.0604 H   0  0  0  0  0  0  0  0  0  0  0  0
    1.5736    0.4269   -1.3920 H   0  0  0  0  0  0  0  0  0  0  0  0
    1.4013   -1.7029   -1.7010 C   0  0  0  0  0  0  0  0  0  0  0  0
    0.7408   -2.7391   -1.4528 O   0  5  0  0  0  0  0  0  0  0  0  0
    2.5370   -1.6963   -2.2227 O   0  0  0  0  0  0  0  0  0  0  0  0
   -0.0374    1.1645    0.5781 C   0  0  0  0  0  0  0  0  0  0  0  0
   -0.9816    1.8416    0.1544 O   0  0  0  0  0  0  0  0  0  0  0  0
    0.8235    1.6462    1.4801 N   0  0  0  0  0  0  0  0  0  0  0  0
    1.6183    1.0435    1.7020 H   0  0  0  0  0  0  0  0  0  0  0  0
    0.7895    2.9929    2.0404 C   0  0  0  0  0  0  0  0  0  0  0  0
   -0.2344    3.2522    2.3130 H   0  0  0  0  0  0  0  0  0  0  0  0
    1.4265    3.0377    2.9233 H   0  0  0  0  0  0  0  0  0  0  0  0
    1.1511    3.7014    1.2950 H   0  0  0  0  0  0  0  0  0  0  0  0
  5  6  2  0  0  0  0
  5  7  1  0  0  0  0
  2  3  1  0  0  0  0
  2  4  1  0  0  0  0
  2  5  1  0  0  0  0
  1  2  1  0  0  0  0
 17 18  2  0  0  0  0
 17 19  1  0  0  0  0
 14 15  1  0  0  0  0
 14 16  2  0  0  0  0
 11 12  1  0  0  0  0
 11 13  1  0  0  0  0
 11 14  1  0  0  0  0
  9 10  1  0  0  0  0
  9 11  1  0  0  0  0
  9 17  1  0  0  0  0
  7  8  1  0  0  0  0
  7  9  1  0  0  0  0
 21 22  1  0  0  0  0
 21 23  1  0  0  0  0
 21 24  1  0  0  0  0
 19 20  1  0  0  0  0
 19 21  1  0  0  0  0
M  CHG  1  15  -1
M  END
$$$$
default_name
  -OEChem-02102213163D

 24 23  0     1  0  0  0  0  0999 V2000
   -2.8347   -3.7166    0.8034 H   0  0  0  0  0  0  0  0  0  0  0  0
   -2.7728   -2.7096    0.3954 C   0  0  0  0  0  0  0  0  0  0  0  0
   -3.4267   -2.0426    0.9524 H   0  0  0  0  0  0  0  0  0  0  0  0
   -3.0538   -2.7186   -0.6556 H   0  0  0  0  0  0  0  0  0  0  0  0
   -1.3498   -2.2206    0.5184 C   0  0  0  0  0  0  0  0  0  0  0  0
   -0.4997   -2.9426    1.0194 O   0  0  0  0  0  0  0  0  0  0  0  0
   -1.1198   -0.9926    0.0674 N   0  0  0  0  0  0  0  0  0  0  0  0
   -1.8978   -0.4486   -0.2716 H   0  0  0  0  0  0  0  0  0  0  0  0
    0.1693   -0.2866    0.0854 C   0  0  1  0  0  0  0  0  0  0  0  0
    0.8425   -0.7905    0.7811 H   0  0  0  0  0  0  0  0  0  0  0  0
    0.7993   -0.3404   -1.3233 C   0  0  0  0  0  0  0  0  0  0  0  0
    0.0300   -0.1037   -2.0604 H   0  0  0  0  0  0  0  0  0  0  0  0
    1.5736    0.4269   -1.3920 H   0  0  0  0  0  0  0  0  0  0  0  0
    1.4013   -1.7029   -1.7010 C   0  0  0  0  0  0  0  0  0  0  0  0
    0.6484   -2.7051   -1.7229 O   0  5  0  0  0  0  0  0  0  0  0  0
    2.6260   -1.7330   -1.9484 O   0  0  0  0  0  0  0  0  0  0  0  0
   -0.0374    1.1645    0.5781 C   0  0  0  0  0  0  0  0  0  0  0  0
   -0.9816    1.8416    0.1544 O   0  0  0  0  0  0  0  0  0  0  0  0
    0.8235    1.6462    1.4801 N   0  0  0  0  0  0  0  0  0  0  0  0
    1.6183    1.0435    1.7020 H   0  0  0  0  0  0  0  0  0  0  0  0
    0.7895    2.9929    2.0404 C   0  0  0  0  0  0  0  0  0  0  0  0
   -0.2344    3.2522    2.3130 H   0  0  0  0  0  0  0  0  0  0  0  0
    1.4265    3.0377    2.9233 H   0  0  0  0  0  0  0  0  0  0  0  0
    1.1511    3.7014    1.2950 H   0  0  0  0  0  0  0  0  0  0  0  0
  5  6  2  0  0  0  0
  5  7  1  0  0  0  0
  2  3  1  0  0  0  0
  2  4  1  0  0  0  0
  2  5  1  0  0  0  0
  1  2  1  0  0  0  0
 17 18  2  0  0  0  0
 17 19  1  0  0  0  0
 14 15  1  0  0  0  0
 14 16  2  0  0  0  0
 11 12  1  0  0  0  0
 11 13  1  0  0  0  0
 11 14  1  0  0  0  0
  9 10  1  0  0  0  0
  9 11  1  0  0  0  0
  9 17  1  0  0  0  0
  7  8  1  0  0  0  0
  7  9  1  0  0  0  0
 21 22  1  0  0  0  0
 21 23  1  0  0  0  0
 21 24  1  0  0  0  0
 19 20  1  0  0  0  0
 19 21  1  0  0  0  0
M  CHG  1  15  -1
M  END
$$$$
default_name
  -OEChem-02102213163D

 24 23  0     1  0  0  0  0  0999 V2000
   -2.8347   -3.7166    0.8034 H   0  0  0  0  0  0  0  0  0  0  0  0
   -2.7728   -2.7096    0.3954 C   0  0  0  0  0  0  0  0  0  0  0  0
   -3.4267   -2.0426    0.9524 H   0  0  0  0  0  0  0  0  0  0  0  0
   -3.0538   -2.7186   -0.6556 H   0  0  0  0  0  0  0  0  0  0  0  0
   -1.3498   -2.2206    0.5184 C   0  0  0  0  0  0  0  0  0  0  0  0
   -0.4997   -2.9426    1.0194 O   0  0  0  0  0  0  0  0  0  0  0  0
   -1.1198   -0.9926    0.0674 N   0  0  0  0  0  0  0  0  0  0  0  0
   -1.8978   -0.4486   -0.2716 H   0  0  0  0  0  0  0  0  0  0  0  0
    0.1693   -0.2866    0.0854 C   0  0  1  0  0  0  0  0  0  0  0  0
    0.8425   -0.7905    0.7811 H   0  0  0  0  0  0  0  0  0  0  0  0
    0.7993   -0.3404   -1.3233 C   0  0  0  0  0  0  0  0  0  0  0  0
    0.0300   -0.1037   -2.0604 H   0  0  0  0  0  0  0  0  0  0  0  0
    1.5736    0.4269   -1.3920 H   0  0  0  0  0  0  0  0  0  0  0  0
    1.4013   -1.7029   -1.7010 C   0  0  0  0  0  0  0  0  0  0  0  0
    0.6233   -2.6389   -2.0015 O   0  5  0  0  0  0  0  0  0  0  0  0
    2.6467   -1.8020   -1.6667 O   0  0  0  0  0  0  0  0  0  0  0  0
   -0.0374    1.1645    0.5781 C   0  0  0  0  0  0  0  0  0  0  0  0
   -0.9816    1.8416    0.1544 O   0  0  0  0  0  0  0  0  0  0  0  0
    0.8235    1.6462    1.4801 N   0  0  0  0  0  0  0  0  0  0  0  0
    1.6183    1.0435    1.7020 H   0  0  0  0  0  0  0  0  0  0  0  0
    0.7895    2.9929    2.0404 C   0  0  0  0  0  0  0  0  0  0  0  0
   -0.2344    3.2522    2.3130 H   0  0  0  0  0  0  0  0  0  0  0  0
    1.4265    3.0377    2.9233 H   0  0  0  0  0  0  0  0  0  0  0  0
    1.1511    3.7014    1.2950 H   0  0  0  0  0  0  0  0  0  0  0  0
  5  6  2  0  0  0  0
  5  7  1  0  0  0  0
  2  3  1  0  0  0  0
  2  4  1  0  0  0  0
  2  5  1  0  0  0  0
  1  2  1  0  0  0  0
 17 18  2  0  0  0  0
 17 19  1  0  0  0  0
 14 15  1  0  0  0  0
 14 16  2  0  0  0  0
 11 12  1  0  0  0  0
 11 13  1  0  0  0  0
 11 14  1  0  0  0  0
  9 10  1  0  0  0  0
  9 11  1  0  0  0  0
  9 17  1  0  0  0  0
  7  8  1  0  0  0  0
  7  9  1  0  0  0  0
 21 22  1  0  0  0  0
 21 23  1  0  0  0  0
 21 24  1  0  0  0  0
 19 20  1  0  0  0  0
 19 21  1  0  0  0  0
M  CHG  1  15  -1
M  END
$$$$
default_name
  -OEChem-02102213163D

 24 23  0     1  0  0  0  0  0999 V2000
   -2.8347   -3.7166    0.8034 H   0  0  0  0  0  0  0  0  0  0  0  0
   -2.7728   -2.7096    0.3954 C   0  0  0  0  0  0  0  0  0  0  0  0
   -3.4267   -2.0426    0.9524 H   0  0  0  0  0  0  0  0  0  0  0  0
   -3.0538   -2.7186   -0.6556 H   0  0  0  0  0  0  0  0  0  0  0  0
   -1.3498   -2.2206    0.5184 C   0  0  0  0  0  0  0  0  0  0  0  0
   -0.4997   -2.9426    1.0194 O   0  0  0  0  0  0  0  0  0  0  0  0
   -1.1198   -0.9926    0.0674 N   0  0  0  0  0  0  0  0  0  0  0  0
   -1.8978   -0.4486   -0.2716 H   0  0  0  0  0  0  0  0  0  0  0  0
    0.1693   -0.2866    0.0854 C   0  0  1  0  0  0  0  0  0  0  0  0
    0.8425   -0.7905    0.7811 H   0  0  0  0  0  0  0  0  0  0  0  0
    0.7993   -0.3404   -1.3233 C   0  0  0  0  0  0  0  0  0  0  0  0
    0.0300   -0.1037   -2.0604 H   0  0  0  0  0  0  0  0  0  0  0  0
    1.5736    0.4269   -1.3920 H   0  0  0  0  0  0  0  0  0  0  0  0
    1.4013   -1.7029   -1.7010 C   0  0  0  0  0  0  0  0  0  0  0  0
    0.6672   -2.5451   -2.2697 O   0  5  0  0  0  0  0  0  0  0  0  0
    2.5977   -1.8985   -1.3969 O   0  0  0  0  0  0  0  0  0  0  0  0
   -0.0374    1.1645    0.5781 C   0  0  0  0  0  0  0  0  0  0  0  0
   -0.9816    1.8416    0.1544 O   0  0  0  0  0  0  0  0  0  0  0  0
    0.8235    1.6462    1.4801 N   0  0  0  0  0  0  0  0  0  0  0  0
    1.6183    1.0435    1.7020 H   0  0  0  0  0  0  0  0  0  0  0  0
    0.7895    2.9929    2.0404 C   0  0  0  0  0  0  0  0  0  0  0  0
   -0.2344    3.2522    2.3130 H   0  0  0  0  0  0  0  0  0  0  0  0
    1.4265    3.0377    2.9233 H   0  0  0  0  0  0  0  0  0  0  0  0
    1.1511    3.7014    1.2950 H   0  0  0  0  0  0  0  0  0  0  0  0
  5  6  2  0  0  0  0
  5  7  1  0  0  0  0
  2  3  1  0  0  0  0
  2  4  1  0  0  0  0
  2  5  1  0  0  0  0
  1  2  1  0  0  0  0
 17 18  2  0  0  0  0
 17 19  1  0  0  0  0
 14 15  1  0  0  0  0
 14 16  2  0  0  0  0
 11 12  1  0  0  0  0
 11 13  1  0  0  0  0
 11 14  1  0  0  0  0
  9 10  1  0  0  0  0
  9 11  1  0  0  0  0
  9 17  1  0  0  0  0
  7  8  1  0  0  0  0
  7  9  1  0  0  0  0
 21 22  1  0  0  0  0
 21 23  1  0  0  0  0
 21 24  1  0  0  0  0
 19 20  1  0  0  0  0
 19 21  1  0  0  0  0
M  CHG  1  15  -1
M  END
$$$$
default_name
  -OEChem-02102213163D

 24 23  0     1  0  0  0  0  0999 V2000
   -2.8347   -3.7166    0.8034 H   0  0  0  0  0  0  0  0  0  0  0  0
   -2.7728   -2.7096    0.3954 C   0  0  0  0  0  0  0  0  0  0  0  0
   -3.4267   -2.0426    0.9524 H   0  0  0  0  0  0  0  0  0  0  0  0
   -3.0538   -2.7186   -0.6556 H   0  0  0  0  0  0  0  0  0  0  0  0
   -1.3498   -2.2206    0.5184 C   0  0  0  0  0  0  0  0  0  0  0  0
   -0.4997   -2.9426    1.0194 O   0  0  0  0  0  0  0  0  0  0  0  0
   -1.1198   -0.9926    0.0674 N   0  0  0  0  0  0  0  0  0  0  0  0
   -1.8978   -0.4486   -0.2716 H   0  0  0  0  0  0  0  0  0  0  0  0
    0.1693   -0.2866    0.0854 C   0  0  1  0  0  0  0  0  0  0  0  0
    0.8425   -0.7905    0.7811 H   0  0  0  0  0  0  0  0  0  0  0  0
    0.7993   -0.3404   -1.3233 C   0  0  0  0  0  0  0  0  0  0  0  0
    0.0300   -0.1037   -2.0604 H   0  0  0  0  0  0  0  0  0  0  0  0
    1.5736    0.4269   -1.3920 H   0  0  0  0  0  0  0  0  0  0  0  0
    1.4013   -1.7029   -1.7010 C   0  0  0  0  0  0  0  0  0  0  0  0
    0.7771   -2.4302   -2.5092 O   0  5  0  0  0  0  0  0  0  0  0  0
    2.4823   -2.0159   -1.1573 O   0  0  0  0  0  0  0  0  0  0  0  0
   -0.0374    1.1645    0.5781 C   0  0  0  0  0  0  0  0  0  0  0  0
   -0.9816    1.8416    0.1544 O   0  0  0  0  0  0  0  0  0  0  0  0
    0.8235    1.6462    1.4801 N   0  0  0  0  0  0  0  0  0  0  0  0
    1.6183    1.0435    1.7020 H   0  0  0  0  0  0  0  0  0  0  0  0
    0.7895    2.9929    2.0404 C   0  0  0  0  0  0  0  0  0  0  0  0
   -0.2344    3.2522    2.3130 H   0  0  0  0  0  0  0  0  0  0  0  0
    1.4265    3.0377    2.9233 H   0  0  0  0  0  0  0  0  0  0  0  0
    1.1511    3.7014    1.2950 H   0  0  0  0  0  0  0  0  0  0  0  0
  5  6  2  0  0  0  0
  5  7  1  0  0  0  0
  2  3  1  0  0  0  0
  2  4  1  0  0  0  0
  2  5  1  0  0  0  0
  1  2  1  0  0  0  0
 17 18  2  0  0  0  0
 17 19  1  0  0  0  0
 14 15  1  0  0  0  0
 14 16  2  0  0  0  0
 11 12  1  0  0  0  0
 11 13  1  0  0  0  0
 11 14  1  0  0  0  0
  9 10  1  0  0  0  0
  9 11  1  0  0  0  0
  9 17  1  0  0  0  0
  7  8  1  0  0  0  0
  7  9  1  0  0  0  0
 21 22  1  0  0  0  0
 21 23  1  0  0  0  0
 21 24  1  0  0  0  0
 19 20  1  0  0  0  0
 19 21  1  0  0  0  0
M  CHG  1  15  -1
M  END
$$$$
default_name
  -OEChem-02102213163D

 24 23  0     1  0  0  0  0  0999 V2000
   -2.8347   -3.7166    0.8034 H   0  0  0  0  0  0  0  0  0  0  0  0
   -2.7728   -2.7096    0.3954 C   0  0  0  0  0  0  0  0  0  0  0  0
   -3.4267   -2.0426    0.9524 H   0  0  0  0  0  0  0  0  0  0  0  0
   -3.0538   -2.7186   -0.6556 H   0  0  0  0  0  0  0  0  0  0  0  0
   -1.3498   -2.2206    0.5184 C   0  0  0  0  0  0  0  0  0  0  0  0
   -0.4997   -2.9426    1.0194 O   0  0  0  0  0  0  0  0  0  0  0  0
   -1.1198   -0.9926    0.0674 N   0  0  0  0  0  0  0  0  0  0  0  0
   -1.8978   -0.4486   -0.2716 H   0  0  0  0  0  0  0  0  0  0  0  0
    0.1693   -0.2866    0.0854 C   0  0  1  0  0  0  0  0  0  0  0  0
    0.8425   -0.7905    0.7811 H   0  0  0  0  0  0  0  0  0  0  0  0
    0.7993   -0.3404   -1.3233 C   0  0  0  0  0  0  0  0  0  0  0  0
    0.0300   -0.1037   -2.0604 H   0  0  0  0  0  0  0  0  0  0  0  0
    1.5736    0.4269   -1.3920 H   0  0  0  0  0  0  0  0  0  0  0  0
    1.4013   -1.7029   -1.7010 C   0  0  0  0  0  0  0  0  0  0  0  0
    0.9456   -2.3019   -2.7036 O   0  5  0  0  0  0  0  0  0  0  0  0
    2.3083   -2.1463   -0.9642 O   0  0  0  0  0  0  0  0  0  0  0  0
   -0.0374    1.1645    0.5781 C   0  0  0  0  0  0  0  0  0  0  0  0
   -0.9816    1.8416    0.1544 O   0  0  0  0  0  0  0  0  0  0  0  0
    0.8235    1.6462    1.4801 N   0  0  0  0  0  0  0  0  0  0  0  0
    1.6183    1.0435    1.7020 H   0  0  0  0  0  0  0  0  0  0  0  0
    0.7895    2.9929    2.0404 C   0  0  0  0  0  0  0  0  0  0  0  0
   -0.2344    3.2522    2.3130 H   0  0  0  0  0  0  0  0  0  0  0  0
    1.4265    3.0377    2.9233 H   0  0  0  0  0  0  0  0  0  0  0  0
    1.1511    3.7014    1.2950 H   0  0  0  0  0  0  0  0  0  0  0  0
  5  6  2  0  0  0  0
  5  7  1  0  0  0  0
  2  3  1  0  0  0  0
  2  4  1  0  0  0  0
  2  5  1  0  0  0  0
  1  2  1  0  0  0  0
 17 18  2  0  0  0  0
 17 19  1  0  0  0  0
 14 15  1  0  0  0  0
 14 16  2  0  0  0  0
 11 12  1  0  0  0  0
 11 13  1  0  0  0  0
 11 14  1  0  0  0  0
  9 10  1  0  0  0  0
  9 11  1  0  0  0  0
  9 17  1  0  0  0  0
  7  8  1  0  0  0  0
  7  9  1  0  0  0  0
 21 22  1  0  0  0  0
 21 23  1  0  0  0  0
 21 24  1  0  0  0  0
 19 20  1  0  0  0  0
 19 21  1  0  0  0  0
M  CHG  1  15  -1
M  END
$$$$
default_name
  -OEChem-02102213163D

 24 23  0     1  0  0  0  0  0999 V2000
   -2.8347   -3.7166    0.8034 H   0  0  0  0  0  0  0  0  0  0  0  0
   -2.7728   -2.7096    0.3954 C   0  0  0  0  0  0  0  0  0  0  0  0
   -3.4267   -2.0426    0.9524 H   0  0  0  0  0  0  0  0  0  0  0  0
   -3.0538   -2.7186   -0.6556 H   0  0  0  0  0  0  0  0  0  0  0  0
   -1.3498   -2.2206    0.5184 C   0  0  0  0  0  0  0  0  0  0  0  0
   -0.4997   -2.9426    1.0194 O   0  0  0  0  0  0  0  0  0  0  0  0
   -1.1198   -0.9926    0.0674 N   0  0  0  0  0  0  0  0  0  0  0  0
   -1.8978   -0.4486   -0.2716 H   0  0  0  0  0  0  0  0  0  0  0  0
    0.1693   -0.2866    0.0854 C   0  0  1  0  0  0  0  0  0  0  0  0
    0.8425   -0.7905    0.7811 H   0  0  0  0  0  0  0  0  0  0  0  0
    0.7993   -0.3404   -1.3233 C   0  0  0  0  0  0  0  0  0  0  0  0
    0.0300   -0.1037   -2.0604 H   0  0  0  0  0  0  0  0  0  0  0  0
    1.5736    0.4269   -1.3920 H   0  0  0  0  0  0  0  0  0  0  0  0
    1.4013   -1.7029   -1.7010 C   0  0  0  0  0  0  0  0  0  0  0  0
    1.1611   -2.1689   -2.8398 O   0  5  0  0  0  0  0  0  0  0  0  0
    2.0877   -2.2807   -0.8309 O   0  0  0  0  0  0  0  0  0  0  0  0
   -0.0374    1.1645    0.5781 C   0  0  0  0  0  0  0  0  0  0  0  0
   -0.9816    1.8416    0.1544 O   0  0  0  0  0  0  0  0  0  0  0  0
    0.8235    1.6462    1.4801 N   0  0  0  0  0  0  0  0  0  0  0  0
    1.6183    1.0435    1.7020 H   0  0  0  0  0  0  0  0  0  0  0  0
    0.7895    2.9929    2.0404 C   0  0  0  0  0  0  0  0  0  0  0  0
   -0.2344    3.2522    2.3130 H   0  0  0  0  0  0  0  0  0  0  0  0
    1.4265    3.0377    2.9233 H   0  0  0  0  0  0  0  0  0  0  0  0
    1.1511    3.7014    1.2950 H   0  0  0  0  0  0  0  0  0  0  0  0
  5  6  2  0  0  0  0
  5  7  1  0  0  0  0
  2  3  1  0  0  0  0
  2  4  1  0  0  0  0
  2  5  1  0  0  0  0
  1  2  1  0  0  0  0
 17 18  2  0  0  0  0
 17 19  1  0  0  0  0
 14 15  1  0  0  0  0
 14 16  2  0  0  0  0
 11 12  1  0  0  0  0
 11 13  1  0  0  0  0
 11 14  1  0  0  0  0
  9 10  1  0  0  0  0
  9 11  1  0  0  0  0
  9 17  1  0  0  0  0
  7  8  1  0  0  0  0
  7  9  1  0  0  0  0
 21 22  1  0  0  0  0
 21 23  1  0  0  0  0
 21 24  1  0  0  0  0
 19 20  1  0  0  0  0
 19 21  1  0  0  0  0
M  CHG  1  15  -1
M  END
$$$$
default_name
  -OEChem-02102213163D

 24 23  0     1  0  0  0  0  0999 V2000
   -2.8347   -3.7166    0.8034 H   0  0  0  0  0  0  0  0  0  0  0  0
   -2.7728   -2.7096    0.3954 C   0  0  0  0  0  0  0  0  0  0  0  0
   -3.4267   -2.0426    0.9524 H   0  0  0  0  0  0  0  0  0  0  0  0
   -3.0538   -2.7186   -0.6556 H   0  0  0  0  0  0  0  0  0  0  0  0
   -1.3498   -2.2206    0.5184 C   0  0  0  0  0  0  0  0  0  0  0  0
   -0.4997   -2.9426    1.0194 O   0  0  0  0  0  0  0  0  0  0  0  0
   -1.1198   -0.9926    0.0674 N   0  0  0  0  0  0  0  0  0  0  0  0
   -1.8978   -0.4486   -0.2716 H   0  0  0  0  0  0  0  0  0  0  0  0
    0.1693   -0.2866    0.0854 C   0  0  1  0  0  0  0  0  0  0  0  0
    0.8425   -0.7905    0.7811 H   0  0  0  0  0  0  0  0  0  0  0  0
    0.7993   -0.3404   -1.3233 C   0  0  0  0  0  0  0  0  0  0  0  0
    0.0300   -0.1037   -2.0604 H   0  0  0  0  0  0  0  0  0  0  0  0
    1.5736    0.4269   -1.3920 H   0  0  0  0  0  0  0  0  0  0  0  0
    1.4013   -1.7029   -1.7010 C   0  0  0  0  0  0  0  0  0  0  0  0
    1.4089   -2.0404   -2.9084 O   0  5  0  0  0  0  0  0  0  0  0  0
    1.8354   -2.4100   -0.7664 O   0  0  0  0  0  0  0  0  0  0  0  0
   -0.0374    1.1645    0.5781 C   0  0  0  0  0  0  0  0  0  0  0  0
   -0.9816    1.8416    0.1544 O   0  0  0  0  0  0  0  0  0  0  0  0
    0.8235    1.6462    1.4801 N   0  0  0  0  0  0  0  0  0  0  0  0
    1.6183    1.0435    1.7020 H   0  0  0  0  0  0  0  0  0  0  0  0
    0.7895    2.9929    2.0404 C   0  0  0  0  0  0  0  0  0  0  0  0
   -0.2344    3.2522    2.3130 H   0  0  0  0  0  0  0  0  0  0  0  0
    1.4265    3.0377    2.9233 H   0  0  0  0  0  0  0  0  0  0  0  0
    1.1511    3.7014    1.2950 H   0  0  0  0  0  0  0  0  0  0  0  0
  5  6  2  0  0  0  0
  5  7  1  0  0  0  0
  2  3  1  0  0  0  0
  2  4  1  0  0  0  0
  2  5  1  0  0  0  0
  1  2  1  0  0  0  0
 17 18  2  0  0  0  0
 17 19  1  0  0  0  0
 14 15  1  0  0  0  0
 14 16  2  0  0  0  0
 11 12  1  0  0  0  0
 11 13  1  0  0  0  0
 11 14  1  0  0  0  0
  9 10  1  0  0  0  0
  9 11  1  0  0  0  0
  9 17  1  0  0  0  0
  7  8  1  0  0  0  0
  7  9  1  0  0  0  0
 21 22  1  0  0  0  0
 21 23  1  0  0  0  0
 21 24  1  0  0  0  0
 19 20  1  0  0  0  0
 19 21  1  0  0  0  0
M  CHG  1  15  -1
M  END
$$$$
default_name
  -OEChem-02102213163D

 24 23  0     1  0  0  0  0  0999 V2000
   -2.8347   -3.7166    0.8034 H   0  0  0  0  0  0  0  0  0  0  0  0
   -2.7728   -2.7096    0.3954 C   0  0  0  0  0  0  0  0  0  0  0  0
   -3.4267   -2.0426    0.9524 H   0  0  0  0  0  0  0  0  0  0  0  0
   -3.0538   -2.7186   -0.6556 H   0  0  0  0  0  0  0  0  0  0  0  0
   -1.3498   -2.2206    0.5184 C   0  0  0  0  0  0  0  0  0  0  0  0
   -0.4997   -2.9426    1.0194 O   0  0  0  0  0  0  0  0  0  0  0  0
   -1.1198   -0.9926    0.0674 N   0  0  0  0  0  0  0  0  0  0  0  0
   -1.8978   -0.4486   -0.2716 H   0  0  0  0  0  0  0  0  0  0  0  0
    0.1693   -0.2866    0.0854 C   0  0  1  0  0  0  0  0  0  0  0  0
    0.8425   -0.7905    0.7811 H   0  0  0  0  0  0  0  0  0  0  0  0
    0.7993   -0.3404   -1.3233 C   0  0  0  0  0  0  0  0  0  0  0  0
    0.0300   -0.1037   -2.0604 H   0  0  0  0  0  0  0  0  0  0  0  0
    1.5736    0.4269   -1.3920 H   0  0  0  0  0  0  0  0  0  0  0  0
    1.4013   -1.7029   -1.7010 C   0  0  0  0  0  0  0  0  0  0  0  0
    1.6722   -1.9251   -2.9047 O   0  5  0  0  0  0  0  0  0  0  0  0
    1.5687   -2.5255   -0.7750 O   0  0  0  0  0  0  0  0  0  0  0  0
   -0.0374    1.1645    0.5781 C   0  0  0  0  0  0  0  0  0  0  0  0
   -0.9816    1.8416    0.1544 O   0  0  0  0  0  0  0  0  0  0  0  0
    0.8235    1.6462    1.4801 N   0  0  0  0  0  0  0  0  0  0  0  0
    1.6183    1.0435    1.7020 H   0  0  0  0  0  0  0  0  0  0  0  0
    0.7895    2.9929    2.0404 C   0  0  0  0  0  0  0  0  0  0  0  0
   -0.2344    3.2522    2.3130 H   0  0  0  0  0  0  0  0  0  0  0  0
    1.4265    3.0377    2.9233 H   0  0  0  0  0  0  0  0  0  0  0  0
    1.1511    3.7014    1.2950 H   0  0  0  0  0  0  0  0  0  0  0  0
  5  6  2  0  0  0  0
  5  7  1  0  0  0  0
  2  3  1  0  0  0  0
  2  4  1  0  0  0  0
  2  5  1  0  0  0  0
  1  2  1  0  0  0  0
 17 18  2  0  0  0  0
 17 19  1  0  0  0  0
 14 15  1  0  0  0  0
 14 16  2  0  0  0  0
 11 12  1  0  0  0  0
 11 13  1  0  0  0  0
 11 14  1  0  0  0  0
  9 10  1  0  0  0  0
  9 11  1  0  0  0  0
  9 17  1  0  0  0  0
  7  8  1  0  0  0  0
  7  9  1  0  0  0  0
 21 22  1  0  0  0  0
 21 23  1  0  0  0  0
 21 24  1  0  0  0  0
 19 20  1  0  0  0  0
 19 21  1  0  0  0  0
M  CHG  1  15  -1
M  END
$$$$
default_name
  -OEChem-02102213163D

 24 23  0     1  0  0  0  0  0999 V2000
   -2.8347   -3.7166    0.8034 H   0  0  0  0  0  0  0  0  0  0  0  0
   -2.7728   -2.7096    0.3954 C   0  0  0  0  0  0  0  0  0  0  0  0
   -3.4267   -2.0426    0.9524 H   0  0  0  0  0  0  0  0  0  0  0  0
   -3.0538   -2.7186   -0.6556 H   0  0  0  0  0  0  0  0  0  0  0  0
   -1.3498   -2.2206    0.5184 C   0  0  0  0  0  0  0  0  0  0  0  0
   -0.4997   -2.9426    1.0194 O   0  0  0  0  0  0  0  0  0  0  0  0
   -1.1198   -0.9926    0.0674 N   0  0  0  0  0  0  0  0  0  0  0  0
   -1.8978   -0.4486   -0.2716 H   0  0  0  0  0  0  0  0  0  0  0  0
    0.1693   -0.2866    0.0854 C   0  0  1  0  0  0  0  0  0  0  0  0
    0.8425   -0.7905    0.7811 H   0  0  0  0  0  0  0  0  0  0  0  0
    0.7993   -0.3404   -1.3233 C   0  0  0  0  0  0  0  0  0  0  0  0
    0.1236    0.1473   -2.0281 H   0  0  0  0  0  0  0  0  0  0  0  0
    1.7339    0.2248   -1.3126 H   0  0  0  0  0  0  0  0  0  0  0  0
    1.0713   -1.7594   -1.8464 C   0  0  0  0  0  0  0  0  0  0  0  0
    1.5823   -1.8910   -2.9836 O   0  5  0  0  0  0  0  0  0  0  0  0
    0.7443   -2.7102   -1.1040 O   0  0  0  0  0  0  0  0  0  0  0  0
   -0.0374    1.1645    0.5781 C   0  0  0  0  0  0  0  0  0  0  0  0
   -0.9816    1.8416    0.1544 O   0  0  0  0  0  0  0  0  0  0  0  0
    0.8235    1.6462    1.4801 N   0  0  0  0  0  0  0  0  0  0  0  0
    1.6183    1.0435    1.7020 H   0  0  0  0  0  0  0  0  0  0  0  0
    0.7895    2.9929    2.0404 C   0  0  0  0  0  0  0  0  0  0  0  0
   -0.2344    3.2522    2.3130 H   0  0  0  0  0  0  0  0  0  0  0  0
    1.4265    3.0377    2.9233 H   0  0  0  0  0  0  0  0  0  0  0  0
    1.1511    3.7014    1.2950 H   0  0  0  0  0  0  0  0  0  0  0  0
  5  6  2  0  0  0  0
  5  7  1  0  0  0  0
  2  3  1  0  0  0  0
  2  4  1  0  0  0  0
  2  5  1  0  0  0  0
  1  2  1  0  0  0  0
 17 18  2  0  0  0  0
 17 19  1  0  0  0  0
 14 15  1  0  0  0  0
 14 16  2  0  0  0  0
 11 12  1  0  0  0  0
 11 13  1  0  0  0  0
 11 14  1  0  0  0  0
  9 10  1  0  0  0  0
  9 11  1  0  0  0  0
  9 17  1  0  0  0  0
  7  8  1  0  0  0  0
  7  9  1  0  0  0  0
 21 22  1  0  0  0  0
 21 23  1  0  0  0  0
 21 24  1  0  0  0  0
 19 20  1  0  0  0  0
 19 21  1  0  0  0  0
M  CHG  1  15  -1
M  END
$$$$
default_name
  -OEChem-02102213163D

 24 23  0     1  0  0  0  0  0999 V2000
   -2.8347   -3.7166    0.8034 H   0  0  0  0  0  0  0  0  0  0  0  0
   -2.7728   -2.7096    0.3954 C   0  0  0  0  0  0  0  0  0  0  0  0
   -3.4267   -2.0426    0.9524 H   0  0  0  0  0  0  0  0  0  0  0  0
   -3.0538   -2.7186   -0.6556 H   0  0  0  0  0  0  0  0  0  0  0  0
   -1.3498   -2.2206    0.5184 C   0  0  0  0  0  0  0  0  0  0  0  0
   -0.4997   -2.9426    1.0194 O   0  0  0  0  0  0  0  0  0  0  0  0
   -1.1198   -0.9926    0.0674 N   0  0  0  0  0  0  0  0  0  0  0  0
   -1.8978   -0.4486   -0.2716 H   0  0  0  0  0  0  0  0  0  0  0  0
    0.1693   -0.2866    0.0854 C   0  0  1  0  0  0  0  0  0  0  0  0
    0.8425   -0.7905    0.7811 H   0  0  0  0  0  0  0  0  0  0  0  0
    0.7993   -0.3404   -1.3233 C   0  0  0  0  0  0  0  0  0  0  0  0
    0.1236    0.1473   -2.0281 H   0  0  0  0  0  0  0  0  0  0  0  0
    1.7339    0.2248   -1.3126 H   0  0  0  0  0  0  0  0  0  0  0  0
    1.0713   -1.7594   -1.8464 C   0  0  0  0  0  0  0  0  0  0  0  0
    1.8287   -1.8983   -2.8357 O   0  5  0  0  0  0  0  0  0  0  0  0
    0.4976   -2.7008   -1.2576 O   0  0  0  0  0  0  0  0  0  0  0  0
   -0.0374    1.1645    0.5781 C   0  0  0  0  0  0  0  0  0  0  0  0
   -0.9816    1.8416    0.1544 O   0  0  0  0  0  0  0  0  0  0  0  0
    0.8235    1.6462    1.4801 N   0  0  0  0  0  0  0  0  0  0  0  0
    1.6183    1.0435    1.7020 H   0  0  0  0  0  0  0  0  0  0  0  0
    0.7895    2.9929    2.0404 C   0  0  0  0  0  0  0  0  0  0  0  0
   -0.2344    3.2522    2.3130 H   0  0  0  0  0  0  0  0  0  0  0  0
    1.4265    3.0377    2.9233 H   0  0  0  0  0  0  0  0  0  0  0  0
    1.1511    3.7014    1.2950 H   0  0  0  0  0  0  0  0  0  0  0  0
  5  6  2  0  0  0  0
  5  7  1  0  0  0  0
  2  3  1  0  0  0  0
  2  4  1  0  0  0  0
  2  5  1  0  0  0  0
  1  2  1  0  0  0  0
 17 18  2  0  0  0  0
 17 19  1  0  0  0  0
 14 15  1  0  0  0  0
 14 16  2  0  0  0  0
 11 12  1  0  0  0  0
 11 13  1  0  0  0  0
 11 14  1  0  0  0  0
  9 10  1  0  0  0  0
  9 11  1  0  0  0  0
  9 17  1  0  0  0  0
  7  8  1  0  0  0  0
  7  9  1  0  0  0  0
 21 22  1  0  0  0  0
 21 23  1  0  0  0  0
 21 24  1  0  0  0  0
 19 20  1  0  0  0  0
 19 21  1  0  0  0  0
M  CHG  1  15  -1
M  END
$$$$
default_name
  -OEChem-02102213163D

 24 23  0     1  0  0  0  0  0999 V2000
   -2.8347   -3.7166    0.8034 H   0  0  0  0  0  0  0  0  0  0  0  0
   -2.7728   -2.7096    0.3954 C   0  0  0  0  0  0  0  0  0  0  0  0
   -3.4267   -2.0426    0.9524 H   0  0  0  0  0  0  0  0  0  0  0  0
   -3.0538   -2.7186   -0.6556 H   0  0  0  0  0  0  0  0  0  0  0  0
   -1.3498   -2.2206    0.5184 C   0  0  0  0  0  0  0  0  0  0  0  0
   -0.4997   -2.9426    1.0194 O   0  0  0  0  0  0  0  0  0  0  0  0
   -1.1198   -0.9926    0.0674 N   0  0  0  0  0  0  0  0  0  0  0  0
   -1.8978   -0.4486   -0.2716 H   0  0  0  0  0  0  0  0  0  0  0  0
    0.1693   -0.2866    0.0854 C   0  0  1  0  0  0  0  0  0  0  0  0
    0.8425   -0.7905    0.7811 H   0  0  0  0  0  0  0  0  0  0  0  0
    0.7993   -0.3404   -1.3233 C   0  0  0  0  0  0  0  0  0  0  0  0
    0.1236    0.1473   -2.0281 H   0  0  0  0  0  0  0  0  0  0  0  0
    1.7339    0.2248   -1.3126 H   0  0  0  0  0  0  0  0  0  0  0  0
    1.0713   -1.7594   -1.8464 C   0  0  0  0  0  0  0  0  0  0  0  0
    2.0308   -1.9338   -2.6343 O   0  5  0  0  0  0  0  0  0  0  0  0
    0.2969   -2.6630   -1.4644 O   0  0  0  0  0  0  0  0  0  0  0  0
   -0.0374    1.1645    0.5781 C   0  0  0  0  0  0  0  0  0  0  0  0
   -0.9816    1.8416    0.1544 O   0  0  0  0  0  0  0  0  0  0  0  0
    0.8235    1.6462    1.4801 N   0  0  0  0  0  0  0  0  0  0  0  0
    1.6183    1.0435    1.7020 H   0  0  0  0  0  0  0  0  0  0  0  0
    0.7895    2.9929    2.0404 C   0  0  0  0  0  0  0  0  0  0  0  0
   -0.2344    3.2522    2.3130 H   0  0  0  0  0  0  0  0  0  0  0  0
    1.4265    3.0377    2.9233 H   0  0  0  0  0  0  0  0  0  0  0  0
    1.1511    3.7014    1.2950 H   0  0  0  0  0  0  0  0  0  0  0  0
  5  6  2  0  0  0  0
  5  7  1  0  0  0  0
  2  3  1  0  0  0  0
  2  4  1  0  0  0  0
  2  5  1  0  0  0  0
  1  2  1  0  0  0  0
 17 18  2  0  0  0  0
 17 19  1  0  0  0  0
 14 15  1  0  0  0  0
 14 16  2  0  0  0  0
 11 12  1  0  0  0  0
 11 13  1  0  0  0  0
 11 14  1  0  0  0  0
  9 10  1  0  0  0  0
  9 11  1  0  0  0  0
  9 17  1  0  0  0  0
  7  8  1  0  0  0  0
  7  9  1  0  0  0  0
 21 22  1  0  0  0  0
 21 23  1  0  0  0  0
 21 24  1  0  0  0  0
 19 20  1  0  0  0  0
 19 21  1  0  0  0  0
M  CHG  1  15  -1
M  END
$$$$
default_name
  -OEChem-02102213163D

 24 23  0     1  0  0  0  0  0999 V2000
   -2.8347   -3.7166    0.8034 H   0  0  0  0  0  0  0  0  0  0  0  0
   -2.7728   -2.7096    0.3954 C   0  0  0  0  0  0  0  0  0  0  0  0
   -3.4267   -2.0426    0.9524 H   0  0  0  0  0  0  0  0  0  0  0  0
   -3.0538   -2.7186   -0.6556 H   0  0  0  0  0  0  0  0  0  0  0  0
   -1.3498   -2.2206    0.5184 C   0  0  0  0  0  0  0  0  0  0  0  0
   -0.4997   -2.9426    1.0194 O   0  0  0  0  0  0  0  0  0  0  0  0
   -1.1198   -0.9926    0.0674 N   0  0  0  0  0  0  0  0  0  0  0  0
   -1.8978   -0.4486   -0.2716 H   0  0  0  0  0  0  0  0  0  0  0  0
    0.1693   -0.2866    0.0854 C   0  0  1  0  0  0  0  0  0  0  0  0
    0.8425   -0.7905    0.7811 H   0  0  0  0  0  0  0  0  0  0  0  0
    0.7993   -0.3404   -1.3233 C   0  0  0  0  0  0  0  0  0  0  0  0
    0.1236    0.1473   -2.0281 H   0  0  0  0  0  0  0  0  0  0  0  0
    1.7339    0.2248   -1.3126 H   0  0  0  0  0  0  0  0  0  0  0  0
    1.0713   -1.7594   -1.8464 C   0  0  0  0  0  0  0  0  0  0  0  0
    2.1746   -1.9952   -2.3931 O   0  5  0  0  0  0  0  0  0  0  0  0
    0.1558   -2.5994   -1.7105 O   0  0  0  0  0  0  0  0  0  0  0  0
   -0.0374    1.1645    0.5781 C   0  0  0  0  0  0  0  0  0  0  0  0
   -0.9816    1.8416    0.1544 O   0  0  0  0  0  0  0  0  0  0  0  0
    0.8235    1.6462    1.4801 N   0  0  0  0  0  0  0  0  0  0  0  0
    1.6183    1.0435    1.7020 H   0  0  0  0  0  0  0  0  0  0  0  0
    0.7895    2.9929    2.0404 C   0  0  0  0  0  0  0  0  0  0  0  0
   -0.2344    3.2522    2.3130 H   0  0  0  0  0  0  0  0  0  0  0  0
    1.4265    3.0377    2.9233 H   0  0  0  0  0  0  0  0  0  0  0  0
    1.1511    3.7014    1.2950 H   0  0  0  0  0  0  0  0  0  0  0  0
  5  6  2  0  0  0  0
  5  7  1  0  0  0  0
  2  3  1  0  0  0  0
  2  4  1  0  0  0  0
  2  5  1  0  0  0  0
  1  2  1  0  0  0  0
 17 18  2  0  0  0  0
 17 19  1  0  0  0  0
 14 15  1  0  0  0  0
 14 16  2  0  0  0  0
 11 12  1  0  0  0  0
 11 13  1  0  0  0  0
 11 14  1  0  0  0  0
  9 10  1  0  0  0  0
  9 11  1  0  0  0  0
  9 17  1  0  0  0  0
  7  8  1  0  0  0  0
  7  9  1  0  0  0  0
 21 22  1  0  0  0  0
 21 23  1  0  0  0  0
 21 24  1  0  0  0  0
 19 20  1  0  0  0  0
 19 21  1  0  0  0  0
M  CHG  1  15  -1
M  END
$$$$
default_name
  -OEChem-02102213163D

 24 23  0     1  0  0  0  0  0999 V2000
   -2.8347   -3.7166    0.8034 H   0  0  0  0  0  0  0  0  0  0  0  0
   -2.7728   -2.7096    0.3954 C   0  0  0  0  0  0  0  0  0  0  0  0
   -3.4267   -2.0426    0.9524 H   0  0  0  0  0  0  0  0  0  0  0  0
   -3.0538   -2.7186   -0.6556 H   0  0  0  0  0  0  0  0  0  0  0  0
   -1.3498   -2.2206    0.5184 C   0  0  0  0  0  0  0  0  0  0  0  0
   -0.4997   -2.9426    1.0194 O   0  0  0  0  0  0  0  0  0  0  0  0
   -1.1198   -0.9926    0.0674 N   0  0  0  0  0  0  0  0  0  0  0  0
   -1.8978   -0.4486   -0.2716 H   0  0  0  0  0  0  0  0  0  0  0  0
    0.1693   -0.2866    0.0854 C   0  0  1  0  0  0  0  0  0  0  0  0
    0.8425   -0.7905    0.7811 H   0  0  0  0  0  0  0  0  0  0  0  0
    0.7993   -0.3404   -1.3233 C   0  0  0  0  0  0  0  0  0  0  0  0
    0.1236    0.1473   -2.0281 H   0  0  0  0  0  0  0  0  0  0  0  0
    1.7339    0.2248   -1.3126 H   0  0  0  0  0  0  0  0  0  0  0  0
    1.0713   -1.7594   -1.8464 C   0  0  0  0  0  0  0  0  0  0  0  0
    2.2505   -2.0782   -2.1285 O   0  5  0  0  0  0  0  0  0  0  0  0
    0.0839   -2.5141   -1.9790 O   0  0  0  0  0  0  0  0  0  0  0  0
   -0.0374    1.1645    0.5781 C   0  0  0  0  0  0  0  0  0  0  0  0
   -0.9816    1.8416    0.1544 O   0  0  0  0  0  0  0  0  0  0  0  0
    0.8235    1.6462    1.4801 N   0  0  0  0  0  0  0  0  0  0  0  0
    1.6183    1.0435    1.7020 H   0  0  0  0  0  0  0  0  0  0  0  0
    0.7895    2.9929    2.0404 C   0  0  0  0  0  0  0  0  0  0  0  0
   -0.2344    3.2522    2.3130 H   0  0  0  0  0  0  0  0  0  0  0  0
    1.4265    3.0377    2.9233 H   0  0  0  0  0  0  0  0  0  0  0  0
    1.1511    3.7014    1.2950 H   0  0  0  0  0  0  0  0  0  0  0  0
  5  6  2  0  0  0  0
  5  7  1  0  0  0  0
  2  3  1  0  0  0  0
  2  4  1  0  0  0  0
  2  5  1  0  0  0  0
  1  2  1  0  0  0  0
 17 18  2  0  0  0  0
 17 19  1  0  0  0  0
 14 15  1  0  0  0  0
 14 16  2  0  0  0  0
 11 12  1  0  0  0  0
 11 13  1  0  0  0  0
 11 14  1  0  0  0  0
  9 10  1  0  0  0  0
  9 11  1  0  0  0  0
  9 17  1  0  0  0  0
  7  8  1  0  0  0  0
  7  9  1  0  0  0  0
 21 22  1  0  0  0  0
 21 23  1  0  0  0  0
 21 24  1  0  0  0  0
 19 20  1  0  0  0  0
 19 21  1  0  0  0  0
M  CHG  1  15  -1
M  END
$$$$
default_name
  -OEChem-02102213163D

 24 23  0     1  0  0  0  0  0999 V2000
   -2.8347   -3.7166    0.8034 H   0  0  0  0  0  0  0  0  0  0  0  0
   -2.7728   -2.7096    0.3954 C   0  0  0  0  0  0  0  0  0  0  0  0
   -3.4267   -2.0426    0.9524 H   0  0  0  0  0  0  0  0  0  0  0  0
   -3.0538   -2.7186   -0.6556 H   0  0  0  0  0  0  0  0  0  0  0  0
   -1.3498   -2.2206    0.5184 C   0  0  0  0  0  0  0  0  0  0  0  0
   -0.4997   -2.9426    1.0194 O   0  0  0  0  0  0  0  0  0  0  0  0
   -1.1198   -0.9926    0.0674 N   0  0  0  0  0  0  0  0  0  0  0  0
   -1.8978   -0.4486   -0.2716 H   0  0  0  0  0  0  0  0  0  0  0  0
    0.1693   -0.2866    0.0854 C   0  0  1  0  0  0  0  0  0  0  0  0
    0.8425   -0.7905    0.7811 H   0  0  0  0  0  0  0  0  0  0  0  0
    0.7993   -0.3404   -1.3233 C   0  0  0  0  0  0  0  0  0  0  0  0
    0.1236    0.1473   -2.0281 H   0  0  0  0  0  0  0  0  0  0  0  0
    1.7339    0.2248   -1.3126 H   0  0  0  0  0  0  0  0  0  0  0  0
    1.0713   -1.7594   -1.8464 C   0  0  0  0  0  0  0  0  0  0  0  0
    2.2533   -2.1771   -1.8586 O   0  5  0  0  0  0  0  0  0  0  0  0
    0.0862   -2.4132   -2.2517 O   0  0  0  0  0  0  0  0  0  0  0  0
   -0.0374    1.1645    0.5781 C   0  0  0  0  0  0  0  0  0  0  0  0
   -0.9816    1.8416    0.1544 O   0  0  0  0  0  0  0  0  0  0  0  0
    0.8235    1.6462    1.4801 N   0  0  0  0  0  0  0  0  0  0  0  0
    1.6183    1.0435    1.7020 H   0  0  0  0  0  0  0  0  0  0  0  0
    0.7895    2.9929    2.0404 C   0  0  0  0  0  0  0  0  0  0  0  0
   -0.2344    3.2522    2.3130 H   0  0  0  0  0  0  0  0  0  0  0  0
    1.4265    3.0377    2.9233 H   0  0  0  0  0  0  0  0  0  0  0  0
    1.1511    3.7014    1.2950 H   0  0  0  0  0  0  0  0  0  0  0  0
  5  6  2  0  0  0  0
  5  7  1  0  0  0  0
  2  3  1  0  0  0  0
  2  4  1  0  0  0  0
  2  5  1  0  0  0  0
  1  2  1  0  0  0  0
 17 18  2  0  0  0  0
 17 19  1  0  0  0  0
 14 15  1  0  0  0  0
 14 16  2  0  0  0  0
 11 12  1  0  0  0  0
 11 13  1  0  0  0  0
 11 14  1  0  0  0  0
  9 10  1  0  0  0  0
  9 11  1  0  0  0  0
  9 17  1  0  0  0  0
  7  8  1  0  0  0  0
  7  9  1  0  0  0  0
 21 22  1  0  0  0  0
 21 23  1  0  0  0  0
 21 24  1  0  0  0  0
 19 20  1  0  0  0  0
 19 21  1  0  0  0  0
M  CHG  1  15  -1
M  END
$$$$
default_name
  -OEChem-02102213163D

 24 23  0     1  0  0  0  0  0999 V2000
   -2.8347   -3.7166    0.8034 H   0  0  0  0  0  0  0  0  0  0  0  0
   -2.7728   -2.7096    0.3954 C   0  0  0  0  0  0  0  0  0  0  0  0
   -3.4267   -2.0426    0.9524 H   0  0  0  0  0  0  0  0  0  0  0  0
   -3.0538   -2.7186   -0.6556 H   0  0  0  0  0  0  0  0  0  0  0  0
   -1.3498   -2.2206    0.5184 C   0  0  0  0  0  0  0  0  0  0  0  0
   -0.4997   -2.9426    1.0194 O   0  0  0  0  0  0  0  0  0  0  0  0
   -1.1198   -0.9926    0.0674 N   0  0  0  0  0  0  0  0  0  0  0  0
   -1.8978   -0.4486   -0.2716 H   0  0  0  0  0  0  0  0  0  0  0  0
    0.1693   -0.2866    0.0854 C   0  0  1  0  0  0  0  0  0  0  0  0
    0.8425   -0.7905    0.7811 H   0  0  0  0  0  0  0  0  0  0  0  0
    0.7993   -0.3404   -1.3233 C   0  0  0  0  0  0  0  0  0  0  0  0
    0.1236    0.1473   -2.0281 H   0  0  0  0  0  0  0  0  0  0  0  0
    1.7339    0.2248   -1.3126 H   0  0  0  0  0  0  0  0  0  0  0  0
    1.0713   -1.7594   -1.8464 C   0  0  0  0  0  0  0  0  0  0  0  0
    2.1827   -2.2853   -1.6018 O   0  5  0  0  0  0  0  0  0  0  0  0
    0.1624   -2.3034   -2.5098 O   0  0  0  0  0  0  0  0  0  0  0  0
   -0.0374    1.1645    0.5781 C   0  0  0  0  0  0  0  0  0  0  0  0
   -0.9816    1.8416    0.1544 O   0  0  0  0  0  0  0  0  0  0  0  0
    0.8235    1.6462    1.4801 N   0  0  0  0  0  0  0  0  0  0  0  0
    1.6183    1.0435    1.7020 H   0  0  0  0  0  0  0  0  0  0  0  0
    0.7895    2.9929    2.0404 C   0  0  0  0  0  0  0  0  0  0  0  0
   -0.2344    3.2522    2.3130 H   0  0  0  0  0  0  0  0  0  0  0  0
    1.4265    3.0377    2.9233 H   0  0  0  0  0  0  0  0  0  0  0  0
    1.1511    3.7014    1.2950 H   0  0  0  0  0  0  0  0  0  0  0  0
  5  6  2  0  0  0  0
  5  7  1  0  0  0  0
  2  3  1  0  0  0  0
  2  4  1  0  0  0  0
  2  5  1  0  0  0  0
  1  2  1  0  0  0  0
 17 18  2  0  0  0  0
 17 19  1  0  0  0  0
 14 15  1  0  0  0  0
 14 16  2  0  0  0  0
 11 12  1  0  0  0  0
 11 13  1  0  0  0  0
 11 14  1  0  0  0  0
  9 10  1  0  0  0  0
  9 11  1  0  0  0  0
  9 17  1  0  0  0  0
  7  8  1  0  0  0  0
  7  9  1  0  0  0  0
 21 22  1  0  0  0  0
 21 23  1  0  0  0  0
 21 24  1  0  0  0  0
 19 20  1  0  0  0  0
 19 21  1  0  0  0  0
M  CHG  1  15  -1
M  END
$$$$
default_name
  -OEChem-02102213163D

 24 23  0     1  0  0  0  0  0999 V2000
   -2.8347   -3.7166    0.8034 H   0  0  0  0  0  0  0  0  0  0  0  0
   -2.7728   -2.7096    0.3954 C   0  0  0  0  0  0  0  0  0  0  0  0
   -3.4267   -2.0426    0.9524 H   0  0  0  0  0  0  0  0  0  0  0  0
   -3.0538   -2.7186   -0.6556 H   0  0  0  0  0  0  0  0  0  0  0  0
   -1.3498   -2.2206    0.5184 C   0  0  0  0  0  0  0  0  0  0  0  0
   -0.4997   -2.9426    1.0194 O   0  0  0  0  0  0  0  0  0  0  0  0
   -1.1198   -0.9926    0.0674 N   0  0  0  0  0  0  0  0  0  0  0  0
   -1.8978   -0.4486   -0.2716 H   0  0  0  0  0  0  0  0  0  0  0  0
    0.1693   -0.2866    0.0854 C   0  0  1  0  0  0  0  0  0  0  0  0
    0.8425   -0.7905    0.7811 H   0  0  0  0  0  0  0  0  0  0  0  0
    0.7993   -0.3404   -1.3233 C   0  0  0  0  0  0  0  0  0  0  0  0
    0.1236    0.1473   -2.0281 H   0  0  0  0  0  0  0  0  0  0  0  0
    1.7339    0.2248   -1.3126 H   0  0  0  0  0  0  0  0  0  0  0  0
    1.0713   -1.7594   -1.8464 C   0  0  0  0  0  0  0  0  0  0  0  0
    2.0436   -2.3954   -1.3755 O   0  5  0  0  0  0  0  0  0  0  0  0
    0.3074   -2.1922   -2.7360 O   0  0  0  0  0  0  0  0  0  0  0  0
   -0.0374    1.1645    0.5781 C   0  0  0  0  0  0  0  0  0  0  0  0
   -0.9816    1.8416    0.1544 O   0  0  0  0  0  0  0  0  0  0  0  0
    0.8235    1.6462    1.4801 N   0  0  0  0  0  0  0  0  0  0  0  0
    1.6183    1.0435    1.7020 H   0  0  0  0  0  0  0  0  0  0  0  0
    0.7895    2.9929    2.0404 C   0  0  0  0  0  0  0  0  0  0  0  0
   -0.2344    3.2522    2.3130 H   0  0  0  0  0  0  0  0  0  0  0  0
    1.4265    3.0377    2.9233 H   0  0  0  0  0  0  0  0  0  0  0  0
    1.1511    3.7014    1.2950 H   0  0  0  0  0  0  0  0  0  0  0  0
  5  6  2  0  0  0  0
  5  7  1  0  0  0  0
  2  3  1  0  0  0  0
  2  4  1  0  0  0  0
  2  5  1  0  0  0  0
  1  2  1  0  0  0  0
 17 18  2  0  0  0  0
 17 19  1  0  0  0  0
 14 15  1  0  0  0  0
 14 16  2  0  0  0  0
 11 12  1  0  0  0  0
 11 13  1  0  0  0  0
 11 14  1  0  0  0  0
  9 10  1  0  0  0  0
  9 11  1  0  0  0  0
  9 17  1  0  0  0  0
  7  8  1  0  0  0  0
  7  9  1  0  0  0  0
 21 22  1  0  0  0  0
 21 23  1  0  0  0  0
 21 24  1  0  0  0  0
 19 20  1  0  0  0  0
 19 21  1  0  0  0  0
M  CHG  1  15  -1
M  END
$$$$
default_name
  -OEChem-02102213163D

 24 23  0     1  0  0  0  0  0999 V2000
   -2.8347   -3.7166    0.8034 H   0  0  0  0  0  0  0  0  0  0  0  0
   -2.7728   -2.7096    0.3954 C   0  0  0  0  0  0  0  0  0  0  0  0
   -3.4267   -2.0426    0.9524 H   0  0  0  0  0  0  0  0  0  0  0  0
   -3.0538   -2.7186   -0.6556 H   0  0  0  0  0  0  0  0  0  0  0  0
   -1.3498   -2.2206    0.5184 C   0  0  0  0  0  0  0  0  0  0  0  0
   -0.4997   -2.9426    1.0194 O   0  0  0  0  0  0  0  0  0  0  0  0
   -1.1198   -0.9926    0.0674 N   0  0  0  0  0  0  0  0  0  0  0  0
   -1.8978   -0.4486   -0.2716 H   0  0  0  0  0  0  0  0  0  0  0  0
    0.1693   -0.2866    0.0854 C   0  0  1  0  0  0  0  0  0  0  0  0
    0.8425   -0.7905    0.7811 H   0  0  0  0  0  0  0  0  0  0  0  0
    0.7993   -0.3404   -1.3233 C   0  0  0  0  0  0  0  0  0  0  0  0
    0.1236    0.1473   -2.0281 H   0  0  0  0  0  0  0  0  0  0  0  0
    1.7339    0.2248   -1.3126 H   0  0  0  0  0  0  0  0  0  0  0  0
    1.0713   -1.7594   -1.8464 C   0  0  0  0  0  0  0  0  0  0  0  0
    1.8455   -2.4998   -1.1953 O   0  5  0  0  0  0  0  0  0  0  0  0
    0.5113   -2.0873   -2.9147 O   0  0  0  0  0  0  0  0  0  0  0  0
   -0.0374    1.1645    0.5781 C   0  0  0  0  0  0  0  0  0  0  0  0
   -0.9816    1.8416    0.1544 O   0  0  0  0  0  0  0  0  0  0  0  0
    0.8235    1.6462    1.4801 N   0  0  0  0  0  0  0  0  0  0  0  0
    1.6183    1.0435    1.7020 H   0  0  0  0  0  0  0  0  0  0  0  0
    0.7895    2.9929    2.0404 C   0  0  0  0  0  0  0  0  0  0  0  0
   -0.2344    3.2522    2.3130 H   0  0  0  0  0  0  0  0  0  0  0  0
    1.4265    3.0377    2.9233 H   0  0  0  0  0  0  0  0  0  0  0  0
    1.1511    3.7014    1.2950 H   0  0  0  0  0  0  0  0  0  0  0  0
  5  6  2  0  0  0  0
  5  7  1  0  0  0  0
  2  3  1  0  0  0  0
  2  4  1  0  0  0  0
  2  5  1  0  0  0  0
  1  2  1  0  0  0  0
 17 18  2  0  0  0  0
 17 19  1  0  0  0  0
 14 15  1  0  0  0  0
 14 16  2  0  0  0  0
 11 12  1  0  0  0  0
 11 13  1  0  0  0  0
 11 14  1  0  0  0  0
  9 10  1  0  0  0  0
  9 11  1  0  0  0  0
  9 17  1  0  0  0  0
  7  8  1  0  0  0  0
  7  9  1  0  0  0  0
 21 22  1  0  0  0  0
 21 23  1  0  0  0  0
 21 24  1  0  0  0  0
 19 20  1  0  0  0  0
 19 21  1  0  0  0  0
M  CHG  1  15  -1
M  END
$$$$
default_name
  -OEChem-02102213163D

 24 23  0     1  0  0  0  0  0999 V2000
   -2.8347   -3.7166    0.8034 H   0  0  0  0  0  0  0  0  0  0  0  0
   -2.7728   -2.7096    0.3954 C   0  0  0  0  0  0  0  0  0  0  0  0
   -3.4267   -2.0426    0.9524 H   0  0  0  0  0  0  0  0  0  0  0  0
   -3.0538   -2.7186   -0.6556 H   0  0  0  0  0  0  0  0  0  0  0  0
   -1.3498   -2.2206    0.5184 C   0  0  0  0  0  0  0  0  0  0  0  0
   -0.4997   -2.9426    1.0194 O   0  0  0  0  0  0  0  0  0  0  0  0
   -1.1198   -0.9926    0.0674 N   0  0  0  0  0  0  0  0  0  0  0  0
   -1.8978   -0.4486   -0.2716 H   0  0  0  0  0  0  0  0  0  0  0  0
    0.1693   -0.2866    0.0854 C   0  0  1  0  0  0  0  0  0  0  0  0
    0.8425   -0.7905    0.7811 H   0  0  0  0  0  0  0  0  0  0  0  0
    0.7993   -0.3404   -1.3233 C   0  0  0  0  0  0  0  0  0  0  0  0
    0.1236    0.1473   -2.0281 H   0  0  0  0  0  0  0  0  0  0  0  0
    1.7339    0.2248   -1.3126 H   0  0  0  0  0  0  0  0  0  0  0  0
    1.0713   -1.7594   -1.8464 C   0  0  0  0  0  0  0  0  0  0  0  0
    1.6019   -2.5915   -1.0733 O   0  5  0  0  0  0  0  0  0  0  0  0
    0.7602   -1.9957   -3.0337 O   0  0  0  0  0  0  0  0  0  0  0  0
   -0.0374    1.1645    0.5781 C   0  0  0  0  0  0  0  0  0  0  0  0
   -0.9816    1.8416    0.1544 O   0  0  0  0  0  0  0  0  0  0  0  0
    0.8235    1.6462    1.4801 N   0  0  0  0  0  0  0  0  0  0  0  0
    1.6183    1.0435    1.7020 H   0  0  0  0  0  0  0  0  0  0  0  0
    0.7895    2.9929    2.0404 C   0  0  0  0  0  0  0  0  0  0  0  0
   -0.2344    3.2522    2.3130 H   0  0  0  0  0  0  0  0  0  0  0  0
    1.4265    3.0377    2.9233 H   0  0  0  0  0  0  0  0  0  0  0  0
    1.1511    3.7014    1.2950 H   0  0  0  0  0  0  0  0  0  0  0  0
  5  6  2  0  0  0  0
  5  7  1  0  0  0  0
  2  3  1  0  0  0  0
  2  4  1  0  0  0  0
  2  5  1  0  0  0  0
  1  2  1  0  0  0  0
 17 18  2  0  0  0  0
 17 19  1  0  0  0  0
 14 15  1  0  0  0  0
 14 16  2  0  0  0  0
 11 12  1  0  0  0  0
 11 13  1  0  0  0  0
 11 14  1  0  0  0  0
  9 10  1  0  0  0  0
  9 11  1  0  0  0  0
  9 17  1  0  0  0  0
  7  8  1  0  0  0  0
  7  9  1  0  0  0  0
 21 22  1  0  0  0  0
 21 23  1  0  0  0  0
 21 24  1  0  0  0  0
 19 20  1  0  0  0  0
 19 21  1  0  0  0  0
M  CHG  1  15  -1
M  END
$$$$
default_name
  -OEChem-02102213163D

 24 23  0     1  0  0  0  0  0999 V2000
   -2.8347   -3.7166    0.8034 H   0  0  0  0  0  0  0  0  0  0  0  0
   -2.7728   -2.7096    0.3954 C   0  0  0  0  0  0  0  0  0  0  0  0
   -3.4267   -2.0426    0.9524 H   0  0  0  0  0  0  0  0  0  0  0  0
   -3.0538   -2.7186   -0.6556 H   0  0  0  0  0  0  0  0  0  0  0  0
   -1.3498   -2.2206    0.5184 C   0  0  0  0  0  0  0  0  0  0  0  0
   -0.4997   -2.9426    1.0194 O   0  0  0  0  0  0  0  0  0  0  0  0
   -1.1198   -0.9926    0.0674 N   0  0  0  0  0  0  0  0  0  0  0  0
   -1.8978   -0.4486   -0.2716 H   0  0  0  0  0  0  0  0  0  0  0  0
    0.1693   -0.2866    0.0854 C   0  0  1  0  0  0  0  0  0  0  0  0
    0.8425   -0.7905    0.7811 H   0  0  0  0  0  0  0  0  0  0  0  0
    0.7993   -0.3404   -1.3233 C   0  0  0  0  0  0  0  0  0  0  0  0
    0.1236    0.1473   -2.0281 H   0  0  0  0  0  0  0  0  0  0  0  0
    1.7339    0.2248   -1.3126 H   0  0  0  0  0  0  0  0  0  0  0  0
    1.0713   -1.7594   -1.8464 C   0  0  0  0  0  0  0  0  0  0  0  0
    1.3293   -2.6642   -1.0179 O   0  5  0  0  0  0  0  0  0  0  0  0
    1.0372   -1.9237   -3.0850 O   0  0  0  0  0  0  0  0  0  0  0  0
   -0.0374    1.1645    0.5781 C   0  0  0  0  0  0  0  0  0  0  0  0
   -0.9816    1.8416    0.1544 O   0  0  0  0  0  0  0  0  0  0  0  0
    0.8235    1.6462    1.4801 N   0  0  0  0  0  0  0  0  0  0  0  0
    1.6183    1.0435    1.7020 H   0  0  0  0  0  0  0  0  0  0  0  0
    0.7895    2.9929    2.0404 C   0  0  0  0  0  0  0  0  0  0  0  0
   -0.2344    3.2522    2.3130 H   0  0  0  0  0  0  0  0  0  0  0  0
    1.4265    3.0377    2.9233 H   0  0  0  0  0  0  0  0  0  0  0  0
    1.1511    3.7014    1.2950 H   0  0  0  0  0  0  0  0  0  0  0  0
  5  6  2  0  0  0  0
  5  7  1  0  0  0  0
  2  3  1  0  0  0  0
  2  4  1  0  0  0  0
  2  5  1  0  0  0  0
  1  2  1  0  0  0  0
 17 18  2  0  0  0  0
 17 19  1  0  0  0  0
 14 15  1  0  0  0  0
 14 16  2  0  0  0  0
 11 12  1  0  0  0  0
 11 13  1  0  0  0  0
 11 14  1  0  0  0  0
  9 10  1  0  0  0  0
  9 11  1  0  0  0  0
  9 17  1  0  0  0  0
  7  8  1  0  0  0  0
  7  9  1  0  0  0  0
 21 22  1  0  0  0  0
 21 23  1  0  0  0  0
 21 24  1  0  0  0  0
 19 20  1  0  0  0  0
 19 21  1  0  0  0  0
M  CHG  1  15  -1
M  END
$$$$
default_name
  -OEChem-02102213163D

 24 23  0     1  0  0  0  0  0999 V2000
   -2.8347   -3.7166    0.8034 H   0  0  0  0  0  0  0  0  0  0  0  0
   -2.7728   -2.7096    0.3954 C   0  0  0  0  0  0  0  0  0  0  0  0
   -3.4267   -2.0426    0.9524 H   0  0  0  0  0  0  0  0  0  0  0  0
   -3.0538   -2.7186   -0.6556 H   0  0  0  0  0  0  0  0  0  0  0  0
   -1.3498   -2.2206    0.5184 C   0  0  0  0  0  0  0  0  0  0  0  0
   -0.4997   -2.9426    1.0194 O   0  0  0  0  0  0  0  0  0  0  0  0
   -1.1198   -0.9926    0.0674 N   0  0  0  0  0  0  0  0  0  0  0  0
   -1.8978   -0.4486   -0.2716 H   0  0  0  0  0  0  0  0  0  0  0  0
    0.1693   -0.2866    0.0854 C   0  0  1  0  0  0  0  0  0  0  0  0
    0.8425   -0.7905    0.7811 H   0  0  0  0  0  0  0  0  0  0  0  0
    0.7993   -0.3404   -1.3233 C   0  0  0  0  0  0  0  0  0  0  0  0
    0.1236    0.1473   -2.0281 H   0  0  0  0  0  0  0  0  0  0  0  0
    1.7339    0.2248   -1.3126 H   0  0  0  0  0  0  0  0  0  0  0  0
    1.0713   -1.7594   -1.8464 C   0  0  0  0  0  0  0  0  0  0  0  0
    1.0463   -2.7129   -1.0328 O   0  5  0  0  0  0  0  0  0  0  0  0
    1.3233   -1.8762   -3.0651 O   0  0  0  0  0  0  0  0  0  0  0  0
   -0.0374    1.1645    0.5781 C   0  0  0  0  0  0  0  0  0  0  0  0
   -0.9816    1.8416    0.1544 O   0  0  0  0  0  0  0  0  0  0  0  0
    0.8235    1.6462    1.4801 N   0  0  0  0  0  0  0  0  0  0  0  0
    1.6183    1.0435    1.7020 H   0  0  0  0  0  0  0  0  0  0  0  0
    0.7895    2.9929    2.0404 C   0  0  0  0  0  0  0  0  0  0  0  0
   -0.2344    3.2522    2.3130 H   0  0  0  0  0  0  0  0  0  0  0  0
    1.4265    3.0377    2.9233 H   0  0  0  0  0  0  0  0  0  0  0  0
    1.1511    3.7014    1.2950 H   0  0  0  0  0  0  0  0  0  0  0  0
  5  6  2  0  0  0  0
  5  7  1  0  0  0  0
  2  3  1  0  0  0  0
  2  4  1  0  0  0  0
  2  5  1  0  0  0  0
  1  2  1  0  0  0  0
 17 18  2  0  0  0  0
 17 19  1  0  0  0  0
 14 15  1  0  0  0  0
 14 16  2  0  0  0  0
 11 12  1  0  0  0  0
 11 13  1  0  0  0  0
 11 14  1  0  0  0  0
  9 10  1  0  0  0  0
  9 11  1  0  0  0  0
  9 17  1  0  0  0  0
  7  8  1  0  0  0  0
  7  9  1  0  0  0  0
 21 22  1  0  0  0  0
 21 23  1  0  0  0  0
 21 24  1  0  0  0  0
 19 20  1  0  0  0  0
 19 21  1  0  0  0  0
M  CHG  1  15  -1
M  END
$$$$
default_name
  -OEChem-02102213163D

 24 23  0     1  0  0  0  0  0999 V2000
   -2.8347   -3.7166    0.8034 H   0  0  0  0  0  0  0  0  0  0  0  0
   -2.7728   -2.7096    0.3954 C   0  0  0  0  0  0  0  0  0  0  0  0
   -3.4267   -2.0426    0.9524 H   0  0  0  0  0  0  0  0  0  0  0  0
   -3.0538   -2.7186   -0.6556 H   0  0  0  0  0  0  0  0  0  0  0  0
   -1.3498   -2.2206    0.5184 C   0  0  0  0  0  0  0  0  0  0  0  0
   -0.4997   -2.9426    1.0194 O   0  0  0  0  0  0  0  0  0  0  0  0
   -1.1198   -0.9926    0.0674 N   0  0  0  0  0  0  0  0  0  0  0  0
   -1.8978   -0.4486   -0.2716 H   0  0  0  0  0  0  0  0  0  0  0  0
    0.1693   -0.2866    0.0854 C   0  0  1  0  0  0  0  0  0  0  0  0
    0.8425   -0.7905    0.7811 H   0  0  0  0  0  0  0  0  0  0  0  0
    0.7993   -0.3404   -1.3233 C   0  0  0  0  0  0  0  0  0  0  0  0
    0.1236    0.1473   -2.0281 H   0  0  0  0  0  0  0  0  0  0  0  0
    1.7339    0.2248   -1.3126 H   0  0  0  0  0  0  0  0  0  0  0  0
    1.0713   -1.7594   -1.8464 C   0  0  0  0  0  0  0  0  0  0  0  0
    0.7723   -2.7343   -1.1172 O   0  5  0  0  0  0  0  0  0  0  0  0
    1.5991   -1.8565   -2.9752 O   0  0  0  0  0  0  0  0  0  0  0  0
   -0.0374    1.1645    0.5781 C   0  0  0  0  0  0  0  0  0  0  0  0
   -0.9816    1.8416    0.1544 O   0  0  0  0  0  0  0  0  0  0  0  0
    0.8235    1.6462    1.4801 N   0  0  0  0  0  0  0  0  0  0  0  0
    1.6183    1.0435    1.7020 H   0  0  0  0  0  0  0  0  0  0  0  0
    0.7895    2.9929    2.0404 C   0  0  0  0  0  0  0  0  0  0  0  0
   -0.2344    3.2522    2.3130 H   0  0  0  0  0  0  0  0  0  0  0  0
    1.4265    3.0377    2.9233 H   0  0  0  0  0  0  0  0  0  0  0  0
    1.1511    3.7014    1.2950 H   0  0  0  0  0  0  0  0  0  0  0  0
  5  6  2  0  0  0  0
  5  7  1  0  0  0  0
  2  3  1  0  0  0  0
  2  4  1  0  0  0  0
  2  5  1  0  0  0  0
  1  2  1  0  0  0  0
 17 18  2  0  0  0  0
 17 19  1  0  0  0  0
 14 15  1  0  0  0  0
 14 16  2  0  0  0  0
 11 12  1  0  0  0  0
 11 13  1  0  0  0  0
 11 14  1  0  0  0  0
  9 10  1  0  0  0  0
  9 11  1  0  0  0  0
  9 17  1  0  0  0  0
  7  8  1  0  0  0  0
  7  9  1  0  0  0  0
 21 22  1  0  0  0  0
 21 23  1  0  0  0  0
 21 24  1  0  0  0  0
 19 20  1  0  0  0  0
 19 21  1  0  0  0  0
M  CHG  1  15  -1
M  END
$$$$
default_name
  -OEChem-02102213163D

 24 23  0     1  0  0  0  0  0999 V2000
   -2.8347   -3.7166    0.8034 H   0  0  0  0  0  0  0  0  0  0  0  0
   -2.7728   -2.7096    0.3954 C   0  0  0  0  0  0  0  0  0  0  0  0
   -3.4267   -2.0426    0.9524 H   0  0  0  0  0  0  0  0  0  0  0  0
   -3.0538   -2.7186   -0.6556 H   0  0  0  0  0  0  0  0  0  0  0  0
   -1.3498   -2.2206    0.5184 C   0  0  0  0  0  0  0  0  0  0  0  0
   -0.4997   -2.9426    1.0194 O   0  0  0  0  0  0  0  0  0  0  0  0
   -1.1198   -0.9926    0.0674 N   0  0  0  0  0  0  0  0  0  0  0  0
   -1.8978   -0.4486   -0.2716 H   0  0  0  0  0  0  0  0  0  0  0  0
    0.1693   -0.2866    0.0854 C   0  0  1  0  0  0  0  0  0  0  0  0
    0.8425   -0.7905    0.7811 H   0  0  0  0  0  0  0  0  0  0  0  0
    0.7993   -0.3404   -1.3233 C   0  0  0  0  0  0  0  0  0  0  0  0
    0.1236    0.1473   -2.0281 H   0  0  0  0  0  0  0  0  0  0  0  0
    1.7339    0.2248   -1.3126 H   0  0  0  0  0  0  0  0  0  0  0  0
    1.0713   -1.7594   -1.8464 C   0  0  0  0  0  0  0  0  0  0  0  0
    0.5259   -2.7270   -1.2651 O   0  5  0  0  0  0  0  0  0  0  0  0
    1.8458   -1.8658   -2.8216 O   0  0  0  0  0  0  0  0  0  0  0  0
   -0.0374    1.1645    0.5781 C   0  0  0  0  0  0  0  0  0  0  0  0
   -0.9816    1.8416    0.1544 O   0  0  0  0  0  0  0  0  0  0  0  0
    0.8235    1.6462    1.4801 N   0  0  0  0  0  0  0  0  0  0  0  0
    1.6183    1.0435    1.7020 H   0  0  0  0  0  0  0  0  0  0  0  0
    0.7895    2.9929    2.0404 C   0  0  0  0  0  0  0  0  0  0  0  0
   -0.2344    3.2522    2.3130 H   0  0  0  0  0  0  0  0  0  0  0  0
    1.4265    3.0377    2.9233 H   0  0  0  0  0  0  0  0  0  0  0  0
    1.1511    3.7014    1.2950 H   0  0  0  0  0  0  0  0  0  0  0  0
  5  6  2  0  0  0  0
  5  7  1  0  0  0  0
  2  3  1  0  0  0  0
  2  4  1  0  0  0  0
  2  5  1  0  0  0  0
  1  2  1  0  0  0  0
 17 18  2  0  0  0  0
 17 19  1  0  0  0  0
 14 15  1  0  0  0  0
 14 16  2  0  0  0  0
 11 12  1  0  0  0  0
 11 13  1  0  0  0  0
 11 14  1  0  0  0  0
  9 10  1  0  0  0  0
  9 11  1  0  0  0  0
  9 17  1  0  0  0  0
  7  8  1  0  0  0  0
  7  9  1  0  0  0  0
 21 22  1  0  0  0  0
 21 23  1  0  0  0  0
 21 24  1  0  0  0  0
 19 20  1  0  0  0  0
 19 21  1  0  0  0  0
M  CHG  1  15  -1
M  END
$$$$
default_name
  -OEChem-02102213163D

 24 23  0     1  0  0  0  0  0999 V2000
   -2.8347   -3.7166    0.8034 H   0  0  0  0  0  0  0  0  0  0  0  0
   -2.7728   -2.7096    0.3954 C   0  0  0  0  0  0  0  0  0  0  0  0
   -3.4267   -2.0426    0.9524 H   0  0  0  0  0  0  0  0  0  0  0  0
   -3.0538   -2.7186   -0.6556 H   0  0  0  0  0  0  0  0  0  0  0  0
   -1.3498   -2.2206    0.5184 C   0  0  0  0  0  0  0  0  0  0  0  0
   -0.4997   -2.9426    1.0194 O   0  0  0  0  0  0  0  0  0  0  0  0
   -1.1198   -0.9926    0.0674 N   0  0  0  0  0  0  0  0  0  0  0  0
   -1.8978   -0.4486   -0.2716 H   0  0  0  0  0  0  0  0  0  0  0  0
    0.1693   -0.2866    0.0854 C   0  0  1  0  0  0  0  0  0  0  0  0
    0.8425   -0.7905    0.7811 H   0  0  0  0  0  0  0  0  0  0  0  0
    0.7993   -0.3404   -1.3233 C   0  0  0  0  0  0  0  0  0  0  0  0
    0.1236    0.1473   -2.0281 H   0  0  0  0  0  0  0  0  0  0  0  0
    1.7339    0.2248   -1.3126 H   0  0  0  0  0  0  0  0  0  0  0  0
    1.0713   -1.7594   -1.8464 C   0  0  0  0  0  0  0  0  0  0  0  0
    0.3239   -2.6915   -1.4665 O   0  5  0  0  0  0  0  0  0  0  0  0
    2.0465   -1.9036   -2.6147 O   0  0  0  0  0  0  0  0  0  0  0  0
   -0.0374    1.1645    0.5781 C   0  0  0  0  0  0  0  0  0  0  0  0
   -0.9816    1.8416    0.1544 O   0  0  0  0  0  0  0  0  0  0  0  0
    0.8235    1.6462    1.4801 N   0  0  0  0  0  0  0  0  0  0  0  0
    1.6183    1.0435    1.7020 H   0  0  0  0  0  0  0  0  0  0  0  0
    0.7895    2.9929    2.0404 C   0  0  0  0  0  0  0  0  0  0  0  0
   -0.2344    3.2522    2.3130 H   0  0  0  0  0  0  0  0  0  0  0  0
    1.4265    3.0377    2.9233 H   0  0  0  0  0  0  0  0  0  0  0  0
    1.1511    3.7014    1.2950 H   0  0  0  0  0  0  0  0  0  0  0  0
  5  6  2  0  0  0  0
  5  7  1  0  0  0  0
  2  3  1  0  0  0  0
  2  4  1  0  0  0  0
  2  5  1  0  0  0  0
  1  2  1  0  0  0  0
 17 18  2  0  0  0  0
 17 19  1  0  0  0  0
 14 15  1  0  0  0  0
 14 16  2  0  0  0  0
 11 12  1  0  0  0  0
 11 13  1  0  0  0  0
 11 14  1  0  0  0  0
  9 10  1  0  0  0  0
  9 11  1  0  0  0  0
  9 17  1  0  0  0  0
  7  8  1  0  0  0  0
  7  9  1  0  0  0  0
 21 22  1  0  0  0  0
 21 23  1  0  0  0  0
 21 24  1  0  0  0  0
 19 20  1  0  0  0  0
 19 21  1  0  0  0  0
M  CHG  1  15  -1
M  END
$$$$
default_name
  -OEChem-02102213163D

 24 23  0     1  0  0  0  0  0999 V2000
   -2.8347   -3.7166    0.8034 H   0  0  0  0  0  0  0  0  0  0  0  0
   -2.7728   -2.7096    0.3954 C   0  0  0  0  0  0  0  0  0  0  0  0
   -3.4267   -2.0426    0.9524 H   0  0  0  0  0  0  0  0  0  0  0  0
   -3.0538   -2.7186   -0.6556 H   0  0  0  0  0  0  0  0  0  0  0  0
   -1.3498   -2.2206    0.5184 C   0  0  0  0  0  0  0  0  0  0  0  0
   -0.4997   -2.9426    1.0194 O   0  0  0  0  0  0  0  0  0  0  0  0
   -1.1198   -0.9926    0.0674 N   0  0  0  0  0  0  0  0  0  0  0  0
   -1.8978   -0.4486   -0.2716 H   0  0  0  0  0  0  0  0  0  0  0  0
    0.1693   -0.2866    0.0854 C   0  0  1  0  0  0  0  0  0  0  0  0
    0.8425   -0.7905    0.7811 H   0  0  0  0  0  0  0  0  0  0  0  0
    0.7993   -0.3404   -1.3233 C   0  0  0  0  0  0  0  0  0  0  0  0
    0.1236    0.1473   -2.0281 H   0  0  0  0  0  0  0  0  0  0  0  0
    1.7339    0.2248   -1.3126 H   0  0  0  0  0  0  0  0  0  0  0  0
    1.0713   -1.7594   -1.8464 C   0  0  0  0  0  0  0  0  0  0  0  0
    0.1801   -2.6301   -1.7077 O   0  5  0  0  0  0  0  0  0  0  0  0
    2.1877   -1.9673   -2.3687 O   0  0  0  0  0  0  0  0  0  0  0  0
   -0.0374    1.1645    0.5781 C   0  0  0  0  0  0  0  0  0  0  0  0
   -0.9816    1.8416    0.1544 O   0  0  0  0  0  0  0  0  0  0  0  0
    0.8235    1.6462    1.4801 N   0  0  0  0  0  0  0  0  0  0  0  0
    1.6183    1.0435    1.7020 H   0  0  0  0  0  0  0  0  0  0  0  0
    0.7895    2.9929    2.0404 C   0  0  0  0  0  0  0  0  0  0  0  0
   -0.2344    3.2522    2.3130 H   0  0  0  0  0  0  0  0  0  0  0  0
    1.4265    3.0377    2.9233 H   0  0  0  0  0  0  0  0  0  0  0  0
    1.1511    3.7014    1.2950 H   0  0  0  0  0  0  0  0  0  0  0  0
  5  6  2  0  0  0  0
  5  7  1  0  0  0  0
  2  3  1  0  0  0  0
  2  4  1  0  0  0  0
  2  5  1  0  0  0  0
  1  2  1  0  0  0  0
 17 18  2  0  0  0  0
 17 19  1  0  0  0  0
 14 15  1  0  0  0  0
 14 16  2  0  0  0  0
 11 12  1  0  0  0  0
 11 13  1  0  0  0  0
 11 14  1  0  0  0  0
  9 10  1  0  0  0  0
  9 11  1  0  0  0  0
  9 17  1  0  0  0  0
  7  8  1  0  0  0  0
  7  9  1  0  0  0  0
 21 22  1  0  0  0  0
 21 23  1  0  0  0  0
 21 24  1  0  0  0  0
 19 20  1  0  0  0  0
 19 21  1  0  0  0  0
M  CHG  1  15  -1
M  END
$$$$
default_name
  -OEChem-02102213163D

 24 23  0     1  0  0  0  0  0999 V2000
   -2.8347   -3.7166    0.8034 H   0  0  0  0  0  0  0  0  0  0  0  0
   -2.7728   -2.7096    0.3954 C   0  0  0  0  0  0  0  0  0  0  0  0
   -3.4267   -2.0426    0.9524 H   0  0  0  0  0  0  0  0  0  0  0  0
   -3.0538   -2.7186   -0.6556 H   0  0  0  0  0  0  0  0  0  0  0  0
   -1.3498   -2.2206    0.5184 C   0  0  0  0  0  0  0  0  0  0  0  0
   -0.4997   -2.9426    1.0194 O   0  0  0  0  0  0  0  0  0  0  0  0
   -1.1198   -0.9926    0.0674 N   0  0  0  0  0  0  0  0  0  0  0  0
   -1.8978   -0.4486   -0.2716 H   0  0  0  0  0  0  0  0  0  0  0  0
    0.1693   -0.2866    0.0854 C   0  0  1  0  0  0  0  0  0  0  0  0
    0.8425   -0.7905    0.7811 H   0  0  0  0  0  0  0  0  0  0  0  0
    0.7993   -0.3404   -1.3233 C   0  0  0  0  0  0  0  0  0  0  0  0
    0.1236    0.1473   -2.0281 H   0  0  0  0  0  0  0  0  0  0  0  0
    1.7339    0.2248   -1.3126 H   0  0  0  0  0  0  0  0  0  0  0  0
    1.0713   -1.7594   -1.8464 C   0  0  0  0  0  0  0  0  0  0  0  0
    0.1042   -2.5471   -1.9723 O   0  5  0  0  0  0  0  0  0  0  0  0
    2.2595   -2.0525   -2.1002 O   0  0  0  0  0  0  0  0  0  0  0  0
   -0.0374    1.1645    0.5781 C   0  0  0  0  0  0  0  0  0  0  0  0
   -0.9816    1.8416    0.1544 O   0  0  0  0  0  0  0  0  0  0  0  0
    0.8235    1.6462    1.4801 N   0  0  0  0  0  0  0  0  0  0  0  0
    1.6183    1.0435    1.7020 H   0  0  0  0  0  0  0  0  0  0  0  0
    0.7895    2.9929    2.0404 C   0  0  0  0  0  0  0  0  0  0  0  0
   -0.2344    3.2522    2.3130 H   0  0  0  0  0  0  0  0  0  0  0  0
    1.4265    3.0377    2.9233 H   0  0  0  0  0  0  0  0  0  0  0  0
    1.1511    3.7014    1.2950 H   0  0  0  0  0  0  0  0  0  0  0  0
  5  6  2  0  0  0  0
  5  7  1  0  0  0  0
  2  3  1  0  0  0  0
  2  4  1  0  0  0  0
  2  5  1  0  0  0  0
  1  2  1  0  0  0  0
 17 18  2  0  0  0  0
 17 19  1  0  0  0  0
 14 15  1  0  0  0  0
 14 16  2  0  0  0  0
 11 12  1  0  0  0  0
 11 13  1  0  0  0  0
 11 14  1  0  0  0  0
  9 10  1  0  0  0  0
  9 11  1  0  0  0  0
  9 17  1  0  0  0  0
  7  8  1  0  0  0  0
  7  9  1  0  0  0  0
 21 22  1  0  0  0  0
 21 23  1  0  0  0  0
 21 24  1  0  0  0  0
 19 20  1  0  0  0  0
 19 21  1  0  0  0  0
M  CHG  1  15  -1
M  END
$$$$
default_name
  -OEChem-02102213163D

 24 23  0     1  0  0  0  0  0999 V2000
   -2.8347   -3.7166    0.8034 H   0  0  0  0  0  0  0  0  0  0  0  0
   -2.7728   -2.7096    0.3954 C   0  0  0  0  0  0  0  0  0  0  0  0
   -3.4267   -2.0426    0.9524 H   0  0  0  0  0  0  0  0  0  0  0  0
   -3.0538   -2.7186   -0.6556 H   0  0  0  0  0  0  0  0  0  0  0  0
   -1.3498   -2.2206    0.5184 C   0  0  0  0  0  0  0  0  0  0  0  0
   -0.4997   -2.9426    1.0194 O   0  0  0  0  0  0  0  0  0  0  0  0
   -1.1198   -0.9926    0.0674 N   0  0  0  0  0  0  0  0  0  0  0  0
   -1.8978   -0.4486   -0.2716 H   0  0  0  0  0  0  0  0  0  0  0  0
    0.1693   -0.2866    0.0854 C   0  0  1  0  0  0  0  0  0  0  0  0
    0.8425   -0.7905    0.7811 H   0  0  0  0  0  0  0  0  0  0  0  0
    0.7993   -0.3404   -1.3233 C   0  0  0  0  0  0  0  0  0  0  0  0
    0.1236    0.1473   -2.0281 H   0  0  0  0  0  0  0  0  0  0  0  0
    1.7339    0.2248   -1.3126 H   0  0  0  0  0  0  0  0  0  0  0  0
    1.0713   -1.7594   -1.8464 C   0  0  0  0  0  0  0  0  0  0  0  0
    0.1014   -2.4481   -2.2422 O   0  5  0  0  0  0  0  0  0  0  0  0
    2.2573   -2.1534   -1.8275 O   0  0  0  0  0  0  0  0  0  0  0  0
   -0.0374    1.1645    0.5781 C   0  0  0  0  0  0  0  0  0  0  0  0
   -0.9816    1.8416    0.1544 O   0  0  0  0  0  0  0  0  0  0  0  0
    0.8235    1.6462    1.4801 N   0  0  0  0  0  0  0  0  0  0  0  0
    1.6183    1.0435    1.7020 H   0  0  0  0  0  0  0  0  0  0  0  0
    0.7895    2.9929    2.0404 C   0  0  0  0  0  0  0  0  0  0  0  0
   -0.2344    3.2522    2.3130 H   0  0  0  0  0  0  0  0  0  0  0  0
    1.4265    3.0377    2.9233 H   0  0  0  0  0  0  0  0  0  0  0  0
    1.1511    3.7014    1.2950 H   0  0  0  0  0  0  0  0  0  0  0  0
  5  6  2  0  0  0  0
  5  7  1  0  0  0  0
  2  3  1  0  0  0  0
  2  4  1  0  0  0  0
  2  5  1  0  0  0  0
  1  2  1  0  0  0  0
 17 18  2  0  0  0  0
 17 19  1  0  0  0  0
 14 15  1  0  0  0  0
 14 16  2  0  0  0  0
 11 12  1  0  0  0  0
 11 13  1  0  0  0  0
 11 14  1  0  0  0  0
  9 10  1  0  0  0  0
  9 11  1  0  0  0  0
  9 17  1  0  0  0  0
  7  8  1  0  0  0  0
  7  9  1  0  0  0  0
 21 22  1  0  0  0  0
 21 23  1  0  0  0  0
 21 24  1  0  0  0  0
 19 20  1  0  0  0  0
 19 21  1  0  0  0  0
M  CHG  1  15  -1
M  END
$$$$
default_name
  -OEChem-02102213163D

 24 23  0     1  0  0  0  0  0999 V2000
   -2.8347   -3.7166    0.8034 H   0  0  0  0  0  0  0  0  0  0  0  0
   -2.7728   -2.7096    0.3954 C   0  0  0  0  0  0  0  0  0  0  0  0
   -3.4267   -2.0426    0.9524 H   0  0  0  0  0  0  0  0  0  0  0  0
   -3.0538   -2.7186   -0.6556 H   0  0  0  0  0  0  0  0  0  0  0  0
   -1.3498   -2.2206    0.5184 C   0  0  0  0  0  0  0  0  0  0  0  0
   -0.4997   -2.9426    1.0194 O   0  0  0  0  0  0  0  0  0  0  0  0
   -1.1198   -0.9926    0.0674 N   0  0  0  0  0  0  0  0  0  0  0  0
   -1.8978   -0.4486   -0.2716 H   0  0  0  0  0  0  0  0  0  0  0  0
    0.1693   -0.2866    0.0854 C   0  0  1  0  0  0  0  0  0  0  0  0
    0.8425   -0.7905    0.7811 H   0  0  0  0  0  0  0  0  0  0  0  0
    0.7993   -0.3404   -1.3233 C   0  0  0  0  0  0  0  0  0  0  0  0
    0.1236    0.1473   -2.0281 H   0  0  0  0  0  0  0  0  0  0  0  0
    1.7339    0.2248   -1.3126 H   0  0  0  0  0  0  0  0  0  0  0  0
    1.0713   -1.7594   -1.8464 C   0  0  0  0  0  0  0  0  0  0  0  0
    0.1720   -2.3399   -2.4990 O   0  5  0  0  0  0  0  0  0  0  0  0
    2.1811   -2.2632   -1.5693 O   0  0  0  0  0  0  0  0  0  0  0  0
   -0.0374    1.1645    0.5781 C   0  0  0  0  0  0  0  0  0  0  0  0
   -0.9816    1.8416    0.1544 O   0  0  0  0  0  0  0  0  0  0  0  0
    0.8235    1.6462    1.4801 N   0  0  0  0  0  0  0  0  0  0  0  0
    1.6183    1.0435    1.7020 H   0  0  0  0  0  0  0  0  0  0  0  0
    0.7895    2.9929    2.0404 C   0  0  0  0  0  0  0  0  0  0  0  0
   -0.2344    3.2522    2.3130 H   0  0  0  0  0  0  0  0  0  0  0  0
    1.4265    3.0377    2.9233 H   0  0  0  0  0  0  0  0  0  0  0  0
    1.1511    3.7014    1.2950 H   0  0  0  0  0  0  0  0  0  0  0  0
  5  6  2  0  0  0  0
  5  7  1  0  0  0  0
  2  3  1  0  0  0  0
  2  4  1  0  0  0  0
  2  5  1  0  0  0  0
  1  2  1  0  0  0  0
 17 18  2  0  0  0  0
 17 19  1  0  0  0  0
 14 15  1  0  0  0  0
 14 16  2  0  0  0  0
 11 12  1  0  0  0  0
 11 13  1  0  0  0  0
 11 14  1  0  0  0  0
  9 10  1  0  0  0  0
  9 11  1  0  0  0  0
  9 17  1  0  0  0  0
  7  8  1  0  0  0  0
  7  9  1  0  0  0  0
 21 22  1  0  0  0  0
 21 23  1  0  0  0  0
 21 24  1  0  0  0  0
 19 20  1  0  0  0  0
 19 21  1  0  0  0  0
M  CHG  1  15  -1
M  END
$$$$
default_name
  -OEChem-02102213163D

 24 23  0     1  0  0  0  0  0999 V2000
   -2.8347   -3.7166    0.8034 H   0  0  0  0  0  0  0  0  0  0  0  0
   -2.7728   -2.7096    0.3954 C   0  0  0  0  0  0  0  0  0  0  0  0
   -3.4267   -2.0426    0.9524 H   0  0  0  0  0  0  0  0  0  0  0  0
   -3.0538   -2.7186   -0.6556 H   0  0  0  0  0  0  0  0  0  0  0  0
   -1.3498   -2.2206    0.5184 C   0  0  0  0  0  0  0  0  0  0  0  0
   -0.4997   -2.9426    1.0194 O   0  0  0  0  0  0  0  0  0  0  0  0
   -1.1198   -0.9926    0.0674 N   0  0  0  0  0  0  0  0  0  0  0  0
   -1.8978   -0.4486   -0.2716 H   0  0  0  0  0  0  0  0  0  0  0  0
    0.1693   -0.2866    0.0854 C   0  0  1  0  0  0  0  0  0  0  0  0
    0.8425   -0.7905    0.7811 H   0  0  0  0  0  0  0  0  0  0  0  0
    0.7993   -0.3404   -1.3233 C   0  0  0  0  0  0  0  0  0  0  0  0
    0.1236    0.1473   -2.0281 H   0  0  0  0  0  0  0  0  0  0  0  0
    1.7339    0.2248   -1.3126 H   0  0  0  0  0  0  0  0  0  0  0  0
    1.0713   -1.7594   -1.8464 C   0  0  0  0  0  0  0  0  0  0  0  0
    0.3111   -2.2299   -2.7253 O   0  5  0  0  0  0  0  0  0  0  0  0
    2.0360   -2.3744   -1.3432 O   0  0  0  0  0  0  0  0  0  0  0  0
   -0.0374    1.1645    0.5781 C   0  0  0  0  0  0  0  0  0  0  0  0
   -0.9816    1.8416    0.1544 O   0  0  0  0  0  0  0  0  0  0  0  0
    0.8235    1.6462    1.4801 N   0  0  0  0  0  0  0  0  0  0  0  0
    1.6183    1.0435    1.7020 H   0  0  0  0  0  0  0  0  0  0  0  0
    0.7895    2.9929    2.0404 C   0  0  0  0  0  0  0  0  0  0  0  0
   -0.2344    3.2522    2.3130 H   0  0  0  0  0  0  0  0  0  0  0  0
    1.4265    3.0377    2.9233 H   0  0  0  0  0  0  0  0  0  0  0  0
    1.1511    3.7014    1.2950 H   0  0  0  0  0  0  0  0  0  0  0  0
  5  6  2  0  0  0  0
  5  7  1  0  0  0  0
  2  3  1  0  0  0  0
  2  4  1  0  0  0  0
  2  5  1  0  0  0  0
  1  2  1  0  0  0  0
 17 18  2  0  0  0  0
 17 19  1  0  0  0  0
 14 15  1  0  0  0  0
 14 16  2  0  0  0  0
 11 12  1  0  0  0  0
 11 13  1  0  0  0  0
 11 14  1  0  0  0  0
  9 10  1  0  0  0  0
  9 11  1  0  0  0  0
  9 17  1  0  0  0  0
  7  8  1  0  0  0  0
  7  9  1  0  0  0  0
 21 22  1  0  0  0  0
 21 23  1  0  0  0  0
 21 24  1  0  0  0  0
 19 20  1  0  0  0  0
 19 21  1  0  0  0  0
M  CHG  1  15  -1
M  END
$$$$
default_name
  -OEChem-02102213163D

 24 23  0     1  0  0  0  0  0999 V2000
   -2.8347   -3.7166    0.8034 H   0  0  0  0  0  0  0  0  0  0  0  0
   -2.7728   -2.7096    0.3954 C   0  0  0  0  0  0  0  0  0  0  0  0
   -3.4267   -2.0426    0.9524 H   0  0  0  0  0  0  0  0  0  0  0  0
   -3.0538   -2.7186   -0.6556 H   0  0  0  0  0  0  0  0  0  0  0  0
   -1.3498   -2.2206    0.5184 C   0  0  0  0  0  0  0  0  0  0  0  0
   -0.4997   -2.9426    1.0194 O   0  0  0  0  0  0  0  0  0  0  0  0
   -1.1198   -0.9926    0.0674 N   0  0  0  0  0  0  0  0  0  0  0  0
   -1.8978   -0.4486   -0.2716 H   0  0  0  0  0  0  0  0  0  0  0  0
    0.1693   -0.2866    0.0854 C   0  0  1  0  0  0  0  0  0  0  0  0
    0.8425   -0.7905    0.7811 H   0  0  0  0  0  0  0  0  0  0  0  0
    0.7993   -0.3404   -1.3233 C   0  0  0  0  0  0  0  0  0  0  0  0
    0.1236    0.1473   -2.0281 H   0  0  0  0  0  0  0  0  0  0  0  0
    1.7339    0.2248   -1.3126 H   0  0  0  0  0  0  0  0  0  0  0  0
    1.0713   -1.7594   -1.8464 C   0  0  0  0  0  0  0  0  0  0  0  0
    0.5092   -2.1254   -2.9055 O   0  5  0  0  0  0  0  0  0  0  0  0
    1.8321   -2.4794   -1.1645 O   0  0  0  0  0  0  0  0  0  0  0  0
   -0.0374    1.1645    0.5781 C   0  0  0  0  0  0  0  0  0  0  0  0
   -0.9816    1.8416    0.1544 O   0  0  0  0  0  0  0  0  0  0  0  0
    0.8235    1.6462    1.4801 N   0  0  0  0  0  0  0  0  0  0  0  0
    1.6183    1.0435    1.7020 H   0  0  0  0  0  0  0  0  0  0  0  0
    0.7895    2.9929    2.0404 C   0  0  0  0  0  0  0  0  0  0  0  0
   -0.2344    3.2522    2.3130 H   0  0  0  0  0  0  0  0  0  0  0  0
    1.4265    3.0377    2.9233 H   0  0  0  0  0  0  0  0  0  0  0  0
    1.1511    3.7014    1.2950 H   0  0  0  0  0  0  0  0  0  0  0  0
  5  6  2  0  0  0  0
  5  7  1  0  0  0  0
  2  3  1  0  0  0  0
  2  4  1  0  0  0  0
  2  5  1  0  0  0  0
  1  2  1  0  0  0  0
 17 18  2  0  0  0  0
 17 19  1  0  0  0  0
 14 15  1  0  0  0  0
 14 16  2  0  0  0  0
 11 12  1  0  0  0  0
 11 13  1  0  0  0  0
 11 14  1  0  0  0  0
  9 10  1  0  0  0  0
  9 11  1  0  0  0  0
  9 17  1  0  0  0  0
  7  8  1  0  0  0  0
  7  9  1  0  0  0  0
 21 22  1  0  0  0  0
 21 23  1  0  0  0  0
 21 24  1  0  0  0  0
 19 20  1  0  0  0  0
 19 21  1  0  0  0  0
M  CHG  1  15  -1
M  END
$$$$
default_name
  -OEChem-02102213163D

 24 23  0     1  0  0  0  0  0999 V2000
   -2.8347   -3.7166    0.8034 H   0  0  0  0  0  0  0  0  0  0  0  0
   -2.7728   -2.7096    0.3954 C   0  0  0  0  0  0  0  0  0  0  0  0
   -3.4267   -2.0426    0.9524 H   0  0  0  0  0  0  0  0  0  0  0  0
   -3.0538   -2.7186   -0.6556 H   0  0  0  0  0  0  0  0  0  0  0  0
   -1.3498   -2.2206    0.5184 C   0  0  0  0  0  0  0  0  0  0  0  0
   -0.4997   -2.9426    1.0194 O   0  0  0  0  0  0  0  0  0  0  0  0
   -1.1198   -0.9926    0.0674 N   0  0  0  0  0  0  0  0  0  0  0  0
   -1.8978   -0.4486   -0.2716 H   0  0  0  0  0  0  0  0  0  0  0  0
    0.1693   -0.2866    0.0854 C   0  0  1  0  0  0  0  0  0  0  0  0
    0.8425   -0.7905    0.7811 H   0  0  0  0  0  0  0  0  0  0  0  0
    0.7993   -0.3404   -1.3233 C   0  0  0  0  0  0  0  0  0  0  0  0
    0.1236    0.1473   -2.0281 H   0  0  0  0  0  0  0  0  0  0  0  0
    1.7339    0.2248   -1.3126 H   0  0  0  0  0  0  0  0  0  0  0  0
    1.0713   -1.7594   -1.8464 C   0  0  0  0  0  0  0  0  0  0  0  0
    0.7528   -2.0338   -3.0275 O   0  5  0  0  0  0  0  0  0  0  0  0
    1.5832   -2.5710   -1.0455 O   0  0  0  0  0  0  0  0  0  0  0  0
   -0.0374    1.1645    0.5781 C   0  0  0  0  0  0  0  0  0  0  0  0
   -0.9816    1.8416    0.1544 O   0  0  0  0  0  0  0  0  0  0  0  0
    0.8235    1.6462    1.4801 N   0  0  0  0  0  0  0  0  0  0  0  0
    1.6183    1.0435    1.7020 H   0  0  0  0  0  0  0  0  0  0  0  0
    0.7895    2.9929    2.0404 C   0  0  0  0  0  0  0  0  0  0  0  0
   -0.2344    3.2522    2.3130 H   0  0  0  0  0  0  0  0  0  0  0  0
    1.4265    3.0377    2.9233 H   0  0  0  0  0  0  0  0  0  0  0  0
    1.1511    3.7014    1.2950 H   0  0  0  0  0  0  0  0  0  0  0  0
  5  6  2  0  0  0  0
  5  7  1  0  0  0  0
  2  3  1  0  0  0  0
  2  4  1  0  0  0  0
  2  5  1  0  0  0  0
  1  2  1  0  0  0  0
 17 18  2  0  0  0  0
 17 19  1  0  0  0  0
 14 15  1  0  0  0  0
 14 16  2  0  0  0  0
 11 12  1  0  0  0  0
 11 13  1  0  0  0  0
 11 14  1  0  0  0  0
  9 10  1  0  0  0  0
  9 11  1  0  0  0  0
  9 17  1  0  0  0  0
  7  8  1  0  0  0  0
  7  9  1  0  0  0  0
 21 22  1  0  0  0  0
 21 23  1  0  0  0  0
 21 24  1  0  0  0  0
 19 20  1  0  0  0  0
 19 21  1  0  0  0  0
M  CHG  1  15  -1
M  END
$$$$
default_name
  -OEChem-02102213163D

 24 23  0     1  0  0  0  0  0999 V2000
   -2.8347   -3.7166    0.8034 H   0  0  0  0  0  0  0  0  0  0  0  0
   -2.7728   -2.7096    0.3954 C   0  0  0  0  0  0  0  0  0  0  0  0
   -3.4267   -2.0426    0.9524 H   0  0  0  0  0  0  0  0  0  0  0  0
   -3.0538   -2.7186   -0.6556 H   0  0  0  0  0  0  0  0  0  0  0  0
   -1.3498   -2.2206    0.5184 C   0  0  0  0  0  0  0  0  0  0  0  0
   -0.4997   -2.9426    1.0194 O   0  0  0  0  0  0  0  0  0  0  0  0
   -1.1198   -0.9926    0.0674 N   0  0  0  0  0  0  0  0  0  0  0  0
   -1.8978   -0.4486   -0.2716 H   0  0  0  0  0  0  0  0  0  0  0  0
    0.1693   -0.2866    0.0854 C   0  0  1  0  0  0  0  0  0  0  0  0
    0.8425   -0.7905    0.7811 H   0  0  0  0  0  0  0  0  0  0  0  0
    0.7993   -0.3404   -1.3233 C   0  0  0  0  0  0  0  0  0  0  0  0
    0.1236    0.1473   -2.0281 H   0  0  0  0  0  0  0  0  0  0  0  0
    1.7339    0.2248   -1.3126 H   0  0  0  0  0  0  0  0  0  0  0  0
    1.0713   -1.7594   -1.8464 C   0  0  0  0  0  0  0  0  0  0  0  0
    1.0254   -1.9611   -3.0829 O   0  5  0  0  0  0  0  0  0  0  0  0
    1.3062   -2.6430   -0.9942 O   0  0  0  0  0  0  0  0  0  0  0  0
   -0.0374    1.1645    0.5781 C   0  0  0  0  0  0  0  0  0  0  0  0
   -0.9816    1.8416    0.1544 O   0  0  0  0  0  0  0  0  0  0  0  0
    0.8235    1.6462    1.4801 N   0  0  0  0  0  0  0  0  0  0  0  0
    1.6183    1.0435    1.7020 H   0  0  0  0  0  0  0  0  0  0  0  0
    0.7895    2.9929    2.0404 C   0  0  0  0  0  0  0  0  0  0  0  0
   -0.2344    3.2522    2.3130 H   0  0  0  0  0  0  0  0  0  0  0  0
    1.4265    3.0377    2.9233 H   0  0  0  0  0  0  0  0  0  0  0  0
    1.1511    3.7014    1.2950 H   0  0  0  0  0  0  0  0  0  0  0  0
  5  6  2  0  0  0  0
  5  7  1  0  0  0  0
  2  3  1  0  0  0  0
  2  4  1  0  0  0  0
  2  5  1  0  0  0  0
  1  2  1  0  0  0  0
 17 18  2  0  0  0  0
 17 19  1  0  0  0  0
 14 15  1  0  0  0  0
 14 16  2  0  0  0  0
 11 12  1  0  0  0  0
 11 13  1  0  0  0  0
 11 14  1  0  0  0  0
  9 10  1  0  0  0  0
  9 11  1  0  0  0  0
  9 17  1  0  0  0  0
  7  8  1  0  0  0  0
  7  9  1  0  0  0  0
 21 22  1  0  0  0  0
 21 23  1  0  0  0  0
 21 24  1  0  0  0  0
 19 20  1  0  0  0  0
 19 21  1  0  0  0  0
M  CHG  1  15  -1
M  END
$$$$
default_name
  -OEChem-02102213163D

 24 23  0     1  0  0  0  0  0999 V2000
   -2.8347   -3.7166    0.8034 H   0  0  0  0  0  0  0  0  0  0  0  0
   -2.7728   -2.7096    0.3954 C   0  0  0  0  0  0  0  0  0  0  0  0
   -3.4267   -2.0426    0.9524 H   0  0  0  0  0  0  0  0  0  0  0  0
   -3.0538   -2.7186   -0.6556 H   0  0  0  0  0  0  0  0  0  0  0  0
   -1.3498   -2.2206    0.5184 C   0  0  0  0  0  0  0  0  0  0  0  0
   -0.4997   -2.9426    1.0194 O   0  0  0  0  0  0  0  0  0  0  0  0
   -1.1198   -0.9926    0.0674 N   0  0  0  0  0  0  0  0  0  0  0  0
   -1.8978   -0.4486   -0.2716 H   0  0  0  0  0  0  0  0  0  0  0  0
    0.1693   -0.2866    0.0854 C   0  0  1  0  0  0  0  0  0  0  0  0
    0.8425   -0.7905    0.7811 H   0  0  0  0  0  0  0  0  0  0  0  0
    0.7993   -0.3404   -1.3233 C   0  0  0  0  0  0  0  0  0  0  0  0
    0.1236    0.1473   -2.0281 H   0  0  0  0  0  0  0  0  0  0  0  0
    1.7339    0.2248   -1.3126 H   0  0  0  0  0  0  0  0  0  0  0  0
    1.0713   -1.7594   -1.8464 C   0  0  0  0  0  0  0  0  0  0  0  0
    1.3083   -1.9124   -3.0679 O   0  5  0  0  0  0  0  0  0  0  0  0
    1.0201   -2.6904   -1.0141 O   0  0  0  0  0  0  0  0  0  0  0  0
   -0.0374    1.1645    0.5781 C   0  0  0  0  0  0  0  0  0  0  0  0
   -0.9816    1.8416    0.1544 O   0  0  0  0  0  0  0  0  0  0  0  0
    0.8235    1.6462    1.4801 N   0  0  0  0  0  0  0  0  0  0  0  0
    1.6183    1.0435    1.7020 H   0  0  0  0  0  0  0  0  0  0  0  0
    0.7895    2.9929    2.0404 C   0  0  0  0  0  0  0  0  0  0  0  0
   -0.2344    3.2522    2.3130 H   0  0  0  0  0  0  0  0  0  0  0  0
    1.4265    3.0377    2.9233 H   0  0  0  0  0  0  0  0  0  0  0  0
    1.1511    3.7014    1.2950 H   0  0  0  0  0  0  0  0  0  0  0  0
  5  6  2  0  0  0  0
  5  7  1  0  0  0  0
  2  3  1  0  0  0  0
  2  4  1  0  0  0  0
  2  5  1  0  0  0  0
  1  2  1  0  0  0  0
 17 18  2  0  0  0  0
 17 19  1  0  0  0  0
 14 15  1  0  0  0  0
 14 16  2  0  0  0  0
 11 12  1  0  0  0  0
 11 13  1  0  0  0  0
 11 14  1  0  0  0  0
  9 10  1  0  0  0  0
  9 11  1  0  0  0  0
  9 17  1  0  0  0  0
  7  8  1  0  0  0  0
  7  9  1  0  0  0  0
 21 22  1  0  0  0  0
 21 23  1  0  0  0  0
 21 24  1  0  0  0  0
 19 20  1  0  0  0  0
 19 21  1  0  0  0  0
M  CHG  1  15  -1
M  END
$$$$
default_name
  -OEChem-02102213163D

 24 23  0     1  0  0  0  0  0999 V2000
   -2.8347   -3.7166    0.8034 H   0  0  0  0  0  0  0  0  0  0  0  0
   -2.7728   -2.7096    0.3954 C   0  0  0  0  0  0  0  0  0  0  0  0
   -3.4267   -2.0426    0.9524 H   0  0  0  0  0  0  0  0  0  0  0  0
   -3.0538   -2.7186   -0.6556 H   0  0  0  0  0  0  0  0  0  0  0  0
   -1.3498   -2.2206    0.5184 C   0  0  0  0  0  0  0  0  0  0  0  0
   -0.4997   -2.9426    1.0194 O   0  0  0  0  0  0  0  0  0  0  0  0
   -1.1198   -0.9926    0.0674 N   0  0  0  0  0  0  0  0  0  0  0  0
   -1.8978   -0.4486   -0.2716 H   0  0  0  0  0  0  0  0  0  0  0  0
    0.1693   -0.2866    0.0854 C   0  0  1  0  0  0  0  0  0  0  0  0
    0.8425   -0.7905    0.7811 H   0  0  0  0  0  0  0  0  0  0  0  0
    0.7993   -0.3404   -1.3233 C   0  0  0  0  0  0  0  0  0  0  0  0
    0.2730    0.3643   -1.9695 H   0  0  0  0  0  0  0  0  0  0  0  0
    1.8403   -0.0167   -1.2558 H   0  0  0  0  0  0  0  0  0  0  0  0
    0.7406   -1.7208   -1.9959 C   0  0  0  0  0  0  0  0  0  0  0  0
    1.2307   -1.8499   -3.1425 O   0  5  0  0  0  0  0  0  0  0  0  0
    0.1827   -2.6394   -1.3579 O   0  0  0  0  0  0  0  0  0  0  0  0
   -0.0374    1.1645    0.5781 C   0  0  0  0  0  0  0  0  0  0  0  0
   -0.9816    1.8416    0.1544 O   0  0  0  0  0  0  0  0  0  0  0  0
    0.8235    1.6462    1.4801 N   0  0  0  0  0  0  0  0  0  0  0  0
    1.6183    1.0435    1.7020 H   0  0  0  0  0  0  0  0  0  0  0  0
    0.7895    2.9929    2.0404 C   0  0  0  0  0  0  0  0  0  0  0  0
   -0.2344    3.2522    2.3130 H   0  0  0  0  0  0  0  0  0  0  0  0
    1.4265    3.0377    2.9233 H   0  0  0  0  0  0  0  0  0  0  0  0
    1.1511    3.7014    1.2950 H   0  0  0  0  0  0  0  0  0  0  0  0
  5  6  2  0  0  0  0
  5  7  1  0  0  0  0
  2  3  1  0  0  0  0
  2  4  1  0  0  0  0
  2  5  1  0  0  0  0
  1  2  1  0  0  0  0
 17 18  2  0  0  0  0
 17 19  1  0  0  0  0
 14 15  1  0  0  0  0
 14 16  2  0  0  0  0
 11 12  1  0  0  0  0
 11 13  1  0  0  0  0
 11 14  1  0  0  0  0
  9 10  1  0  0  0  0
  9 11  1  0  0  0  0
  9 17  1  0  0  0  0
  7  8  1  0  0  0  0
  7  9  1  0  0  0  0
 21 22  1  0  0  0  0
 21 23  1  0  0  0  0
 21 24  1  0  0  0  0
 19 20  1  0  0  0  0
 19 21  1  0  0  0  0
M  CHG  1  15  -1
M  END
$$$$
default_name
  -OEChem-02102213163D

 24 23  0     1  0  0  0  0  0999 V2000
   -2.8347   -3.7166    0.8034 H   0  0  0  0  0  0  0  0  0  0  0  0
   -2.7728   -2.7096    0.3954 C   0  0  0  0  0  0  0  0  0  0  0  0
   -3.4267   -2.0426    0.9524 H   0  0  0  0  0  0  0  0  0  0  0  0
   -3.0538   -2.7186   -0.6556 H   0  0  0  0  0  0  0  0  0  0  0  0
   -1.3498   -2.2206    0.5184 C   0  0  0  0  0  0  0  0  0  0  0  0
   -0.4997   -2.9426    1.0194 O   0  0  0  0  0  0  0  0  0  0  0  0
   -1.1198   -0.9926    0.0674 N   0  0  0  0  0  0  0  0  0  0  0  0
   -1.8978   -0.4486   -0.2716 H   0  0  0  0  0  0  0  0  0  0  0  0
    0.1693   -0.2866    0.0854 C   0  0  1  0  0  0  0  0  0  0  0  0
    0.8425   -0.7905    0.7811 H   0  0  0  0  0  0  0  0  0  0  0  0
    0.7993   -0.3404   -1.3233 C   0  0  0  0  0  0  0  0  0  0  0  0
    0.2730    0.3643   -1.9695 H   0  0  0  0  0  0  0  0  0  0  0  0
    1.8403   -0.0167   -1.2558 H   0  0  0  0  0  0  0  0  0  0  0  0
    0.7406   -1.7208   -1.9959 C   0  0  0  0  0  0  0  0  0  0  0  0
    1.4652   -1.9307   -2.9971 O   0  5  0  0  0  0  0  0  0  0  0  0
   -0.0514   -2.5560   -1.5087 O   0  0  0  0  0  0  0  0  0  0  0  0
   -0.0374    1.1645    0.5781 C   0  0  0  0  0  0  0  0  0  0  0  0
   -0.9816    1.8416    0.1544 O   0  0  0  0  0  0  0  0  0  0  0  0
    0.8235    1.6462    1.4801 N   0  0  0  0  0  0  0  0  0  0  0  0
    1.6183    1.0435    1.7020 H   0  0  0  0  0  0  0  0  0  0  0  0
    0.7895    2.9929    2.0404 C   0  0  0  0  0  0  0  0  0  0  0  0
   -0.2344    3.2522    2.3130 H   0  0  0  0  0  0  0  0  0  0  0  0
    1.4265    3.0377    2.9233 H   0  0  0  0  0  0  0  0  0  0  0  0
    1.1511    3.7014    1.2950 H   0  0  0  0  0  0  0  0  0  0  0  0
  5  6  2  0  0  0  0
  5  7  1  0  0  0  0
  2  3  1  0  0  0  0
  2  4  1  0  0  0  0
  2  5  1  0  0  0  0
  1  2  1  0  0  0  0
 17 18  2  0  0  0  0
 17 19  1  0  0  0  0
 14 15  1  0  0  0  0
 14 16  2  0  0  0  0
 11 12  1  0  0  0  0
 11 13  1  0  0  0  0
 11 14  1  0  0  0  0
  9 10  1  0  0  0  0
  9 11  1  0  0  0  0
  9 17  1  0  0  0  0
  7  8  1  0  0  0  0
  7  9  1  0  0  0  0
 21 22  1  0  0  0  0
 21 23  1  0  0  0  0
 21 24  1  0  0  0  0
 19 20  1  0  0  0  0
 19 21  1  0  0  0  0
M  CHG  1  15  -1
M  END
$$$$
default_name
  -OEChem-02102213163D

 24 23  0     1  0  0  0  0  0999 V2000
   -2.8347   -3.7166    0.8034 H   0  0  0  0  0  0  0  0  0  0  0  0
   -2.7728   -2.7096    0.3954 C   0  0  0  0  0  0  0  0  0  0  0  0
   -3.4267   -2.0426    0.9524 H   0  0  0  0  0  0  0  0  0  0  0  0
   -3.0538   -2.7186   -0.6556 H   0  0  0  0  0  0  0  0  0  0  0  0
   -1.3498   -2.2206    0.5184 C   0  0  0  0  0  0  0  0  0  0  0  0
   -0.4997   -2.9426    1.0194 O   0  0  0  0  0  0  0  0  0  0  0  0
   -1.1198   -0.9926    0.0674 N   0  0  0  0  0  0  0  0  0  0  0  0
   -1.8978   -0.4486   -0.2716 H   0  0  0  0  0  0  0  0  0  0  0  0
    0.1693   -0.2866    0.0854 C   0  0  1  0  0  0  0  0  0  0  0  0
    0.8425   -0.7905    0.7811 H   0  0  0  0  0  0  0  0  0  0  0  0
    0.7993   -0.3404   -1.3233 C   0  0  0  0  0  0  0  0  0  0  0  0
    0.2730    0.3643   -1.9695 H   0  0  0  0  0  0  0  0  0  0  0  0
    1.8403   -0.0167   -1.2558 H   0  0  0  0  0  0  0  0  0  0  0  0
    0.7406   -1.7208   -1.9959 C   0  0  0  0  0  0  0  0  0  0  0  0
    1.6488   -2.0339   -2.8013 O   0  5  0  0  0  0  0  0  0  0  0  0
   -0.2331   -2.4504   -1.7096 O   0  0  0  0  0  0  0  0  0  0  0  0
   -0.0374    1.1645    0.5781 C   0  0  0  0  0  0  0  0  0  0  0  0
   -0.9816    1.8416    0.1544 O   0  0  0  0  0  0  0  0  0  0  0  0
    0.8235    1.6462    1.4801 N   0  0  0  0  0  0  0  0  0  0  0  0
    1.6183    1.0435    1.7020 H   0  0  0  0  0  0  0  0  0  0  0  0
    0.7895    2.9929    2.0404 C   0  0  0  0  0  0  0  0  0  0  0  0
   -0.2344    3.2522    2.3130 H   0  0  0  0  0  0  0  0  0  0  0  0
    1.4265    3.0377    2.9233 H   0  0  0  0  0  0  0  0  0  0  0  0
    1.1511    3.7014    1.2950 H   0  0  0  0  0  0  0  0  0  0  0  0
  5  6  2  0  0  0  0
  5  7  1  0  0  0  0
  2  3  1  0  0  0  0
  2  4  1  0  0  0  0
  2  5  1  0  0  0  0
  1  2  1  0  0  0  0
 17 18  2  0  0  0  0
 17 19  1  0  0  0  0
 14 15  1  0  0  0  0
 14 16  2  0  0  0  0
 11 12  1  0  0  0  0
 11 13  1  0  0  0  0
 11 14  1  0  0  0  0
  9 10  1  0  0  0  0
  9 11  1  0  0  0  0
  9 17  1  0  0  0  0
  7  8  1  0  0  0  0
  7  9  1  0  0  0  0
 21 22  1  0  0  0  0
 21 23  1  0  0  0  0
 21 24  1  0  0  0  0
 19 20  1  0  0  0  0
 19 21  1  0  0  0  0
M  CHG  1  15  -1
M  END
$$$$
default_name
  -OEChem-02102213163D

 24 23  0     1  0  0  0  0  0999 V2000
   -2.8347   -3.7166    0.8034 H   0  0  0  0  0  0  0  0  0  0  0  0
   -2.7728   -2.7096    0.3954 C   0  0  0  0  0  0  0  0  0  0  0  0
   -3.4267   -2.0426    0.9524 H   0  0  0  0  0  0  0  0  0  0  0  0
   -3.0538   -2.7186   -0.6556 H   0  0  0  0  0  0  0  0  0  0  0  0
   -1.3498   -2.2206    0.5184 C   0  0  0  0  0  0  0  0  0  0  0  0
   -0.4997   -2.9426    1.0194 O   0  0  0  0  0  0  0  0  0  0  0  0
   -1.1198   -0.9926    0.0674 N   0  0  0  0  0  0  0  0  0  0  0  0
   -1.8978   -0.4486   -0.2716 H   0  0  0  0  0  0  0  0  0  0  0  0
    0.1693   -0.2866    0.0854 C   0  0  1  0  0  0  0  0  0  0  0  0
    0.8425   -0.7905    0.7811 H   0  0  0  0  0  0  0  0  0  0  0  0
    0.7993   -0.3404   -1.3233 C   0  0  0  0  0  0  0  0  0  0  0  0
    0.2730    0.3643   -1.9695 H   0  0  0  0  0  0  0  0  0  0  0  0
    1.8403   -0.0167   -1.2558 H   0  0  0  0  0  0  0  0  0  0  0  0
    0.7406   -1.7208   -1.9959 C   0  0  0  0  0  0  0  0  0  0  0  0
    1.7688   -2.1524   -2.5686 O   0  5  0  0  0  0  0  0  0  0  0  0
   -0.3498   -2.3297   -1.9470 O   0  0  0  0  0  0  0  0  0  0  0  0
   -0.0374    1.1645    0.5781 C   0  0  0  0  0  0  0  0  0  0  0  0
   -0.9816    1.8416    0.1544 O   0  0  0  0  0  0  0  0  0  0  0  0
    0.8235    1.6462    1.4801 N   0  0  0  0  0  0  0  0  0  0  0  0
    1.6183    1.0435    1.7020 H   0  0  0  0  0  0  0  0  0  0  0  0
    0.7895    2.9929    2.0404 C   0  0  0  0  0  0  0  0  0  0  0  0
   -0.2344    3.2522    2.3130 H   0  0  0  0  0  0  0  0  0  0  0  0
    1.4265    3.0377    2.9233 H   0  0  0  0  0  0  0  0  0  0  0  0
    1.1511    3.7014    1.2950 H   0  0  0  0  0  0  0  0  0  0  0  0
  5  6  2  0  0  0  0
  5  7  1  0  0  0  0
  2  3  1  0  0  0  0
  2  4  1  0  0  0  0
  2  5  1  0  0  0  0
  1  2  1  0  0  0  0
 17 18  2  0  0  0  0
 17 19  1  0  0  0  0
 14 15  1  0  0  0  0
 14 16  2  0  0  0  0
 11 12  1  0  0  0  0
 11 13  1  0  0  0  0
 11 14  1  0  0  0  0
  9 10  1  0  0  0  0
  9 11  1  0  0  0  0
  9 17  1  0  0  0  0
  7  8  1  0  0  0  0
  7  9  1  0  0  0  0
 21 22  1  0  0  0  0
 21 23  1  0  0  0  0
 21 24  1  0  0  0  0
 19 20  1  0  0  0  0
 19 21  1  0  0  0  0
M  CHG  1  15  -1
M  END
$$$$
default_name
  -OEChem-02102213163D

 24 23  0     1  0  0  0  0  0999 V2000
   -2.8347   -3.7166    0.8034 H   0  0  0  0  0  0  0  0  0  0  0  0
   -2.7728   -2.7096    0.3954 C   0  0  0  0  0  0  0  0  0  0  0  0
   -3.4267   -2.0426    0.9524 H   0  0  0  0  0  0  0  0  0  0  0  0
   -3.0538   -2.7186   -0.6556 H   0  0  0  0  0  0  0  0  0  0  0  0
   -1.3498   -2.2206    0.5184 C   0  0  0  0  0  0  0  0  0  0  0  0
   -0.4997   -2.9426    1.0194 O   0  0  0  0  0  0  0  0  0  0  0  0
   -1.1198   -0.9926    0.0674 N   0  0  0  0  0  0  0  0  0  0  0  0
   -1.8978   -0.4486   -0.2716 H   0  0  0  0  0  0  0  0  0  0  0  0
    0.1693   -0.2866    0.0854 C   0  0  1  0  0  0  0  0  0  0  0  0
    0.8425   -0.7905    0.7811 H   0  0  0  0  0  0  0  0  0  0  0  0
    0.7993   -0.3404   -1.3233 C   0  0  0  0  0  0  0  0  0  0  0  0
    0.2730    0.3643   -1.9695 H   0  0  0  0  0  0  0  0  0  0  0  0
    1.8403   -0.0167   -1.2558 H   0  0  0  0  0  0  0  0  0  0  0  0
    0.7406   -1.7208   -1.9959 C   0  0  0  0  0  0  0  0  0  0  0  0
    1.8173   -2.2782   -2.3146 O   0  5  0  0  0  0  0  0  0  0  0  0
   -0.3938   -2.2023   -2.2046 O   0  0  0  0  0  0  0  0  0  0  0  0
   -0.0374    1.1645    0.5781 C   0  0  0  0  0  0  0  0  0  0  0  0
   -0.9816    1.8416    0.1544 O   0  0  0  0  0  0  0  0  0  0  0  0
    0.8235    1.6462    1.4801 N   0  0  0  0  0  0  0  0  0  0  0  0
    1.6183    1.0435    1.7020 H   0  0  0  0  0  0  0  0  0  0  0  0
    0.7895    2.9929    2.0404 C   0  0  0  0  0  0  0  0  0  0  0  0
   -0.2344    3.2522    2.3130 H   0  0  0  0  0  0  0  0  0  0  0  0
    1.4265    3.0377    2.9233 H   0  0  0  0  0  0  0  0  0  0  0  0
    1.1511    3.7014    1.2950 H   0  0  0  0  0  0  0  0  0  0  0  0
  5  6  2  0  0  0  0
  5  7  1  0  0  0  0
  2  3  1  0  0  0  0
  2  4  1  0  0  0  0
  2  5  1  0  0  0  0
  1  2  1  0  0  0  0
 17 18  2  0  0  0  0
 17 19  1  0  0  0  0
 14 15  1  0  0  0  0
 14 16  2  0  0  0  0
 11 12  1  0  0  0  0
 11 13  1  0  0  0  0
 11 14  1  0  0  0  0
  9 10  1  0  0  0  0
  9 11  1  0  0  0  0
  9 17  1  0  0  0  0
  7  8  1  0  0  0  0
  7  9  1  0  0  0  0
 21 22  1  0  0  0  0
 21 23  1  0  0  0  0
 21 24  1  0  0  0  0
 19 20  1  0  0  0  0
 19 21  1  0  0  0  0
M  CHG  1  15  -1
M  END
$$$$
default_name
  -OEChem-02102213163D

 24 23  0     1  0  0  0  0  0999 V2000
   -2.8347   -3.7166    0.8034 H   0  0  0  0  0  0  0  0  0  0  0  0
   -2.7728   -2.7096    0.3954 C   0  0  0  0  0  0  0  0  0  0  0  0
   -3.4267   -2.0426    0.9524 H   0  0  0  0  0  0  0  0  0  0  0  0
   -3.0538   -2.7186   -0.6556 H   0  0  0  0  0  0  0  0  0  0  0  0
   -1.3498   -2.2206    0.5184 C   0  0  0  0  0  0  0  0  0  0  0  0
   -0.4997   -2.9426    1.0194 O   0  0  0  0  0  0  0  0  0  0  0  0
   -1.1198   -0.9926    0.0674 N   0  0  0  0  0  0  0  0  0  0  0  0
   -1.8978   -0.4486   -0.2716 H   0  0  0  0  0  0  0  0  0  0  0  0
    0.1693   -0.2866    0.0854 C   0  0  1  0  0  0  0  0  0  0  0  0
    0.8425   -0.7905    0.7811 H   0  0  0  0  0  0  0  0  0  0  0  0
    0.7993   -0.3404   -1.3233 C   0  0  0  0  0  0  0  0  0  0  0  0
    0.2730    0.3643   -1.9695 H   0  0  0  0  0  0  0  0  0  0  0  0
    1.8403   -0.0167   -1.2558 H   0  0  0  0  0  0  0  0  0  0  0  0
    0.7406   -1.7208   -1.9959 C   0  0  0  0  0  0  0  0  0  0  0  0
    1.7908   -2.4027   -2.0568 O   0  5  0  0  0  0  0  0  0  0  0  0
   -0.3619   -2.0769   -2.4649 O   0  0  0  0  0  0  0  0  0  0  0  0
   -0.0374    1.1645    0.5781 C   0  0  0  0  0  0  0  0  0  0  0  0
   -0.9816    1.8416    0.1544 O   0  0  0  0  0  0  0  0  0  0  0  0
    0.8235    1.6462    1.4801 N   0  0  0  0  0  0  0  0  0  0  0  0
    1.6183    1.0435    1.7020 H   0  0  0  0  0  0  0  0  0  0  0  0
    0.7895    2.9929    2.0404 C   0  0  0  0  0  0  0  0  0  0  0  0
   -0.2344    3.2522    2.3130 H   0  0  0  0  0  0  0  0  0  0  0  0
    1.4265    3.0377    2.9233 H   0  0  0  0  0  0  0  0  0  0  0  0
    1.1511    3.7014    1.2950 H   0  0  0  0  0  0  0  0  0  0  0  0
  5  6  2  0  0  0  0
  5  7  1  0  0  0  0
  2  3  1  0  0  0  0
  2  4  1  0  0  0  0
  2  5  1  0  0  0  0
  1  2  1  0  0  0  0
 17 18  2  0  0  0  0
 17 19  1  0  0  0  0
 14 15  1  0  0  0  0
 14 16  2  0  0  0  0
 11 12  1  0  0  0  0
 11 13  1  0  0  0  0
 11 14  1  0  0  0  0
  9 10  1  0  0  0  0
  9 11  1  0  0  0  0
  9 17  1  0  0  0  0
  7  8  1  0  0  0  0
  7  9  1  0  0  0  0
 21 22  1  0  0  0  0
 21 23  1  0  0  0  0
 21 24  1  0  0  0  0
 19 20  1  0  0  0  0
 19 21  1  0  0  0  0
M  CHG  1  15  -1
M  END
$$$$
default_name
  -OEChem-02102213163D

 24 23  0     1  0  0  0  0  0999 V2000
   -2.8347   -3.7166    0.8034 H   0  0  0  0  0  0  0  0  0  0  0  0
   -2.7728   -2.7096    0.3954 C   0  0  0  0  0  0  0  0  0  0  0  0
   -3.4267   -2.0426    0.9524 H   0  0  0  0  0  0  0  0  0  0  0  0
   -3.0538   -2.7186   -0.6556 H   0  0  0  0  0  0  0  0  0  0  0  0
   -1.3498   -2.2206    0.5184 C   0  0  0  0  0  0  0  0  0  0  0  0
   -0.4997   -2.9426    1.0194 O   0  0  0  0  0  0  0  0  0  0  0  0
   -1.1198   -0.9926    0.0674 N   0  0  0  0  0  0  0  0  0  0  0  0
   -1.8978   -0.4486   -0.2716 H   0  0  0  0  0  0  0  0  0  0  0  0
    0.1693   -0.2866    0.0854 C   0  0  1  0  0  0  0  0  0  0  0  0
    0.8425   -0.7905    0.7811 H   0  0  0  0  0  0  0  0  0  0  0  0
    0.7993   -0.3404   -1.3233 C   0  0  0  0  0  0  0  0  0  0  0  0
    0.2730    0.3643   -1.9695 H   0  0  0  0  0  0  0  0  0  0  0  0
    1.8403   -0.0167   -1.2558 H   0  0  0  0  0  0  0  0  0  0  0  0
    0.7406   -1.7208   -1.9959 C   0  0  0  0  0  0  0  0  0  0  0  0
    1.6911   -2.5174   -1.8128 O   0  5  0  0  0  0  0  0  0  0  0  0
   -0.2564   -1.9619   -2.7102 O   0  0  0  0  0  0  0  0  0  0  0  0
   -0.0374    1.1645    0.5781 C   0  0  0  0  0  0  0  0  0  0  0  0
   -0.9816    1.8416    0.1544 O   0  0  0  0  0  0  0  0  0  0  0  0
    0.8235    1.6462    1.4801 N   0  0  0  0  0  0  0  0  0  0  0  0
    1.6183    1.0435    1.7020 H   0  0  0  0  0  0  0  0  0  0  0  0
    0.7895    2.9929    2.0404 C   0  0  0  0  0  0  0  0  0  0  0  0
   -0.2344    3.2522    2.3130 H   0  0  0  0  0  0  0  0  0  0  0  0
    1.4265    3.0377    2.9233 H   0  0  0  0  0  0  0  0  0  0  0  0
    1.1511    3.7014    1.2950 H   0  0  0  0  0  0  0  0  0  0  0  0
  5  6  2  0  0  0  0
  5  7  1  0  0  0  0
  2  3  1  0  0  0  0
  2  4  1  0  0  0  0
  2  5  1  0  0  0  0
  1  2  1  0  0  0  0
 17 18  2  0  0  0  0
 17 19  1  0  0  0  0
 14 15  1  0  0  0  0
 14 16  2  0  0  0  0
 11 12  1  0  0  0  0
 11 13  1  0  0  0  0
 11 14  1  0  0  0  0
  9 10  1  0  0  0  0
  9 11  1  0  0  0  0
  9 17  1  0  0  0  0
  7  8  1  0  0  0  0
  7  9  1  0  0  0  0
 21 22  1  0  0  0  0
 21 23  1  0  0  0  0
 21 24  1  0  0  0  0
 19 20  1  0  0  0  0
 19 21  1  0  0  0  0
M  CHG  1  15  -1
M  END
$$$$
default_name
  -OEChem-02102213163D

 24 23  0     1  0  0  0  0  0999 V2000
   -2.8347   -3.7166    0.8034 H   0  0  0  0  0  0  0  0  0  0  0  0
   -2.7728   -2.7096    0.3954 C   0  0  0  0  0  0  0  0  0  0  0  0
   -3.4267   -2.0426    0.9524 H   0  0  0  0  0  0  0  0  0  0  0  0
   -3.0538   -2.7186   -0.6556 H   0  0  0  0  0  0  0  0  0  0  0  0
   -1.3498   -2.2206    0.5184 C   0  0  0  0  0  0  0  0  0  0  0  0
   -0.4997   -2.9426    1.0194 O   0  0  0  0  0  0  0  0  0  0  0  0
   -1.1198   -0.9926    0.0674 N   0  0  0  0  0  0  0  0  0  0  0  0
   -1.8978   -0.4486   -0.2716 H   0  0  0  0  0  0  0  0  0  0  0  0
    0.1693   -0.2866    0.0854 C   0  0  1  0  0  0  0  0  0  0  0  0
    0.8425   -0.7905    0.7811 H   0  0  0  0  0  0  0  0  0  0  0  0
    0.7993   -0.3404   -1.3233 C   0  0  0  0  0  0  0  0  0  0  0  0
    0.2730    0.3643   -1.9695 H   0  0  0  0  0  0  0  0  0  0  0  0
    1.8403   -0.0167   -1.2558 H   0  0  0  0  0  0  0  0  0  0  0  0
    0.7406   -1.7208   -1.9959 C   0  0  0  0  0  0  0  0  0  0  0  0
    1.5252   -2.6144   -1.5990 O   0  5  0  0  0  0  0  0  0  0  0  0
   -0.0844   -1.8652   -2.9237 O   0  0  0  0  0  0  0  0  0  0  0  0
   -0.0374    1.1645    0.5781 C   0  0  0  0  0  0  0  0  0  0  0  0
   -0.9816    1.8416    0.1544 O   0  0  0  0  0  0  0  0  0  0  0  0
    0.8235    1.6462    1.4801 N   0  0  0  0  0  0  0  0  0  0  0  0
    1.6183    1.0435    1.7020 H   0  0  0  0  0  0  0  0  0  0  0  0
    0.7895    2.9929    2.0404 C   0  0  0  0  0  0  0  0  0  0  0  0
   -0.2344    3.2522    2.3130 H   0  0  0  0  0  0  0  0  0  0  0  0
    1.4265    3.0377    2.9233 H   0  0  0  0  0  0  0  0  0  0  0  0
    1.1511    3.7014    1.2950 H   0  0  0  0  0  0  0  0  0  0  0  0
  5  6  2  0  0  0  0
  5  7  1  0  0  0  0
  2  3  1  0  0  0  0
  2  4  1  0  0  0  0
  2  5  1  0  0  0  0
  1  2  1  0  0  0  0
 17 18  2  0  0  0  0
 17 19  1  0  0  0  0
 14 15  1  0  0  0  0
 14 16  2  0  0  0  0
 11 12  1  0  0  0  0
 11 13  1  0  0  0  0
 11 14  1  0  0  0  0
  9 10  1  0  0  0  0
  9 11  1  0  0  0  0
  9 17  1  0  0  0  0
  7  8  1  0  0  0  0
  7  9  1  0  0  0  0
 21 22  1  0  0  0  0
 21 23  1  0  0  0  0
 21 24  1  0  0  0  0
 19 20  1  0  0  0  0
 19 21  1  0  0  0  0
M  CHG  1  15  -1
M  END
$$$$
default_name
  -OEChem-02102213163D

 24 23  0     1  0  0  0  0  0999 V2000
   -2.8347   -3.7166    0.8034 H   0  0  0  0  0  0  0  0  0  0  0  0
   -2.7728   -2.7096    0.3954 C   0  0  0  0  0  0  0  0  0  0  0  0
   -3.4267   -2.0426    0.9524 H   0  0  0  0  0  0  0  0  0  0  0  0
   -3.0538   -2.7186   -0.6556 H   0  0  0  0  0  0  0  0  0  0  0  0
   -1.3498   -2.2206    0.5184 C   0  0  0  0  0  0  0  0  0  0  0  0
   -0.4997   -2.9426    1.0194 O   0  0  0  0  0  0  0  0  0  0  0  0
   -1.1198   -0.9926    0.0674 N   0  0  0  0  0  0  0  0  0  0  0  0
   -1.8978   -0.4486   -0.2716 H   0  0  0  0  0  0  0  0  0  0  0  0
    0.1693   -0.2866    0.0854 C   0  0  1  0  0  0  0  0  0  0  0  0
    0.8425   -0.7905    0.7811 H   0  0  0  0  0  0  0  0  0  0  0  0
    0.7993   -0.3404   -1.3233 C   0  0  0  0  0  0  0  0  0  0  0  0
    0.2730    0.3643   -1.9695 H   0  0  0  0  0  0  0  0  0  0  0  0
    1.8403   -0.0167   -1.2558 H   0  0  0  0  0  0  0  0  0  0  0  0
    0.7406   -1.7208   -1.9959 C   0  0  0  0  0  0  0  0  0  0  0  0
    1.3042   -2.6873   -1.4302 O   0  5  0  0  0  0  0  0  0  0  0  0
    0.1424   -1.7933   -3.0909 O   0  0  0  0  0  0  0  0  0  0  0  0
   -0.0374    1.1645    0.5781 C   0  0  0  0  0  0  0  0  0  0  0  0
   -0.9816    1.8416    0.1544 O   0  0  0  0  0  0  0  0  0  0  0  0
    0.8235    1.6462    1.4801 N   0  0  0  0  0  0  0  0  0  0  0  0
    1.6183    1.0435    1.7020 H   0  0  0  0  0  0  0  0  0  0  0  0
    0.7895    2.9929    2.0404 C   0  0  0  0  0  0  0  0  0  0  0  0
   -0.2344    3.2522    2.3130 H   0  0  0  0  0  0  0  0  0  0  0  0
    1.4265    3.0377    2.9233 H   0  0  0  0  0  0  0  0  0  0  0  0
    1.1511    3.7014    1.2950 H   0  0  0  0  0  0  0  0  0  0  0  0
  5  6  2  0  0  0  0
  5  7  1  0  0  0  0
  2  3  1  0  0  0  0
  2  4  1  0  0  0  0
  2  5  1  0  0  0  0
  1  2  1  0  0  0  0
 17 18  2  0  0  0  0
 17 19  1  0  0  0  0
 14 15  1  0  0  0  0
 14 16  2  0  0  0  0
 11 12  1  0  0  0  0
 11 13  1  0  0  0  0
 11 14  1  0  0  0  0
  9 10  1  0  0  0  0
  9 11  1  0  0  0  0
  9 17  1  0  0  0  0
  7  8  1  0  0  0  0
  7  9  1  0  0  0  0
 21 22  1  0  0  0  0
 21 23  1  0  0  0  0
 21 24  1  0  0  0  0
 19 20  1  0  0  0  0
 19 21  1  0  0  0  0
M  CHG  1  15  -1
M  END
$$$$
default_name
  -OEChem-02102213163D

 24 23  0     1  0  0  0  0  0999 V2000
   -2.8347   -3.7166    0.8034 H   0  0  0  0  0  0  0  0  0  0  0  0
   -2.7728   -2.7096    0.3954 C   0  0  0  0  0  0  0  0  0  0  0  0
   -3.4267   -2.0426    0.9524 H   0  0  0  0  0  0  0  0  0  0  0  0
   -3.0538   -2.7186   -0.6556 H   0  0  0  0  0  0  0  0  0  0  0  0
   -1.3498   -2.2206    0.5184 C   0  0  0  0  0  0  0  0  0  0  0  0
   -0.4997   -2.9426    1.0194 O   0  0  0  0  0  0  0  0  0  0  0  0
   -1.1198   -0.9926    0.0674 N   0  0  0  0  0  0  0  0  0  0  0  0
   -1.8978   -0.4486   -0.2716 H   0  0  0  0  0  0  0  0  0  0  0  0
    0.1693   -0.2866    0.0854 C   0  0  1  0  0  0  0  0  0  0  0  0
    0.8425   -0.7905    0.7811 H   0  0  0  0  0  0  0  0  0  0  0  0
    0.7993   -0.3404   -1.3233 C   0  0  0  0  0  0  0  0  0  0  0  0
    0.2730    0.3643   -1.9695 H   0  0  0  0  0  0  0  0  0  0  0  0
    1.8403   -0.0167   -1.2558 H   0  0  0  0  0  0  0  0  0  0  0  0
    0.7406   -1.7208   -1.9959 C   0  0  0  0  0  0  0  0  0  0  0  0
    1.0432   -2.7309   -1.3178 O   0  5  0  0  0  0  0  0  0  0  0  0
    0.4084   -1.7513   -3.2004 O   0  0  0  0  0  0  0  0  0  0  0  0
   -0.0374    1.1645    0.5781 C   0  0  0  0  0  0  0  0  0  0  0  0
   -0.9816    1.8416    0.1544 O   0  0  0  0  0  0  0  0  0  0  0  0
    0.8235    1.6462    1.4801 N   0  0  0  0  0  0  0  0  0  0  0  0
    1.6183    1.0435    1.7020 H   0  0  0  0  0  0  0  0  0  0  0  0
    0.7895    2.9929    2.0404 C   0  0  0  0  0  0  0  0  0  0  0  0
   -0.2344    3.2522    2.3130 H   0  0  0  0  0  0  0  0  0  0  0  0
    1.4265    3.0377    2.9233 H   0  0  0  0  0  0  0  0  0  0  0  0
    1.1511    3.7014    1.2950 H   0  0  0  0  0  0  0  0  0  0  0  0
  5  6  2  0  0  0  0
  5  7  1  0  0  0  0
  2  3  1  0  0  0  0
  2  4  1  0  0  0  0
  2  5  1  0  0  0  0
  1  2  1  0  0  0  0
 17 18  2  0  0  0  0
 17 19  1  0  0  0  0
 14 15  1  0  0  0  0
 14 16  2  0  0  0  0
 11 12  1  0  0  0  0
 11 13  1  0  0  0  0
 11 14  1  0  0  0  0
  9 10  1  0  0  0  0
  9 11  1  0  0  0  0
  9 17  1  0  0  0  0
  7  8  1  0  0  0  0
  7  9  1  0  0  0  0
 21 22  1  0  0  0  0
 21 23  1  0  0  0  0
 21 24  1  0  0  0  0
 19 20  1  0  0  0  0
 19 21  1  0  0  0  0
M  CHG  1  15  -1
M  END
$$$$
default_name
  -OEChem-02102213163D

 24 23  0     1  0  0  0  0  0999 V2000
   -2.8347   -3.7166    0.8034 H   0  0  0  0  0  0  0  0  0  0  0  0
   -2.7728   -2.7096    0.3954 C   0  0  0  0  0  0  0  0  0  0  0  0
   -3.4267   -2.0426    0.9524 H   0  0  0  0  0  0  0  0  0  0  0  0
   -3.0538   -2.7186   -0.6556 H   0  0  0  0  0  0  0  0  0  0  0  0
   -1.3498   -2.2206    0.5184 C   0  0  0  0  0  0  0  0  0  0  0  0
   -0.4997   -2.9426    1.0194 O   0  0  0  0  0  0  0  0  0  0  0  0
   -1.1198   -0.9926    0.0674 N   0  0  0  0  0  0  0  0  0  0  0  0
   -1.8978   -0.4486   -0.2716 H   0  0  0  0  0  0  0  0  0  0  0  0
    0.1693   -0.2866    0.0854 C   0  0  1  0  0  0  0  0  0  0  0  0
    0.8425   -0.7905    0.7811 H   0  0  0  0  0  0  0  0  0  0  0  0
    0.7993   -0.3404   -1.3233 C   0  0  0  0  0  0  0  0  0  0  0  0
    0.2730    0.3643   -1.9695 H   0  0  0  0  0  0  0  0  0  0  0  0
    1.8403   -0.0167   -1.2558 H   0  0  0  0  0  0  0  0  0  0  0  0
    0.7406   -1.7208   -1.9959 C   0  0  0  0  0  0  0  0  0  0  0  0
    0.7600   -2.7424   -1.2695 O   0  5  0  0  0  0  0  0  0  0  0  0
    0.6956   -1.7419   -3.2447 O   0  0  0  0  0  0  0  0  0  0  0  0
   -0.0374    1.1645    0.5781 C   0  0  0  0  0  0  0  0  0  0  0  0
   -0.9816    1.8416    0.1544 O   0  0  0  0  0  0  0  0  0  0  0  0
    0.8235    1.6462    1.4801 N   0  0  0  0  0  0  0  0  0  0  0  0
    1.6183    1.0435    1.7020 H   0  0  0  0  0  0  0  0  0  0  0  0
    0.7895    2.9929    2.0404 C   0  0  0  0  0  0  0  0  0  0  0  0
   -0.2344    3.2522    2.3130 H   0  0  0  0  0  0  0  0  0  0  0  0
    1.4265    3.0377    2.9233 H   0  0  0  0  0  0  0  0  0  0  0  0
    1.1511    3.7014    1.2950 H   0  0  0  0  0  0  0  0  0  0  0  0
  5  6  2  0  0  0  0
  5  7  1  0  0  0  0
  2  3  1  0  0  0  0
  2  4  1  0  0  0  0
  2  5  1  0  0  0  0
  1  2  1  0  0  0  0
 17 18  2  0  0  0  0
 17 19  1  0  0  0  0
 14 15  1  0  0  0  0
 14 16  2  0  0  0  0
 11 12  1  0  0  0  0
 11 13  1  0  0  0  0
 11 14  1  0  0  0  0
  9 10  1  0  0  0  0
  9 11  1  0  0  0  0
  9 17  1  0  0  0  0
  7  8  1  0  0  0  0
  7  9  1  0  0  0  0
 21 22  1  0  0  0  0
 21 23  1  0  0  0  0
 21 24  1  0  0  0  0
 19 20  1  0  0  0  0
 19 21  1  0  0  0  0
M  CHG  1  15  -1
M  END
$$$$
default_name
  -OEChem-02102213163D

 24 23  0     1  0  0  0  0  0999 V2000
   -2.8347   -3.7166    0.8034 H   0  0  0  0  0  0  0  0  0  0  0  0
   -2.7728   -2.7096    0.3954 C   0  0  0  0  0  0  0  0  0  0  0  0
   -3.4267   -2.0426    0.9524 H   0  0  0  0  0  0  0  0  0  0  0  0
   -3.0538   -2.7186   -0.6556 H   0  0  0  0  0  0  0  0  0  0  0  0
   -1.3498   -2.2206    0.5184 C   0  0  0  0  0  0  0  0  0  0  0  0
   -0.4997   -2.9426    1.0194 O   0  0  0  0  0  0  0  0  0  0  0  0
   -1.1198   -0.9926    0.0674 N   0  0  0  0  0  0  0  0  0  0  0  0
   -1.8978   -0.4486   -0.2716 H   0  0  0  0  0  0  0  0  0  0  0  0
    0.1693   -0.2866    0.0854 C   0  0  1  0  0  0  0  0  0  0  0  0
    0.8425   -0.7905    0.7811 H   0  0  0  0  0  0  0  0  0  0  0  0
    0.7993   -0.3404   -1.3233 C   0  0  0  0  0  0  0  0  0  0  0  0
    0.2730    0.3643   -1.9695 H   0  0  0  0  0  0  0  0  0  0  0  0
    1.8403   -0.0167   -1.2558 H   0  0  0  0  0  0  0  0  0  0  0  0
    0.7406   -1.7208   -1.9959 C   0  0  0  0  0  0  0  0  0  0  0  0
    0.4740   -2.7209   -1.2885 O   0  5  0  0  0  0  0  0  0  0  0  0
    0.9843   -1.7658   -3.2209 O   0  0  0  0  0  0  0  0  0  0  0  0
   -0.0374    1.1645    0.5781 C   0  0  0  0  0  0  0  0  0  0  0  0
   -0.9816    1.8416    0.1544 O   0  0  0  0  0  0  0  0  0  0  0  0
    0.8235    1.6462    1.4801 N   0  0  0  0  0  0  0  0  0  0  0  0
    1.6183    1.0435    1.7020 H   0  0  0  0  0  0  0  0  0  0  0  0
    0.7895    2.9929    2.0404 C   0  0  0  0  0  0  0  0  0  0  0  0
   -0.2344    3.2522    2.3130 H   0  0  0  0  0  0  0  0  0  0  0  0
    1.4265    3.0377    2.9233 H   0  0  0  0  0  0  0  0  0  0  0  0
    1.1511    3.7014    1.2950 H   0  0  0  0  0  0  0  0  0  0  0  0
  5  6  2  0  0  0  0
  5  7  1  0  0  0  0
  2  3  1  0  0  0  0
  2  4  1  0  0  0  0
  2  5  1  0  0  0  0
  1  2  1  0  0  0  0
 17 18  2  0  0  0  0
 17 19  1  0  0  0  0
 14 15  1  0  0  0  0
 14 16  2  0  0  0  0
 11 12  1  0  0  0  0
 11 13  1  0  0  0  0
 11 14  1  0  0  0  0
  9 10  1  0  0  0  0
  9 11  1  0  0  0  0
  9 17  1  0  0  0  0
  7  8  1  0  0  0  0
  7  9  1  0  0  0  0
 21 22  1  0  0  0  0
 21 23  1  0  0  0  0
 21 24  1  0  0  0  0
 19 20  1  0  0  0  0
 19 21  1  0  0  0  0
M  CHG  1  15  -1
M  END
$$$$
default_name
  -OEChem-02102213163D

 24 23  0     1  0  0  0  0  0999 V2000
   -2.8347   -3.7166    0.8034 H   0  0  0  0  0  0  0  0  0  0  0  0
   -2.7728   -2.7096    0.3954 C   0  0  0  0  0  0  0  0  0  0  0  0
   -3.4267   -2.0426    0.9524 H   0  0  0  0  0  0  0  0  0  0  0  0
   -3.0538   -2.7186   -0.6556 H   0  0  0  0  0  0  0  0  0  0  0  0
   -1.3498   -2.2206    0.5184 C   0  0  0  0  0  0  0  0  0  0  0  0
   -0.4997   -2.9426    1.0194 O   0  0  0  0  0  0  0  0  0  0  0  0
   -1.1198   -0.9926    0.0674 N   0  0  0  0  0  0  0  0  0  0  0  0
   -1.8978   -0.4486   -0.2716 H   0  0  0  0  0  0  0  0  0  0  0  0
    0.1693   -0.2866    0.0854 C   0  0  1  0  0  0  0  0  0  0  0  0
    0.8425   -0.7905    0.7811 H   0  0  0  0  0  0  0  0  0  0  0  0
    0.7993   -0.3404   -1.3233 C   0  0  0  0  0  0  0  0  0  0  0  0
    0.2730    0.3643   -1.9695 H   0  0  0  0  0  0  0  0  0  0  0  0
    1.8403   -0.0167   -1.2558 H   0  0  0  0  0  0  0  0  0  0  0  0
    0.7406   -1.7208   -1.9959 C   0  0  0  0  0  0  0  0  0  0  0  0
    0.2045   -2.6680   -1.3737 O   0  5  0  0  0  0  0  0  0  0  0  0
    1.2550   -1.8214   -3.1305 O   0  0  0  0  0  0  0  0  0  0  0  0
   -0.0374    1.1645    0.5781 C   0  0  0  0  0  0  0  0  0  0  0  0
   -0.9816    1.8416    0.1544 O   0  0  0  0  0  0  0  0  0  0  0  0
    0.8235    1.6462    1.4801 N   0  0  0  0  0  0  0  0  0  0  0  0
    1.6183    1.0435    1.7020 H   0  0  0  0  0  0  0  0  0  0  0  0
    0.7895    2.9929    2.0404 C   0  0  0  0  0  0  0  0  0  0  0  0
   -0.2344    3.2522    2.3130 H   0  0  0  0  0  0  0  0  0  0  0  0
    1.4265    3.0377    2.9233 H   0  0  0  0  0  0  0  0  0  0  0  0
    1.1511    3.7014    1.2950 H   0  0  0  0  0  0  0  0  0  0  0  0
  5  6  2  0  0  0  0
  5  7  1  0  0  0  0
  2  3  1  0  0  0  0
  2  4  1  0  0  0  0
  2  5  1  0  0  0  0
  1  2  1  0  0  0  0
 17 18  2  0  0  0  0
 17 19  1  0  0  0  0
 14 15  1  0  0  0  0
 14 16  2  0  0  0  0
 11 12  1  0  0  0  0
 11 13  1  0  0  0  0
 11 14  1  0  0  0  0
  9 10  1  0  0  0  0
  9 11  1  0  0  0  0
  9 17  1  0  0  0  0
  7  8  1  0  0  0  0
  7  9  1  0  0  0  0
 21 22  1  0  0  0  0
 21 23  1  0  0  0  0
 21 24  1  0  0  0  0
 19 20  1  0  0  0  0
 19 21  1  0  0  0  0
M  CHG  1  15  -1
M  END
$$$$
default_name
  -OEChem-02102213163D

 24 23  0     1  0  0  0  0  0999 V2000
   -2.8347   -3.7166    0.8034 H   0  0  0  0  0  0  0  0  0  0  0  0
   -2.7728   -2.7096    0.3954 C   0  0  0  0  0  0  0  0  0  0  0  0
   -3.4267   -2.0426    0.9524 H   0  0  0  0  0  0  0  0  0  0  0  0
   -3.0538   -2.7186   -0.6556 H   0  0  0  0  0  0  0  0  0  0  0  0
   -1.3498   -2.2206    0.5184 C   0  0  0  0  0  0  0  0  0  0  0  0
   -0.4997   -2.9426    1.0194 O   0  0  0  0  0  0  0  0  0  0  0  0
   -1.1198   -0.9926    0.0674 N   0  0  0  0  0  0  0  0  0  0  0  0
   -1.8978   -0.4486   -0.2716 H   0  0  0  0  0  0  0  0  0  0  0  0
    0.1693   -0.2866    0.0854 C   0  0  1  0  0  0  0  0  0  0  0  0
    0.8425   -0.7905    0.7811 H   0  0  0  0  0  0  0  0  0  0  0  0
    0.7993   -0.3404   -1.3233 C   0  0  0  0  0  0  0  0  0  0  0  0
    0.2730    0.3643   -1.9695 H   0  0  0  0  0  0  0  0  0  0  0  0
    1.8403   -0.0167   -1.2558 H   0  0  0  0  0  0  0  0  0  0  0  0
    0.7406   -1.7208   -1.9959 C   0  0  0  0  0  0  0  0  0  0  0  0
   -0.0299   -2.5872   -1.5190 O   0  5  0  0  0  0  0  0  0  0  0  0
    1.4891   -1.9049   -2.9797 O   0  0  0  0  0  0  0  0  0  0  0  0
   -0.0374    1.1645    0.5781 C   0  0  0  0  0  0  0  0  0  0  0  0
   -0.9816    1.8416    0.1544 O   0  0  0  0  0  0  0  0  0  0  0  0
    0.8235    1.6462    1.4801 N   0  0  0  0  0  0  0  0  0  0  0  0
    1.6183    1.0435    1.7020 H   0  0  0  0  0  0  0  0  0  0  0  0
    0.7895    2.9929    2.0404 C   0  0  0  0  0  0  0  0  0  0  0  0
   -0.2344    3.2522    2.3130 H   0  0  0  0  0  0  0  0  0  0  0  0
    1.4265    3.0377    2.9233 H   0  0  0  0  0  0  0  0  0  0  0  0
    1.1511    3.7014    1.2950 H   0  0  0  0  0  0  0  0  0  0  0  0
  5  6  2  0  0  0  0
  5  7  1  0  0  0  0
  2  3  1  0  0  0  0
  2  4  1  0  0  0  0
  2  5  1  0  0  0  0
  1  2  1  0  0  0  0
 17 18  2  0  0  0  0
 17 19  1  0  0  0  0
 14 15  1  0  0  0  0
 14 16  2  0  0  0  0
 11 12  1  0  0  0  0
 11 13  1  0  0  0  0
 11 14  1  0  0  0  0
  9 10  1  0  0  0  0
  9 11  1  0  0  0  0
  9 17  1  0  0  0  0
  7  8  1  0  0  0  0
  7  9  1  0  0  0  0
 21 22  1  0  0  0  0
 21 23  1  0  0  0  0
 21 24  1  0  0  0  0
 19 20  1  0  0  0  0
 19 21  1  0  0  0  0
M  CHG  1  15  -1
M  END
$$$$
default_name
  -OEChem-02102213163D

 24 23  0     1  0  0  0  0  0999 V2000
   -2.8347   -3.7166    0.8034 H   0  0  0  0  0  0  0  0  0  0  0  0
   -2.7728   -2.7096    0.3954 C   0  0  0  0  0  0  0  0  0  0  0  0
   -3.4267   -2.0426    0.9524 H   0  0  0  0  0  0  0  0  0  0  0  0
   -3.0538   -2.7186   -0.6556 H   0  0  0  0  0  0  0  0  0  0  0  0
   -1.3498   -2.2206    0.5184 C   0  0  0  0  0  0  0  0  0  0  0  0
   -0.4997   -2.9426    1.0194 O   0  0  0  0  0  0  0  0  0  0  0  0
   -1.1198   -0.9926    0.0674 N   0  0  0  0  0  0  0  0  0  0  0  0
   -1.8978   -0.4486   -0.2716 H   0  0  0  0  0  0  0  0  0  0  0  0
    0.1693   -0.2866    0.0854 C   0  0  1  0  0  0  0  0  0  0  0  0
    0.8425   -0.7905    0.7811 H   0  0  0  0  0  0  0  0  0  0  0  0
    0.7993   -0.3404   -1.3233 C   0  0  0  0  0  0  0  0  0  0  0  0
    0.2730    0.3643   -1.9695 H   0  0  0  0  0  0  0  0  0  0  0  0
    1.8403   -0.0167   -1.2558 H   0  0  0  0  0  0  0  0  0  0  0  0
    0.7406   -1.7208   -1.9959 C   0  0  0  0  0  0  0  0  0  0  0  0
   -0.2135   -2.4840   -1.7148 O   0  5  0  0  0  0  0  0  0  0  0  0
    1.6708   -2.0105   -2.7787 O   0  0  0  0  0  0  0  0  0  0  0  0
   -0.0374    1.1645    0.5781 C   0  0  0  0  0  0  0  0  0  0  0  0
   -0.9816    1.8416    0.1544 O   0  0  0  0  0  0  0  0  0  0  0  0
    0.8235    1.6462    1.4801 N   0  0  0  0  0  0  0  0  0  0  0  0
    1.6183    1.0435    1.7020 H   0  0  0  0  0  0  0  0  0  0  0  0
    0.7895    2.9929    2.0404 C   0  0  0  0  0  0  0  0  0  0  0  0
   -0.2344    3.2522    2.3130 H   0  0  0  0  0  0  0  0  0  0  0  0
    1.4265    3.0377    2.9233 H   0  0  0  0  0  0  0  0  0  0  0  0
    1.1511    3.7014    1.2950 H   0  0  0  0  0  0  0  0  0  0  0  0
  5  6  2  0  0  0  0
  5  7  1  0  0  0  0
  2  3  1  0  0  0  0
  2  4  1  0  0  0  0
  2  5  1  0  0  0  0
  1  2  1  0  0  0  0
 17 18  2  0  0  0  0
 17 19  1  0  0  0  0
 14 15  1  0  0  0  0
 14 16  2  0  0  0  0
 11 12  1  0  0  0  0
 11 13  1  0  0  0  0
 11 14  1  0  0  0  0
  9 10  1  0  0  0  0
  9 11  1  0  0  0  0
  9 17  1  0  0  0  0
  7  8  1  0  0  0  0
  7  9  1  0  0  0  0
 21 22  1  0  0  0  0
 21 23  1  0  0  0  0
 21 24  1  0  0  0  0
 19 20  1  0  0  0  0
 19 21  1  0  0  0  0
M  CHG  1  15  -1
M  END
$$$$
default_name
  -OEChem-02102213163D

 24 23  0     1  0  0  0  0  0999 V2000
   -2.8347   -3.7166    0.8034 H   0  0  0  0  0  0  0  0  0  0  0  0
   -2.7728   -2.7096    0.3954 C   0  0  0  0  0  0  0  0  0  0  0  0
   -3.4267   -2.0426    0.9524 H   0  0  0  0  0  0  0  0  0  0  0  0
   -3.0538   -2.7186   -0.6556 H   0  0  0  0  0  0  0  0  0  0  0  0
   -1.3498   -2.2206    0.5184 C   0  0  0  0  0  0  0  0  0  0  0  0
   -0.4997   -2.9426    1.0194 O   0  0  0  0  0  0  0  0  0  0  0  0
   -1.1198   -0.9926    0.0674 N   0  0  0  0  0  0  0  0  0  0  0  0
   -1.8978   -0.4486   -0.2716 H   0  0  0  0  0  0  0  0  0  0  0  0
    0.1693   -0.2866    0.0854 C   0  0  1  0  0  0  0  0  0  0  0  0
    0.8425   -0.7905    0.7811 H   0  0  0  0  0  0  0  0  0  0  0  0
    0.7993   -0.3404   -1.3233 C   0  0  0  0  0  0  0  0  0  0  0  0
    0.2730    0.3643   -1.9695 H   0  0  0  0  0  0  0  0  0  0  0  0
    1.8403   -0.0167   -1.2558 H   0  0  0  0  0  0  0  0  0  0  0  0
    0.7406   -1.7208   -1.9959 C   0  0  0  0  0  0  0  0  0  0  0  0
   -0.3336   -2.3655   -1.9476 O   0  5  0  0  0  0  0  0  0  0  0  0
    1.7875   -2.1311   -2.5414 O   0  0  0  0  0  0  0  0  0  0  0  0
   -0.0374    1.1645    0.5781 C   0  0  0  0  0  0  0  0  0  0  0  0
   -0.9816    1.8416    0.1544 O   0  0  0  0  0  0  0  0  0  0  0  0
    0.8235    1.6462    1.4801 N   0  0  0  0  0  0  0  0  0  0  0  0
    1.6183    1.0435    1.7020 H   0  0  0  0  0  0  0  0  0  0  0  0
    0.7895    2.9929    2.0404 C   0  0  0  0  0  0  0  0  0  0  0  0
   -0.2344    3.2522    2.3130 H   0  0  0  0  0  0  0  0  0  0  0  0
    1.4265    3.0377    2.9233 H   0  0  0  0  0  0  0  0  0  0  0  0
    1.1511    3.7014    1.2950 H   0  0  0  0  0  0  0  0  0  0  0  0
  5  6  2  0  0  0  0
  5  7  1  0  0  0  0
  2  3  1  0  0  0  0
  2  4  1  0  0  0  0
  2  5  1  0  0  0  0
  1  2  1  0  0  0  0
 17 18  2  0  0  0  0
 17 19  1  0  0  0  0
 14 15  1  0  0  0  0
 14 16  2  0  0  0  0
 11 12  1  0  0  0  0
 11 13  1  0  0  0  0
 11 14  1  0  0  0  0
  9 10  1  0  0  0  0
  9 11  1  0  0  0  0
  9 17  1  0  0  0  0
  7  8  1  0  0  0  0
  7  9  1  0  0  0  0
 21 22  1  0  0  0  0
 21 23  1  0  0  0  0
 21 24  1  0  0  0  0
 19 20  1  0  0  0  0
 19 21  1  0  0  0  0
M  CHG  1  15  -1
M  END
$$$$
default_name
  -OEChem-02102213163D

 24 23  0     1  0  0  0  0  0999 V2000
   -2.8347   -3.7166    0.8034 H   0  0  0  0  0  0  0  0  0  0  0  0
   -2.7728   -2.7096    0.3954 C   0  0  0  0  0  0  0  0  0  0  0  0
   -3.4267   -2.0426    0.9524 H   0  0  0  0  0  0  0  0  0  0  0  0
   -3.0538   -2.7186   -0.6556 H   0  0  0  0  0  0  0  0  0  0  0  0
   -1.3498   -2.2206    0.5184 C   0  0  0  0  0  0  0  0  0  0  0  0
   -0.4997   -2.9426    1.0194 O   0  0  0  0  0  0  0  0  0  0  0  0
   -1.1198   -0.9926    0.0674 N   0  0  0  0  0  0  0  0  0  0  0  0
   -1.8978   -0.4486   -0.2716 H   0  0  0  0  0  0  0  0  0  0  0  0
    0.1693   -0.2866    0.0854 C   0  0  1  0  0  0  0  0  0  0  0  0
    0.8425   -0.7905    0.7811 H   0  0  0  0  0  0  0  0  0  0  0  0
    0.7993   -0.3404   -1.3233 C   0  0  0  0  0  0  0  0  0  0  0  0
    0.2730    0.3643   -1.9695 H   0  0  0  0  0  0  0  0  0  0  0  0
    1.8403   -0.0167   -1.2558 H   0  0  0  0  0  0  0  0  0  0  0  0
    0.7406   -1.7208   -1.9959 C   0  0  0  0  0  0  0  0  0  0  0  0
   -0.3820   -2.2397   -2.2015 O   0  5  0  0  0  0  0  0  0  0  0  0
    1.8315   -2.2585   -2.2838 O   0  0  0  0  0  0  0  0  0  0  0  0
   -0.0374    1.1645    0.5781 C   0  0  0  0  0  0  0  0  0  0  0  0
   -0.9816    1.8416    0.1544 O   0  0  0  0  0  0  0  0  0  0  0  0
    0.8235    1.6462    1.4801 N   0  0  0  0  0  0  0  0  0  0  0  0
    1.6183    1.0435    1.7020 H   0  0  0  0  0  0  0  0  0  0  0  0
    0.7895    2.9929    2.0404 C   0  0  0  0  0  0  0  0  0  0  0  0
   -0.2344    3.2522    2.3130 H   0  0  0  0  0  0  0  0  0  0  0  0
    1.4265    3.0377    2.9233 H   0  0  0  0  0  0  0  0  0  0  0  0
    1.1511    3.7014    1.2950 H   0  0  0  0  0  0  0  0  0  0  0  0
  5  6  2  0  0  0  0
  5  7  1  0  0  0  0
  2  3  1  0  0  0  0
  2  4  1  0  0  0  0
  2  5  1  0  0  0  0
  1  2  1  0  0  0  0
 17 18  2  0  0  0  0
 17 19  1  0  0  0  0
 14 15  1  0  0  0  0
 14 16  2  0  0  0  0
 11 12  1  0  0  0  0
 11 13  1  0  0  0  0
 11 14  1  0  0  0  0
  9 10  1  0  0  0  0
  9 11  1  0  0  0  0
  9 17  1  0  0  0  0
  7  8  1  0  0  0  0
  7  9  1  0  0  0  0
 21 22  1  0  0  0  0
 21 23  1  0  0  0  0
 21 24  1  0  0  0  0
 19 20  1  0  0  0  0
 19 21  1  0  0  0  0
M  CHG  1  15  -1
M  END
$$$$
default_name
  -OEChem-02102213163D

 24 23  0     1  0  0  0  0  0999 V2000
   -2.8347   -3.7166    0.8034 H   0  0  0  0  0  0  0  0  0  0  0  0
   -2.7728   -2.7096    0.3954 C   0  0  0  0  0  0  0  0  0  0  0  0
   -3.4267   -2.0426    0.9524 H   0  0  0  0  0  0  0  0  0  0  0  0
   -3.0538   -2.7186   -0.6556 H   0  0  0  0  0  0  0  0  0  0  0  0
   -1.3498   -2.2206    0.5184 C   0  0  0  0  0  0  0  0  0  0  0  0
   -0.4997   -2.9426    1.0194 O   0  0  0  0  0  0  0  0  0  0  0  0
   -1.1198   -0.9926    0.0674 N   0  0  0  0  0  0  0  0  0  0  0  0
   -1.8978   -0.4486   -0.2716 H   0  0  0  0  0  0  0  0  0  0  0  0
    0.1693   -0.2866    0.0854 C   0  0  1  0  0  0  0  0  0  0  0  0
    0.8425   -0.7905    0.7811 H   0  0  0  0  0  0  0  0  0  0  0  0
    0.7993   -0.3404   -1.3233 C   0  0  0  0  0  0  0  0  0  0  0  0
    0.2730    0.3643   -1.9695 H   0  0  0  0  0  0  0  0  0  0  0  0
    1.8403   -0.0167   -1.2558 H   0  0  0  0  0  0  0  0  0  0  0  0
    0.7406   -1.7208   -1.9959 C   0  0  0  0  0  0  0  0  0  0  0  0
   -0.3555   -2.1152   -2.4593 O   0  5  0  0  0  0  0  0  0  0  0  0
    1.7996   -2.3840   -2.0234 O   0  0  0  0  0  0  0  0  0  0  0  0
   -0.0374    1.1645    0.5781 C   0  0  0  0  0  0  0  0  0  0  0  0
   -0.9816    1.8416    0.1544 O   0  0  0  0  0  0  0  0  0  0  0  0
    0.8235    1.6462    1.4801 N   0  0  0  0  0  0  0  0  0  0  0  0
    1.6183    1.0435    1.7020 H   0  0  0  0  0  0  0  0  0  0  0  0
    0.7895    2.9929    2.0404 C   0  0  0  0  0  0  0  0  0  0  0  0
   -0.2344    3.2522    2.3130 H   0  0  0  0  0  0  0  0  0  0  0  0
    1.4265    3.0377    2.9233 H   0  0  0  0  0  0  0  0  0  0  0  0
    1.1511    3.7014    1.2950 H   0  0  0  0  0  0  0  0  0  0  0  0
  5  6  2  0  0  0  0
  5  7  1  0  0  0  0
  2  3  1  0  0  0  0
  2  4  1  0  0  0  0
  2  5  1  0  0  0  0
  1  2  1  0  0  0  0
 17 18  2  0  0  0  0
 17 19  1  0  0  0  0
 14 15  1  0  0  0  0
 14 16  2  0  0  0  0
 11 12  1  0  0  0  0
 11 13  1  0  0  0  0
 11 14  1  0  0  0  0
  9 10  1  0  0  0  0
  9 11  1  0  0  0  0
  9 17  1  0  0  0  0
  7  8  1  0  0  0  0
  7  9  1  0  0  0  0
 21 22  1  0  0  0  0
 21 23  1  0  0  0  0
 21 24  1  0  0  0  0
 19 20  1  0  0  0  0
 19 21  1  0  0  0  0
M  CHG  1  15  -1
M  END
$$$$
default_name
  -OEChem-02102213163D

 24 23  0     1  0  0  0  0  0999 V2000
   -2.8347   -3.7166    0.8034 H   0  0  0  0  0  0  0  0  0  0  0  0
   -2.7728   -2.7096    0.3954 C   0  0  0  0  0  0  0  0  0  0  0  0
   -3.4267   -2.0426    0.9524 H   0  0  0  0  0  0  0  0  0  0  0  0
   -3.0538   -2.7186   -0.6556 H   0  0  0  0  0  0  0  0  0  0  0  0
   -1.3498   -2.2206    0.5184 C   0  0  0  0  0  0  0  0  0  0  0  0
   -0.4997   -2.9426    1.0194 O   0  0  0  0  0  0  0  0  0  0  0  0
   -1.1198   -0.9926    0.0674 N   0  0  0  0  0  0  0  0  0  0  0  0
   -1.8978   -0.4486   -0.2716 H   0  0  0  0  0  0  0  0  0  0  0  0
    0.1693   -0.2866    0.0854 C   0  0  1  0  0  0  0  0  0  0  0  0
    0.8425   -0.7905    0.7811 H   0  0  0  0  0  0  0  0  0  0  0  0
    0.7993   -0.3404   -1.3233 C   0  0  0  0  0  0  0  0  0  0  0  0
    0.2730    0.3643   -1.9695 H   0  0  0  0  0  0  0  0  0  0  0  0
    1.8403   -0.0167   -1.2558 H   0  0  0  0  0  0  0  0  0  0  0  0
    0.7406   -1.7208   -1.9959 C   0  0  0  0  0  0  0  0  0  0  0  0
   -0.2559   -2.0005   -2.7033 O   0  5  0  0  0  0  0  0  0  0  0  0
    1.6941   -2.4990   -1.7782 O   0  0  0  0  0  0  0  0  0  0  0  0
   -0.0374    1.1645    0.5781 C   0  0  0  0  0  0  0  0  0  0  0  0
   -0.9816    1.8416    0.1544 O   0  0  0  0  0  0  0  0  0  0  0  0
    0.8235    1.6462    1.4801 N   0  0  0  0  0  0  0  0  0  0  0  0
    1.6183    1.0435    1.7020 H   0  0  0  0  0  0  0  0  0  0  0  0
    0.7895    2.9929    2.0404 C   0  0  0  0  0  0  0  0  0  0  0  0
   -0.2344    3.2522    2.3130 H   0  0  0  0  0  0  0  0  0  0  0  0
    1.4265    3.0377    2.9233 H   0  0  0  0  0  0  0  0  0  0  0  0
    1.1511    3.7014    1.2950 H   0  0  0  0  0  0  0  0  0  0  0  0
  5  6  2  0  0  0  0
  5  7  1  0  0  0  0
  2  3  1  0  0  0  0
  2  4  1  0  0  0  0
  2  5  1  0  0  0  0
  1  2  1  0  0  0  0
 17 18  2  0  0  0  0
 17 19  1  0  0  0  0
 14 15  1  0  0  0  0
 14 16  2  0  0  0  0
 11 12  1  0  0  0  0
 11 13  1  0  0  0  0
 11 14  1  0  0  0  0
  9 10  1  0  0  0  0
  9 11  1  0  0  0  0
  9 17  1  0  0  0  0
  7  8  1  0  0  0  0
  7  9  1  0  0  0  0
 21 22  1  0  0  0  0
 21 23  1  0  0  0  0
 21 24  1  0  0  0  0
 19 20  1  0  0  0  0
 19 21  1  0  0  0  0
M  CHG  1  15  -1
M  END
$$$$
default_name
  -OEChem-02102213163D

 24 23  0     1  0  0  0  0  0999 V2000
   -2.8347   -3.7166    0.8034 H   0  0  0  0  0  0  0  0  0  0  0  0
   -2.7728   -2.7096    0.3954 C   0  0  0  0  0  0  0  0  0  0  0  0
   -3.4267   -2.0426    0.9524 H   0  0  0  0  0  0  0  0  0  0  0  0
   -3.0538   -2.7186   -0.6556 H   0  0  0  0  0  0  0  0  0  0  0  0
   -1.3498   -2.2206    0.5184 C   0  0  0  0  0  0  0  0  0  0  0  0
   -0.4997   -2.9426    1.0194 O   0  0  0  0  0  0  0  0  0  0  0  0
   -1.1198   -0.9926    0.0674 N   0  0  0  0  0  0  0  0  0  0  0  0
   -1.8978   -0.4486   -0.2716 H   0  0  0  0  0  0  0  0  0  0  0  0
    0.1693   -0.2866    0.0854 C   0  0  1  0  0  0  0  0  0  0  0  0
    0.8425   -0.7905    0.7811 H   0  0  0  0  0  0  0  0  0  0  0  0
    0.7993   -0.3404   -1.3233 C   0  0  0  0  0  0  0  0  0  0  0  0
    0.2730    0.3643   -1.9695 H   0  0  0  0  0  0  0  0  0  0  0  0
    1.8403   -0.0167   -1.2558 H   0  0  0  0  0  0  0  0  0  0  0  0
    0.7406   -1.7208   -1.9959 C   0  0  0  0  0  0  0  0  0  0  0  0
   -0.0899   -1.9035   -2.9171 O   0  5  0  0  0  0  0  0  0  0  0  0
    1.5221   -2.5957   -1.5647 O   0  0  0  0  0  0  0  0  0  0  0  0
   -0.0374    1.1645    0.5781 C   0  0  0  0  0  0  0  0  0  0  0  0
   -0.9816    1.8416    0.1544 O   0  0  0  0  0  0  0  0  0  0  0  0
    0.8235    1.6462    1.4801 N   0  0  0  0  0  0  0  0  0  0  0  0
    1.6183    1.0435    1.7020 H   0  0  0  0  0  0  0  0  0  0  0  0
    0.7895    2.9929    2.0404 C   0  0  0  0  0  0  0  0  0  0  0  0
   -0.2344    3.2522    2.3130 H   0  0  0  0  0  0  0  0  0  0  0  0
    1.4265    3.0377    2.9233 H   0  0  0  0  0  0  0  0  0  0  0  0
    1.1511    3.7014    1.2950 H   0  0  0  0  0  0  0  0  0  0  0  0
  5  6  2  0  0  0  0
  5  7  1  0  0  0  0
  2  3  1  0  0  0  0
  2  4  1  0  0  0  0
  2  5  1  0  0  0  0
  1  2  1  0  0  0  0
 17 18  2  0  0  0  0
 17 19  1  0  0  0  0
 14 15  1  0  0  0  0
 14 16  2  0  0  0  0
 11 12  1  0  0  0  0
 11 13  1  0  0  0  0
 11 14  1  0  0  0  0
  9 10  1  0  0  0  0
  9 11  1  0  0  0  0
  9 17  1  0  0  0  0
  7  8  1  0  0  0  0
  7  9  1  0  0  0  0
 21 22  1  0  0  0  0
 21 23  1  0  0  0  0
 21 24  1  0  0  0  0
 19 20  1  0  0  0  0
 19 21  1  0  0  0  0
M  CHG  1  15  -1
M  END
$$$$
default_name
  -OEChem-02102213163D

 24 23  0     1  0  0  0  0  0999 V2000
   -2.8347   -3.7166    0.8034 H   0  0  0  0  0  0  0  0  0  0  0  0
   -2.7728   -2.7096    0.3954 C   0  0  0  0  0  0  0  0  0  0  0  0
   -3.4267   -2.0426    0.9524 H   0  0  0  0  0  0  0  0  0  0  0  0
   -3.0538   -2.7186   -0.6556 H   0  0  0  0  0  0  0  0  0  0  0  0
   -1.3498   -2.2206    0.5184 C   0  0  0  0  0  0  0  0  0  0  0  0
   -0.4997   -2.9426    1.0194 O   0  0  0  0  0  0  0  0  0  0  0  0
   -1.1198   -0.9926    0.0674 N   0  0  0  0  0  0  0  0  0  0  0  0
   -1.8978   -0.4486   -0.2716 H   0  0  0  0  0  0  0  0  0  0  0  0
    0.1693   -0.2866    0.0854 C   0  0  1  0  0  0  0  0  0  0  0  0
    0.8425   -0.7905    0.7811 H   0  0  0  0  0  0  0  0  0  0  0  0
    0.7993   -0.3404   -1.3233 C   0  0  0  0  0  0  0  0  0  0  0  0
    0.2730    0.3643   -1.9695 H   0  0  0  0  0  0  0  0  0  0  0  0
    1.8403   -0.0167   -1.2558 H   0  0  0  0  0  0  0  0  0  0  0  0
    0.7406   -1.7208   -1.9959 C   0  0  0  0  0  0  0  0  0  0  0  0
    0.1311   -1.8306   -3.0859 O   0  5  0  0  0  0  0  0  0  0  0  0
    1.2953   -2.6675   -1.3974 O   0  0  0  0  0  0  0  0  0  0  0  0
   -0.0374    1.1645    0.5781 C   0  0  0  0  0  0  0  0  0  0  0  0
   -0.9816    1.8416    0.1544 O   0  0  0  0  0  0  0  0  0  0  0  0
    0.8235    1.6462    1.4801 N   0  0  0  0  0  0  0  0  0  0  0  0
    1.6183    1.0435    1.7020 H   0  0  0  0  0  0  0  0  0  0  0  0
    0.7895    2.9929    2.0404 C   0  0  0  0  0  0  0  0  0  0  0  0
   -0.2344    3.2522    2.3130 H   0  0  0  0  0  0  0  0  0  0  0  0
    1.4265    3.0377    2.9233 H   0  0  0  0  0  0  0  0  0  0  0  0
    1.1511    3.7014    1.2950 H   0  0  0  0  0  0  0  0  0  0  0  0
  5  6  2  0  0  0  0
  5  7  1  0  0  0  0
  2  3  1  0  0  0  0
  2  4  1  0  0  0  0
  2  5  1  0  0  0  0
  1  2  1  0  0  0  0
 17 18  2  0  0  0  0
 17 19  1  0  0  0  0
 14 15  1  0  0  0  0
 14 16  2  0  0  0  0
 11 12  1  0  0  0  0
 11 13  1  0  0  0  0
 11 14  1  0  0  0  0
  9 10  1  0  0  0  0
  9 11  1  0  0  0  0
  9 17  1  0  0  0  0
  7  8  1  0  0  0  0
  7  9  1  0  0  0  0
 21 22  1  0  0  0  0
 21 23  1  0  0  0  0
 21 24  1  0  0  0  0
 19 20  1  0  0  0  0
 19 21  1  0  0  0  0
M  CHG  1  15  -1
M  END
$$$$
default_name
  -OEChem-02102213163D

 24 23  0     1  0  0  0  0  0999 V2000
   -2.8347   -3.7166    0.8034 H   0  0  0  0  0  0  0  0  0  0  0  0
   -2.7728   -2.7096    0.3954 C   0  0  0  0  0  0  0  0  0  0  0  0
   -3.4267   -2.0426    0.9524 H   0  0  0  0  0  0  0  0  0  0  0  0
   -3.0538   -2.7186   -0.6556 H   0  0  0  0  0  0  0  0  0  0  0  0
   -1.3498   -2.2206    0.5184 C   0  0  0  0  0  0  0  0  0  0  0  0
   -0.4997   -2.9426    1.0194 O   0  0  0  0  0  0  0  0  0  0  0  0
   -1.1198   -0.9926    0.0674 N   0  0  0  0  0  0  0  0  0  0  0  0
   -1.8978   -0.4486   -0.2716 H   0  0  0  0  0  0  0  0  0  0  0  0
    0.1693   -0.2866    0.0854 C   0  0  1  0  0  0  0  0  0  0  0  0
    0.8425   -0.7905    0.7811 H   0  0  0  0  0  0  0  0  0  0  0  0
    0.7993   -0.3404   -1.3233 C   0  0  0  0  0  0  0  0  0  0  0  0
    0.2730    0.3643   -1.9695 H   0  0  0  0  0  0  0  0  0  0  0  0
    1.8403   -0.0167   -1.2558 H   0  0  0  0  0  0  0  0  0  0  0  0
    0.7406   -1.7208   -1.9959 C   0  0  0  0  0  0  0  0  0  0  0  0
    0.3921   -1.7870   -3.1983 O   0  5  0  0  0  0  0  0  0  0  0  0
    1.0293   -2.7095   -1.2879 O   0  0  0  0  0  0  0  0  0  0  0  0
   -0.0374    1.1645    0.5781 C   0  0  0  0  0  0  0  0  0  0  0  0
   -0.9816    1.8416    0.1544 O   0  0  0  0  0  0  0  0  0  0  0  0
    0.8235    1.6462    1.4801 N   0  0  0  0  0  0  0  0  0  0  0  0
    1.6183    1.0435    1.7020 H   0  0  0  0  0  0  0  0  0  0  0  0
    0.7895    2.9929    2.0404 C   0  0  0  0  0  0  0  0  0  0  0  0
   -0.2344    3.2522    2.3130 H   0  0  0  0  0  0  0  0  0  0  0  0
    1.4265    3.0377    2.9233 H   0  0  0  0  0  0  0  0  0  0  0  0
    1.1511    3.7014    1.2950 H   0  0  0  0  0  0  0  0  0  0  0  0
  5  6  2  0  0  0  0
  5  7  1  0  0  0  0
  2  3  1  0  0  0  0
  2  4  1  0  0  0  0
  2  5  1  0  0  0  0
  1  2  1  0  0  0  0
 17 18  2  0  0  0  0
 17 19  1  0  0  0  0
 14 15  1  0  0  0  0
 14 16  2  0  0  0  0
 11 12  1  0  0  0  0
 11 13  1  0  0  0  0
 11 14  1  0  0  0  0
  9 10  1  0  0  0  0
  9 11  1  0  0  0  0
  9 17  1  0  0  0  0
  7  8  1  0  0  0  0
  7  9  1  0  0  0  0
 21 22  1  0  0  0  0
 21 23  1  0  0  0  0
 21 24  1  0  0  0  0
 19 20  1  0  0  0  0
 19 21  1  0  0  0  0
M  CHG  1  15  -1
M  END
$$$$
default_name
  -OEChem-02102213163D

 24 23  0     1  0  0  0  0  0999 V2000
   -2.8347   -3.7166    0.8034 H   0  0  0  0  0  0  0  0  0  0  0  0
   -2.7728   -2.7096    0.3954 C   0  0  0  0  0  0  0  0  0  0  0  0
   -3.4267   -2.0426    0.9524 H   0  0  0  0  0  0  0  0  0  0  0  0
   -3.0538   -2.7186   -0.6556 H   0  0  0  0  0  0  0  0  0  0  0  0
   -1.3498   -2.2206    0.5184 C   0  0  0  0  0  0  0  0  0  0  0  0
   -0.4997   -2.9426    1.0194 O   0  0  0  0  0  0  0  0  0  0  0  0
   -1.1198   -0.9926    0.0674 N   0  0  0  0  0  0  0  0  0  0  0  0
   -1.8978   -0.4486   -0.2716 H   0  0  0  0  0  0  0  0  0  0  0  0
    0.1693   -0.2866    0.0854 C   0  0  1  0  0  0  0  0  0  0  0  0
    0.8425   -0.7905    0.7811 H   0  0  0  0  0  0  0  0  0  0  0  0
    0.7993   -0.3404   -1.3233 C   0  0  0  0  0  0  0  0  0  0  0  0
    0.2730    0.3643   -1.9695 H   0  0  0  0  0  0  0  0  0  0  0  0
    1.8403   -0.0167   -1.2558 H   0  0  0  0  0  0  0  0  0  0  0  0
    0.7406   -1.7208   -1.9959 C   0  0  0  0  0  0  0  0  0  0  0  0
    0.6752   -1.7755   -3.2466 O   0  5  0  0  0  0  0  0  0  0  0  0
    0.7421   -2.7189   -1.2436 O   0  0  0  0  0  0  0  0  0  0  0  0
   -0.0374    1.1645    0.5781 C   0  0  0  0  0  0  0  0  0  0  0  0
   -0.9816    1.8416    0.1544 O   0  0  0  0  0  0  0  0  0  0  0  0
    0.8235    1.6462    1.4801 N   0  0  0  0  0  0  0  0  0  0  0  0
    1.6183    1.0435    1.7020 H   0  0  0  0  0  0  0  0  0  0  0  0
    0.7895    2.9929    2.0404 C   0  0  0  0  0  0  0  0  0  0  0  0
   -0.2344    3.2522    2.3130 H   0  0  0  0  0  0  0  0  0  0  0  0
    1.4265    3.0377    2.9233 H   0  0  0  0  0  0  0  0  0  0  0  0
    1.1511    3.7014    1.2950 H   0  0  0  0  0  0  0  0  0  0  0  0
  5  6  2  0  0  0  0
  5  7  1  0  0  0  0
  2  3  1  0  0  0  0
  2  4  1  0  0  0  0
  2  5  1  0  0  0  0
  1  2  1  0  0  0  0
 17 18  2  0  0  0  0
 17 19  1  0  0  0  0
 14 15  1  0  0  0  0
 14 16  2  0  0  0  0
 11 12  1  0  0  0  0
 11 13  1  0  0  0  0
 11 14  1  0  0  0  0
  9 10  1  0  0  0  0
  9 11  1  0  0  0  0
  9 17  1  0  0  0  0
  7  8  1  0  0  0  0
  7  9  1  0  0  0  0
 21 22  1  0  0  0  0
 21 23  1  0  0  0  0
 21 24  1  0  0  0  0
 19 20  1  0  0  0  0
 19 21  1  0  0  0  0
M  CHG  1  15  -1
M  END
$$$$
default_name
  -OEChem-02102213163D

 24 23  0     1  0  0  0  0  0999 V2000
   -2.8347   -3.7166    0.8034 H   0  0  0  0  0  0  0  0  0  0  0  0
   -2.7728   -2.7096    0.3954 C   0  0  0  0  0  0  0  0  0  0  0  0
   -3.4267   -2.0426    0.9524 H   0  0  0  0  0  0  0  0  0  0  0  0
   -3.0538   -2.7186   -0.6556 H   0  0  0  0  0  0  0  0  0  0  0  0
   -1.3498   -2.2206    0.5184 C   0  0  0  0  0  0  0  0  0  0  0  0
   -0.4997   -2.9426    1.0194 O   0  0  0  0  0  0  0  0  0  0  0  0
   -1.1198   -0.9926    0.0674 N   0  0  0  0  0  0  0  0  0  0  0  0
   -1.8978   -0.4486   -0.2716 H   0  0  0  0  0  0  0  0  0  0  0  0
    0.1693   -0.2866    0.0854 C   0  0  1  0  0  0  0  0  0  0  0  0
    0.8425   -0.7905    0.7811 H   0  0  0  0  0  0  0  0  0  0  0  0
    0.7993   -0.3404   -1.3233 C   0  0  0  0  0  0  0  0  0  0  0  0
    0.2730    0.3643   -1.9695 H   0  0  0  0  0  0  0  0  0  0  0  0
    1.8403   -0.0167   -1.2558 H   0  0  0  0  0  0  0  0  0  0  0  0
    0.7406   -1.7208   -1.9959 C   0  0  0  0  0  0  0  0  0  0  0  0
    0.9613   -1.7969   -3.2276 O   0  5  0  0  0  0  0  0  0  0  0  0
    0.4534   -2.6950   -1.2674 O   0  0  0  0  0  0  0  0  0  0  0  0
   -0.0374    1.1645    0.5781 C   0  0  0  0  0  0  0  0  0  0  0  0
   -0.9816    1.8416    0.1544 O   0  0  0  0  0  0  0  0  0  0  0  0
    0.8235    1.6462    1.4801 N   0  0  0  0  0  0  0  0  0  0  0  0
    1.6183    1.0435    1.7020 H   0  0  0  0  0  0  0  0  0  0  0  0
    0.7895    2.9929    2.0404 C   0  0  0  0  0  0  0  0  0  0  0  0
   -0.2344    3.2522    2.3130 H   0  0  0  0  0  0  0  0  0  0  0  0
    1.4265    3.0377    2.9233 H   0  0  0  0  0  0  0  0  0  0  0  0
    1.1511    3.7014    1.2950 H   0  0  0  0  0  0  0  0  0  0  0  0
  5  6  2  0  0  0  0
  5  7  1  0  0  0  0
  2  3  1  0  0  0  0
  2  4  1  0  0  0  0
  2  5  1  0  0  0  0
  1  2  1  0  0  0  0
 17 18  2  0  0  0  0
 17 19  1  0  0  0  0
 14 15  1  0  0  0  0
 14 16  2  0  0  0  0
 11 12  1  0  0  0  0
 11 13  1  0  0  0  0
 11 14  1  0  0  0  0
  9 10  1  0  0  0  0
  9 11  1  0  0  0  0
  9 17  1  0  0  0  0
  7  8  1  0  0  0  0
  7  9  1  0  0  0  0
 21 22  1  0  0  0  0
 21 23  1  0  0  0  0
 21 24  1  0  0  0  0
 19 20  1  0  0  0  0
 19 21  1  0  0  0  0
M  CHG  1  15  -1
M  END
$$$$
default_name
  -OEChem-02102213163D

 24 23  0     1  0  0  0  0  0999 V2000
   -2.8347   -3.7166    0.8034 H   0  0  0  0  0  0  0  0  0  0  0  0
   -2.7728   -2.7096    0.3954 C   0  0  0  0  0  0  0  0  0  0  0  0
   -3.4267   -2.0426    0.9524 H   0  0  0  0  0  0  0  0  0  0  0  0
   -3.0538   -2.7186   -0.6556 H   0  0  0  0  0  0  0  0  0  0  0  0
   -1.3498   -2.2206    0.5184 C   0  0  0  0  0  0  0  0  0  0  0  0
   -0.4997   -2.9426    1.0194 O   0  0  0  0  0  0  0  0  0  0  0  0
   -1.1198   -0.9926    0.0674 N   0  0  0  0  0  0  0  0  0  0  0  0
   -1.8978   -0.4486   -0.2716 H   0  0  0  0  0  0  0  0  0  0  0  0
    0.1693   -0.2866    0.0854 C   0  0  1  0  0  0  0  0  0  0  0  0
    0.8425   -0.7905    0.7811 H   0  0  0  0  0  0  0  0  0  0  0  0
    0.7993   -0.3404   -1.3233 C   0  0  0  0  0  0  0  0  0  0  0  0
    0.4680    0.5324   -1.8887 H   0  0  0  0  0  0  0  0  0  0  0  0
    1.8855   -0.2810   -1.2254 H   0  0  0  0  0  0  0  0  0  0  0  0
    0.4315   -1.5896   -2.1391 C   0  0  0  0  0  0  0  0  0  0  0  0
    0.9023   -1.7104   -3.2947 O   0  5  0  0  0  0  0  0  0  0  0  0
   -0.3408   -2.4117   -1.6007 O   0  0  0  0  0  0  0  0  0  0  0  0
   -0.0374    1.1645    0.5781 C   0  0  0  0  0  0  0  0  0  0  0  0
   -0.9816    1.8416    0.1544 O   0  0  0  0  0  0  0  0  0  0  0  0
    0.8235    1.6462    1.4801 N   0  0  0  0  0  0  0  0  0  0  0  0
    1.6183    1.0435    1.7020 H   0  0  0  0  0  0  0  0  0  0  0  0
    0.7895    2.9929    2.0404 C   0  0  0  0  0  0  0  0  0  0  0  0
   -0.2344    3.2522    2.3130 H   0  0  0  0  0  0  0  0  0  0  0  0
    1.4265    3.0377    2.9233 H   0  0  0  0  0  0  0  0  0  0  0  0
    1.1511    3.7014    1.2950 H   0  0  0  0  0  0  0  0  0  0  0  0
  5  6  2  0  0  0  0
  5  7  1  0  0  0  0
  2  3  1  0  0  0  0
  2  4  1  0  0  0  0
  2  5  1  0  0  0  0
  1  2  1  0  0  0  0
 17 18  2  0  0  0  0
 17 19  1  0  0  0  0
 14 15  1  0  0  0  0
 14 16  2  0  0  0  0
 11 12  1  0  0  0  0
 11 13  1  0  0  0  0
 11 14  1  0  0  0  0
  9 10  1  0  0  0  0
  9 11  1  0  0  0  0
  9 17  1  0  0  0  0
  7  8  1  0  0  0  0
  7  9  1  0  0  0  0
 21 22  1  0  0  0  0
 21 23  1  0  0  0  0
 21 24  1  0  0  0  0
 19 20  1  0  0  0  0
 19 21  1  0  0  0  0
M  CHG  1  15  -1
M  END
$$$$
default_name
  -OEChem-02102213163D

 24 23  0     1  0  0  0  0  0999 V2000
   -2.8347   -3.7166    0.8034 H   0  0  0  0  0  0  0  0  0  0  0  0
   -2.7728   -2.7096    0.3954 C   0  0  0  0  0  0  0  0  0  0  0  0
   -3.4267   -2.0426    0.9524 H   0  0  0  0  0  0  0  0  0  0  0  0
   -3.0538   -2.7186   -0.6556 H   0  0  0  0  0  0  0  0  0  0  0  0
   -1.3498   -2.2206    0.5184 C   0  0  0  0  0  0  0  0  0  0  0  0
   -0.4997   -2.9426    1.0194 O   0  0  0  0  0  0  0  0  0  0  0  0
   -1.1198   -0.9926    0.0674 N   0  0  0  0  0  0  0  0  0  0  0  0
   -1.8978   -0.4486   -0.2716 H   0  0  0  0  0  0  0  0  0  0  0  0
    0.1693   -0.2866    0.0854 C   0  0  1  0  0  0  0  0  0  0  0  0
    0.8425   -0.7905    0.7811 H   0  0  0  0  0  0  0  0  0  0  0  0
    0.7993   -0.3404   -1.3233 C   0  0  0  0  0  0  0  0  0  0  0  0
    0.4680    0.5324   -1.8887 H   0  0  0  0  0  0  0  0  0  0  0  0
    1.8855   -0.2810   -1.2254 H   0  0  0  0  0  0  0  0  0  0  0  0
    0.4315   -1.5896   -2.1391 C   0  0  0  0  0  0  0  0  0  0  0  0
    1.1079   -1.8592   -3.1596 O   0  5  0  0  0  0  0  0  0  0  0  0
   -0.5453   -2.2599   -1.7409 O   0  0  0  0  0  0  0  0  0  0  0  0
   -0.0374    1.1645    0.5781 C   0  0  0  0  0  0  0  0  0  0  0  0
   -0.9816    1.8416    0.1544 O   0  0  0  0  0  0  0  0  0  0  0  0
    0.8235    1.6462    1.4801 N   0  0  0  0  0  0  0  0  0  0  0  0
    1.6183    1.0435    1.7020 H   0  0  0  0  0  0  0  0  0  0  0  0
    0.7895    2.9929    2.0404 C   0  0  0  0  0  0  0  0  0  0  0  0
   -0.2344    3.2522    2.3130 H   0  0  0  0  0  0  0  0  0  0  0  0
    1.4265    3.0377    2.9233 H   0  0  0  0  0  0  0  0  0  0  0  0
    1.1511    3.7014    1.2950 H   0  0  0  0  0  0  0  0  0  0  0  0
  5  6  2  0  0  0  0
  5  7  1  0  0  0  0
  2  3  1  0  0  0  0
  2  4  1  0  0  0  0
  2  5  1  0  0  0  0
  1  2  1  0  0  0  0
 17 18  2  0  0  0  0
 17 19  1  0  0  0  0
 14 15  1  0  0  0  0
 14 16  2  0  0  0  0
 11 12  1  0  0  0  0
 11 13  1  0  0  0  0
 11 14  1  0  0  0  0
  9 10  1  0  0  0  0
  9 11  1  0  0  0  0
  9 17  1  0  0  0  0
  7  8  1  0  0  0  0
  7  9  1  0  0  0  0
 21 22  1  0  0  0  0
 21 23  1  0  0  0  0
 21 24  1  0  0  0  0
 19 20  1  0  0  0  0
 19 21  1  0  0  0  0
M  CHG  1  15  -1
M  END
$$$$
default_name
  -OEChem-02102213163D

 24 23  0     1  0  0  0  0  0999 V2000
   -2.8347   -3.7166    0.8034 H   0  0  0  0  0  0  0  0  0  0  0  0
   -2.7728   -2.7096    0.3954 C   0  0  0  0  0  0  0  0  0  0  0  0
   -3.4267   -2.0426    0.9524 H   0  0  0  0  0  0  0  0  0  0  0  0
   -3.0538   -2.7186   -0.6556 H   0  0  0  0  0  0  0  0  0  0  0  0
   -1.3498   -2.2206    0.5184 C   0  0  0  0  0  0  0  0  0  0  0  0
   -0.4997   -2.9426    1.0194 O   0  0  0  0  0  0  0  0  0  0  0  0
   -1.1198   -0.9926    0.0674 N   0  0  0  0  0  0  0  0  0  0  0  0
   -1.8978   -0.4486   -0.2716 H   0  0  0  0  0  0  0  0  0  0  0  0
    0.1693   -0.2866    0.0854 C   0  0  1  0  0  0  0  0  0  0  0  0
    0.8425   -0.7905    0.7811 H   0  0  0  0  0  0  0  0  0  0  0  0
    0.7993   -0.3404   -1.3233 C   0  0  0  0  0  0  0  0  0  0  0  0
    0.4680    0.5324   -1.8887 H   0  0  0  0  0  0  0  0  0  0  0  0
    1.8855   -0.2810   -1.2254 H   0  0  0  0  0  0  0  0  0  0  0  0
    0.4315   -1.5896   -2.1391 C   0  0  0  0  0  0  0  0  0  0  0  0
    1.2576   -2.0227   -2.9767 O   0  5  0  0  0  0  0  0  0  0  0  0
   -0.6926   -2.0939   -1.9287 O   0  0  0  0  0  0  0  0  0  0  0  0
   -0.0374    1.1645    0.5781 C   0  0  0  0  0  0  0  0  0  0  0  0
   -0.9816    1.8416    0.1544 O   0  0  0  0  0  0  0  0  0  0  0  0
    0.8235    1.6462    1.4801 N   0  0  0  0  0  0  0  0  0  0  0  0
    1.6183    1.0435    1.7020 H   0  0  0  0  0  0  0  0  0  0  0  0
    0.7895    2.9929    2.0404 C   0  0  0  0  0  0  0  0  0  0  0  0
   -0.2344    3.2522    2.3130 H   0  0  0  0  0  0  0  0  0  0  0  0
    1.4265    3.0377    2.9233 H   0  0  0  0  0  0  0  0  0  0  0  0
    1.1511    3.7014    1.2950 H   0  0  0  0  0  0  0  0  0  0  0  0
  5  6  2  0  0  0  0
  5  7  1  0  0  0  0
  2  3  1  0  0  0  0
  2  4  1  0  0  0  0
  2  5  1  0  0  0  0
  1  2  1  0  0  0  0
 17 18  2  0  0  0  0
 17 19  1  0  0  0  0
 14 15  1  0  0  0  0
 14 16  2  0  0  0  0
 11 12  1  0  0  0  0
 11 13  1  0  0  0  0
 11 14  1  0  0  0  0
  9 10  1  0  0  0  0
  9 11  1  0  0  0  0
  9 17  1  0  0  0  0
  7  8  1  0  0  0  0
  7  9  1  0  0  0  0
 21 22  1  0  0  0  0
 21 23  1  0  0  0  0
 21 24  1  0  0  0  0
 19 20  1  0  0  0  0
 19 21  1  0  0  0  0
M  CHG  1  15  -1
M  END
$$$$
default_name
  -OEChem-02102213163D

 24 23  0     1  0  0  0  0  0999 V2000
   -2.8347   -3.7166    0.8034 H   0  0  0  0  0  0  0  0  0  0  0  0
   -2.7728   -2.7096    0.3954 C   0  0  0  0  0  0  0  0  0  0  0  0
   -3.4267   -2.0426    0.9524 H   0  0  0  0  0  0  0  0  0  0  0  0
   -3.0538   -2.7186   -0.6556 H   0  0  0  0  0  0  0  0  0  0  0  0
   -1.3498   -2.2206    0.5184 C   0  0  0  0  0  0  0  0  0  0  0  0
   -0.4997   -2.9426    1.0194 O   0  0  0  0  0  0  0  0  0  0  0  0
   -1.1198   -0.9926    0.0674 N   0  0  0  0  0  0  0  0  0  0  0  0
   -1.8978   -0.4486   -0.2716 H   0  0  0  0  0  0  0  0  0  0  0  0
    0.1693   -0.2866    0.0854 C   0  0  1  0  0  0  0  0  0  0  0  0
    0.8425   -0.7905    0.7811 H   0  0  0  0  0  0  0  0  0  0  0  0
    0.7993   -0.3404   -1.3233 C   0  0  0  0  0  0  0  0  0  0  0  0
    0.4680    0.5324   -1.8887 H   0  0  0  0  0  0  0  0  0  0  0  0
    1.8855   -0.2810   -1.2254 H   0  0  0  0  0  0  0  0  0  0  0  0
    0.4315   -1.5896   -2.1391 C   0  0  0  0  0  0  0  0  0  0  0  0
    1.3413   -2.1900   -2.7583 O   0  5  0  0  0  0  0  0  0  0  0  0
   -0.7724   -1.9249   -2.1514 O   0  0  0  0  0  0  0  0  0  0  0  0
   -0.0374    1.1645    0.5781 C   0  0  0  0  0  0  0  0  0  0  0  0
   -0.9816    1.8416    0.1544 O   0  0  0  0  0  0  0  0  0  0  0  0
    0.8235    1.6462    1.4801 N   0  0  0  0  0  0  0  0  0  0  0  0
    1.6183    1.0435    1.7020 H   0  0  0  0  0  0  0  0  0  0  0  0
    0.7895    2.9929    2.0404 C   0  0  0  0  0  0  0  0  0  0  0  0
   -0.2344    3.2522    2.3130 H   0  0  0  0  0  0  0  0  0  0  0  0
    1.4265    3.0377    2.9233 H   0  0  0  0  0  0  0  0  0  0  0  0
    1.1511    3.7014    1.2950 H   0  0  0  0  0  0  0  0  0  0  0  0
  5  6  2  0  0  0  0
  5  7  1  0  0  0  0
  2  3  1  0  0  0  0
  2  4  1  0  0  0  0
  2  5  1  0  0  0  0
  1  2  1  0  0  0  0
 17 18  2  0  0  0  0
 17 19  1  0  0  0  0
 14 15  1  0  0  0  0
 14 16  2  0  0  0  0
 11 12  1  0  0  0  0
 11 13  1  0  0  0  0
 11 14  1  0  0  0  0
  9 10  1  0  0  0  0
  9 11  1  0  0  0  0
  9 17  1  0  0  0  0
  7  8  1  0  0  0  0
  7  9  1  0  0  0  0
 21 22  1  0  0  0  0
 21 23  1  0  0  0  0
 21 24  1  0  0  0  0
 19 20  1  0  0  0  0
 19 21  1  0  0  0  0
M  CHG  1  15  -1
M  END
$$$$
default_name
  -OEChem-02102213163D

 24 23  0     1  0  0  0  0  0999 V2000
   -2.8347   -3.7166    0.8034 H   0  0  0  0  0  0  0  0  0  0  0  0
   -2.7728   -2.7096    0.3954 C   0  0  0  0  0  0  0  0  0  0  0  0
   -3.4267   -2.0426    0.9524 H   0  0  0  0  0  0  0  0  0  0  0  0
   -3.0538   -2.7186   -0.6556 H   0  0  0  0  0  0  0  0  0  0  0  0
   -1.3498   -2.2206    0.5184 C   0  0  0  0  0  0  0  0  0  0  0  0
   -0.4997   -2.9426    1.0194 O   0  0  0  0  0  0  0  0  0  0  0  0
   -1.1198   -0.9926    0.0674 N   0  0  0  0  0  0  0  0  0  0  0  0
   -1.8978   -0.4486   -0.2716 H   0  0  0  0  0  0  0  0  0  0  0  0
    0.1693   -0.2866    0.0854 C   0  0  1  0  0  0  0  0  0  0  0  0
    0.8425   -0.7905    0.7811 H   0  0  0  0  0  0  0  0  0  0  0  0
    0.7993   -0.3404   -1.3233 C   0  0  0  0  0  0  0  0  0  0  0  0
    0.4680    0.5324   -1.8887 H   0  0  0  0  0  0  0  0  0  0  0  0
    1.8855   -0.2810   -1.2254 H   0  0  0  0  0  0  0  0  0  0  0  0
    0.4315   -1.5896   -2.1391 C   0  0  0  0  0  0  0  0  0  0  0  0
    1.3532   -2.3495   -2.5195 O   0  5  0  0  0  0  0  0  0  0  0  0
   -0.7795   -1.7646   -2.3938 O   0  0  0  0  0  0  0  0  0  0  0  0
   -0.0374    1.1645    0.5781 C   0  0  0  0  0  0  0  0  0  0  0  0
   -0.9816    1.8416    0.1544 O   0  0  0  0  0  0  0  0  0  0  0  0
    0.8235    1.6462    1.4801 N   0  0  0  0  0  0  0  0  0  0  0  0
    1.6183    1.0435    1.7020 H   0  0  0  0  0  0  0  0  0  0  0  0
    0.7895    2.9929    2.0404 C   0  0  0  0  0  0  0  0  0  0  0  0
   -0.2344    3.2522    2.3130 H   0  0  0  0  0  0  0  0  0  0  0  0
    1.4265    3.0377    2.9233 H   0  0  0  0  0  0  0  0  0  0  0  0
    1.1511    3.7014    1.2950 H   0  0  0  0  0  0  0  0  0  0  0  0
  5  6  2  0  0  0  0
  5  7  1  0  0  0  0
  2  3  1  0  0  0  0
  2  4  1  0  0  0  0
  2  5  1  0  0  0  0
  1  2  1  0  0  0  0
 17 18  2  0  0  0  0
 17 19  1  0  0  0  0
 14 15  1  0  0  0  0
 14 16  2  0  0  0  0
 11 12  1  0  0  0  0
 11 13  1  0  0  0  0
 11 14  1  0  0  0  0
  9 10  1  0  0  0  0
  9 11  1  0  0  0  0
  9 17  1  0  0  0  0
  7  8  1  0  0  0  0
  7  9  1  0  0  0  0
 21 22  1  0  0  0  0
 21 23  1  0  0  0  0
 21 24  1  0  0  0  0
 19 20  1  0  0  0  0
 19 21  1  0  0  0  0
M  CHG  1  15  -1
M  END
$$$$
default_name
  -OEChem-02102213163D

 24 23  0     1  0  0  0  0  0999 V2000
   -2.8347   -3.7166    0.8034 H   0  0  0  0  0  0  0  0  0  0  0  0
   -2.7728   -2.7096    0.3954 C   0  0  0  0  0  0  0  0  0  0  0  0
   -3.4267   -2.0426    0.9524 H   0  0  0  0  0  0  0  0  0  0  0  0
   -3.0538   -2.7186   -0.6556 H   0  0  0  0  0  0  0  0  0  0  0  0
   -1.3498   -2.2206    0.5184 C   0  0  0  0  0  0  0  0  0  0  0  0
   -0.4997   -2.9426    1.0194 O   0  0  0  0  0  0  0  0  0  0  0  0
   -1.1198   -0.9926    0.0674 N   0  0  0  0  0  0  0  0  0  0  0  0
   -1.8978   -0.4486   -0.2716 H   0  0  0  0  0  0  0  0  0  0  0  0
    0.1693   -0.2866    0.0854 C   0  0  1  0  0  0  0  0  0  0  0  0
    0.8425   -0.7905    0.7811 H   0  0  0  0  0  0  0  0  0  0  0  0
    0.7993   -0.3404   -1.3233 C   0  0  0  0  0  0  0  0  0  0  0  0
    0.4680    0.5324   -1.8887 H   0  0  0  0  0  0  0  0  0  0  0  0
    1.8855   -0.2810   -1.2254 H   0  0  0  0  0  0  0  0  0  0  0  0
    0.4315   -1.5896   -2.1391 C   0  0  0  0  0  0  0  0  0  0  0  0
    1.2926   -2.4904   -2.2763 O   0  5  0  0  0  0  0  0  0  0  0  0
   -0.7133   -1.6237   -2.6394 O   0  0  0  0  0  0  0  0  0  0  0  0
   -0.0374    1.1645    0.5781 C   0  0  0  0  0  0  0  0  0  0  0  0
   -0.9816    1.8416    0.1544 O   0  0  0  0  0  0  0  0  0  0  0  0
    0.8235    1.6462    1.4801 N   0  0  0  0  0  0  0  0  0  0  0  0
    1.6183    1.0435    1.7020 H   0  0  0  0  0  0  0  0  0  0  0  0
    0.7895    2.9929    2.0404 C   0  0  0  0  0  0  0  0  0  0  0  0
   -0.2344    3.2522    2.3130 H   0  0  0  0  0  0  0  0  0  0  0  0
    1.4265    3.0377    2.9233 H   0  0  0  0  0  0  0  0  0  0  0  0
    1.1511    3.7014    1.2950 H   0  0  0  0  0  0  0  0  0  0  0  0
  5  6  2  0  0  0  0
  5  7  1  0  0  0  0
  2  3  1  0  0  0  0
  2  4  1  0  0  0  0
  2  5  1  0  0  0  0
  1  2  1  0  0  0  0
 17 18  2  0  0  0  0
 17 19  1  0  0  0  0
 14 15  1  0  0  0  0
 14 16  2  0  0  0  0
 11 12  1  0  0  0  0
 11 13  1  0  0  0  0
 11 14  1  0  0  0  0
  9 10  1  0  0  0  0
  9 11  1  0  0  0  0
  9 17  1  0  0  0  0
  7  8  1  0  0  0  0
  7  9  1  0  0  0  0
 21 22  1  0  0  0  0
 21 23  1  0  0  0  0
 21 24  1  0  0  0  0
 19 20  1  0  0  0  0
 19 21  1  0  0  0  0
M  CHG  1  15  -1
M  END
$$$$
default_name
  -OEChem-02102213163D

 24 23  0     1  0  0  0  0  0999 V2000
   -2.8347   -3.7166    0.8034 H   0  0  0  0  0  0  0  0  0  0  0  0
   -2.7728   -2.7096    0.3954 C   0  0  0  0  0  0  0  0  0  0  0  0
   -3.4267   -2.0426    0.9524 H   0  0  0  0  0  0  0  0  0  0  0  0
   -3.0538   -2.7186   -0.6556 H   0  0  0  0  0  0  0  0  0  0  0  0
   -1.3498   -2.2206    0.5184 C   0  0  0  0  0  0  0  0  0  0  0  0
   -0.4997   -2.9426    1.0194 O   0  0  0  0  0  0  0  0  0  0  0  0
   -1.1198   -0.9926    0.0674 N   0  0  0  0  0  0  0  0  0  0  0  0
   -1.8978   -0.4486   -0.2716 H   0  0  0  0  0  0  0  0  0  0  0  0
    0.1693   -0.2866    0.0854 C   0  0  1  0  0  0  0  0  0  0  0  0
    0.8425   -0.7905    0.7811 H   0  0  0  0  0  0  0  0  0  0  0  0
    0.7993   -0.3404   -1.3233 C   0  0  0  0  0  0  0  0  0  0  0  0
    0.4680    0.5324   -1.8887 H   0  0  0  0  0  0  0  0  0  0  0  0
    1.8855   -0.2810   -1.2254 H   0  0  0  0  0  0  0  0  0  0  0  0
    0.4315   -1.5896   -2.1391 C   0  0  0  0  0  0  0  0  0  0  0  0
    1.1635   -2.6031   -2.0455 O   0  5  0  0  0  0  0  0  0  0  0  0
   -0.5784   -1.5119   -2.8714 O   0  0  0  0  0  0  0  0  0  0  0  0
   -0.0374    1.1645    0.5781 C   0  0  0  0  0  0  0  0  0  0  0  0
   -0.9816    1.8416    0.1544 O   0  0  0  0  0  0  0  0  0  0  0  0
    0.8235    1.6462    1.4801 N   0  0  0  0  0  0  0  0  0  0  0  0
    1.6183    1.0435    1.7020 H   0  0  0  0  0  0  0  0  0  0  0  0
    0.7895    2.9929    2.0404 C   0  0  0  0  0  0  0  0  0  0  0  0
   -0.2344    3.2522    2.3130 H   0  0  0  0  0  0  0  0  0  0  0  0
    1.4265    3.0377    2.9233 H   0  0  0  0  0  0  0  0  0  0  0  0
    1.1511    3.7014    1.2950 H   0  0  0  0  0  0  0  0  0  0  0  0
  5  6  2  0  0  0  0
  5  7  1  0  0  0  0
  2  3  1  0  0  0  0
  2  4  1  0  0  0  0
  2  5  1  0  0  0  0
  1  2  1  0  0  0  0
 17 18  2  0  0  0  0
 17 19  1  0  0  0  0
 14 15  1  0  0  0  0
 14 16  2  0  0  0  0
 11 12  1  0  0  0  0
 11 13  1  0  0  0  0
 11 14  1  0  0  0  0
  9 10  1  0  0  0  0
  9 11  1  0  0  0  0
  9 17  1  0  0  0  0
  7  8  1  0  0  0  0
  7  9  1  0  0  0  0
 21 22  1  0  0  0  0
 21 23  1  0  0  0  0
 21 24  1  0  0  0  0
 19 20  1  0  0  0  0
 19 21  1  0  0  0  0
M  CHG  1  15  -1
M  END
$$$$
default_name
  -OEChem-02102213163D

 24 23  0     1  0  0  0  0  0999 V2000
   -2.8347   -3.7166    0.8034 H   0  0  0  0  0  0  0  0  0  0  0  0
   -2.7728   -2.7096    0.3954 C   0  0  0  0  0  0  0  0  0  0  0  0
   -3.4267   -2.0426    0.9524 H   0  0  0  0  0  0  0  0  0  0  0  0
   -3.0538   -2.7186   -0.6556 H   0  0  0  0  0  0  0  0  0  0  0  0
   -1.3498   -2.2206    0.5184 C   0  0  0  0  0  0  0  0  0  0  0  0
   -0.4997   -2.9426    1.0194 O   0  0  0  0  0  0  0  0  0  0  0  0
   -1.1198   -0.9926    0.0674 N   0  0  0  0  0  0  0  0  0  0  0  0
   -1.8978   -0.4486   -0.2716 H   0  0  0  0  0  0  0  0  0  0  0  0
    0.1693   -0.2866    0.0854 C   0  0  1  0  0  0  0  0  0  0  0  0
    0.8425   -0.7905    0.7811 H   0  0  0  0  0  0  0  0  0  0  0  0
    0.7993   -0.3404   -1.3233 C   0  0  0  0  0  0  0  0  0  0  0  0
    0.4680    0.5324   -1.8887 H   0  0  0  0  0  0  0  0  0  0  0  0
    1.8855   -0.2810   -1.2254 H   0  0  0  0  0  0  0  0  0  0  0  0
    0.4315   -1.5896   -2.1391 C   0  0  0  0  0  0  0  0  0  0  0  0
    0.9747   -2.6799   -1.8428 O   0  5  0  0  0  0  0  0  0  0  0  0
   -0.3838   -1.4369   -3.0740 O   0  0  0  0  0  0  0  0  0  0  0  0
   -0.0374    1.1645    0.5781 C   0  0  0  0  0  0  0  0  0  0  0  0
   -0.9816    1.8416    0.1544 O   0  0  0  0  0  0  0  0  0  0  0  0
    0.8235    1.6462    1.4801 N   0  0  0  0  0  0  0  0  0  0  0  0
    1.6183    1.0435    1.7020 H   0  0  0  0  0  0  0  0  0  0  0  0
    0.7895    2.9929    2.0404 C   0  0  0  0  0  0  0  0  0  0  0  0
   -0.2344    3.2522    2.3130 H   0  0  0  0  0  0  0  0  0  0  0  0
    1.4265    3.0377    2.9233 H   0  0  0  0  0  0  0  0  0  0  0  0
    1.1511    3.7014    1.2950 H   0  0  0  0  0  0  0  0  0  0  0  0
  5  6  2  0  0  0  0
  5  7  1  0  0  0  0
  2  3  1  0  0  0  0
  2  4  1  0  0  0  0
  2  5  1  0  0  0  0
  1  2  1  0  0  0  0
 17 18  2  0  0  0  0
 17 19  1  0  0  0  0
 14 15  1  0  0  0  0
 14 16  2  0  0  0  0
 11 12  1  0  0  0  0
 11 13  1  0  0  0  0
 11 14  1  0  0  0  0
  9 10  1  0  0  0  0
  9 11  1  0  0  0  0
  9 17  1  0  0  0  0
  7  8  1  0  0  0  0
  7  9  1  0  0  0  0
 21 22  1  0  0  0  0
 21 23  1  0  0  0  0
 21 24  1  0  0  0  0
 19 20  1  0  0  0  0
 19 21  1  0  0  0  0
M  CHG  1  15  -1
M  END
$$$$
default_name
  -OEChem-02102213163D

 24 23  0     1  0  0  0  0  0999 V2000
   -2.8347   -3.7166    0.8034 H   0  0  0  0  0  0  0  0  0  0  0  0
   -2.7728   -2.7096    0.3954 C   0  0  0  0  0  0  0  0  0  0  0  0
   -3.4267   -2.0426    0.9524 H   0  0  0  0  0  0  0  0  0  0  0  0
   -3.0538   -2.7186   -0.6556 H   0  0  0  0  0  0  0  0  0  0  0  0
   -1.3498   -2.2206    0.5184 C   0  0  0  0  0  0  0  0  0  0  0  0
   -0.4997   -2.9426    1.0194 O   0  0  0  0  0  0  0  0  0  0  0  0
   -1.1198   -0.9926    0.0674 N   0  0  0  0  0  0  0  0  0  0  0  0
   -1.8978   -0.4486   -0.2716 H   0  0  0  0  0  0  0  0  0  0  0  0
    0.1693   -0.2866    0.0854 C   0  0  1  0  0  0  0  0  0  0  0  0
    0.8425   -0.7905    0.7811 H   0  0  0  0  0  0  0  0  0  0  0  0
    0.7993   -0.3404   -1.3233 C   0  0  0  0  0  0  0  0  0  0  0  0
    0.4680    0.5324   -1.8887 H   0  0  0  0  0  0  0  0  0  0  0  0
    1.8855   -0.2810   -1.2254 H   0  0  0  0  0  0  0  0  0  0  0  0
    0.4315   -1.5896   -2.1391 C   0  0  0  0  0  0  0  0  0  0  0  0
    0.7391   -2.7157   -1.6819 O   0  5  0  0  0  0  0  0  0  0  0  0
   -0.1430   -1.4037   -3.2334 O   0  0  0  0  0  0  0  0  0  0  0  0
   -0.0374    1.1645    0.5781 C   0  0  0  0  0  0  0  0  0  0  0  0
   -0.9816    1.8416    0.1544 O   0  0  0  0  0  0  0  0  0  0  0  0
    0.8235    1.6462    1.4801 N   0  0  0  0  0  0  0  0  0  0  0  0
    1.6183    1.0435    1.7020 H   0  0  0  0  0  0  0  0  0  0  0  0
    0.7895    2.9929    2.0404 C   0  0  0  0  0  0  0  0  0  0  0  0
   -0.2344    3.2522    2.3130 H   0  0  0  0  0  0  0  0  0  0  0  0
    1.4265    3.0377    2.9233 H   0  0  0  0  0  0  0  0  0  0  0  0
    1.1511    3.7014    1.2950 H   0  0  0  0  0  0  0  0  0  0  0  0
  5  6  2  0  0  0  0
  5  7  1  0  0  0  0
  2  3  1  0  0  0  0
  2  4  1  0  0  0  0
  2  5  1  0  0  0  0
  1  2  1  0  0  0  0
 17 18  2  0  0  0  0
 17 19  1  0  0  0  0
 14 15  1  0  0  0  0
 14 16  2  0  0  0  0
 11 12  1  0  0  0  0
 11 13  1  0  0  0  0
 11 14  1  0  0  0  0
  9 10  1  0  0  0  0
  9 11  1  0  0  0  0
  9 17  1  0  0  0  0
  7  8  1  0  0  0  0
  7  9  1  0  0  0  0
 21 22  1  0  0  0  0
 21 23  1  0  0  0  0
 21 24  1  0  0  0  0
 19 20  1  0  0  0  0
 19 21  1  0  0  0  0
M  CHG  1  15  -1
M  END
$$$$
default_name
  -OEChem-02102213163D

 24 23  0     1  0  0  0  0  0999 V2000
   -2.8347   -3.7166    0.8034 H   0  0  0  0  0  0  0  0  0  0  0  0
   -2.7728   -2.7096    0.3954 C   0  0  0  0  0  0  0  0  0  0  0  0
   -3.4267   -2.0426    0.9524 H   0  0  0  0  0  0  0  0  0  0  0  0
   -3.0538   -2.7186   -0.6556 H   0  0  0  0  0  0  0  0  0  0  0  0
   -1.3498   -2.2206    0.5184 C   0  0  0  0  0  0  0  0  0  0  0  0
   -0.4997   -2.9426    1.0194 O   0  0  0  0  0  0  0  0  0  0  0  0
   -1.1198   -0.9926    0.0674 N   0  0  0  0  0  0  0  0  0  0  0  0
   -1.8978   -0.4486   -0.2716 H   0  0  0  0  0  0  0  0  0  0  0  0
    0.1693   -0.2866    0.0854 C   0  0  1  0  0  0  0  0  0  0  0  0
    0.8425   -0.7905    0.7811 H   0  0  0  0  0  0  0  0  0  0  0  0
    0.7993   -0.3404   -1.3233 C   0  0  0  0  0  0  0  0  0  0  0  0
    0.4680    0.5324   -1.8887 H   0  0  0  0  0  0  0  0  0  0  0  0
    1.8855   -0.2810   -1.2254 H   0  0  0  0  0  0  0  0  0  0  0  0
    0.4315   -1.5896   -2.1391 C   0  0  0  0  0  0  0  0  0  0  0  0
    0.4728   -2.7078   -1.5738 O   0  5  0  0  0  0  0  0  0  0  0  0
    0.1278   -1.4146   -3.3388 O   0  0  0  0  0  0  0  0  0  0  0  0
   -0.0374    1.1645    0.5781 C   0  0  0  0  0  0  0  0  0  0  0  0
   -0.9816    1.8416    0.1544 O   0  0  0  0  0  0  0  0  0  0  0  0
    0.8235    1.6462    1.4801 N   0  0  0  0  0  0  0  0  0  0  0  0
    1.6183    1.0435    1.7020 H   0  0  0  0  0  0  0  0  0  0  0  0
    0.7895    2.9929    2.0404 C   0  0  0  0  0  0  0  0  0  0  0  0
   -0.2344    3.2522    2.3130 H   0  0  0  0  0  0  0  0  0  0  0  0
    1.4265    3.0377    2.9233 H   0  0  0  0  0  0  0  0  0  0  0  0
    1.1511    3.7014    1.2950 H   0  0  0  0  0  0  0  0  0  0  0  0
  5  6  2  0  0  0  0
  5  7  1  0  0  0  0
  2  3  1  0  0  0  0
  2  4  1  0  0  0  0
  2  5  1  0  0  0  0
  1  2  1  0  0  0  0
 17 18  2  0  0  0  0
 17 19  1  0  0  0  0
 14 15  1  0  0  0  0
 14 16  2  0  0  0  0
 11 12  1  0  0  0  0
 11 13  1  0  0  0  0
 11 14  1  0  0  0  0
  9 10  1  0  0  0  0
  9 11  1  0  0  0  0
  9 17  1  0  0  0  0
  7  8  1  0  0  0  0
  7  9  1  0  0  0  0
 21 22  1  0  0  0  0
 21 23  1  0  0  0  0
 21 24  1  0  0  0  0
 19 20  1  0  0  0  0
 19 21  1  0  0  0  0
M  CHG  1  15  -1
M  END
$$$$
default_name
  -OEChem-02102213163D

 24 23  0     1  0  0  0  0  0999 V2000
   -2.8347   -3.7166    0.8034 H   0  0  0  0  0  0  0  0  0  0  0  0
   -2.7728   -2.7096    0.3954 C   0  0  0  0  0  0  0  0  0  0  0  0
   -3.4267   -2.0426    0.9524 H   0  0  0  0  0  0  0  0  0  0  0  0
   -3.0538   -2.7186   -0.6556 H   0  0  0  0  0  0  0  0  0  0  0  0
   -1.3498   -2.2206    0.5184 C   0  0  0  0  0  0  0  0  0  0  0  0
   -0.4997   -2.9426    1.0194 O   0  0  0  0  0  0  0  0  0  0  0  0
   -1.1198   -0.9926    0.0674 N   0  0  0  0  0  0  0  0  0  0  0  0
   -1.8978   -0.4486   -0.2716 H   0  0  0  0  0  0  0  0  0  0  0  0
    0.1693   -0.2866    0.0854 C   0  0  1  0  0  0  0  0  0  0  0  0
    0.8425   -0.7905    0.7811 H   0  0  0  0  0  0  0  0  0  0  0  0
    0.7993   -0.3404   -1.3233 C   0  0  0  0  0  0  0  0  0  0  0  0
    0.4680    0.5324   -1.8887 H   0  0  0  0  0  0  0  0  0  0  0  0
    1.8855   -0.2810   -1.2254 H   0  0  0  0  0  0  0  0  0  0  0  0
    0.4315   -1.5896   -2.1391 C   0  0  0  0  0  0  0  0  0  0  0  0
    0.1940   -2.6570   -1.5259 O   0  5  0  0  0  0  0  0  0  0  0  0
    0.4099   -1.4688   -3.3829 O   0  0  0  0  0  0  0  0  0  0  0  0
   -0.0374    1.1645    0.5781 C   0  0  0  0  0  0  0  0  0  0  0  0
   -0.9816    1.8416    0.1544 O   0  0  0  0  0  0  0  0  0  0  0  0
    0.8235    1.6462    1.4801 N   0  0  0  0  0  0  0  0  0  0  0  0
    1.6183    1.0435    1.7020 H   0  0  0  0  0  0  0  0  0  0  0  0
    0.7895    2.9929    2.0404 C   0  0  0  0  0  0  0  0  0  0  0  0
   -0.2344    3.2522    2.3130 H   0  0  0  0  0  0  0  0  0  0  0  0
    1.4265    3.0377    2.9233 H   0  0  0  0  0  0  0  0  0  0  0  0
    1.1511    3.7014    1.2950 H   0  0  0  0  0  0  0  0  0  0  0  0
  5  6  2  0  0  0  0
  5  7  1  0  0  0  0
  2  3  1  0  0  0  0
  2  4  1  0  0  0  0
  2  5  1  0  0  0  0
  1  2  1  0  0  0  0
 17 18  2  0  0  0  0
 17 19  1  0  0  0  0
 14 15  1  0  0  0  0
 14 16  2  0  0  0  0
 11 12  1  0  0  0  0
 11 13  1  0  0  0  0
 11 14  1  0  0  0  0
  9 10  1  0  0  0  0
  9 11  1  0  0  0  0
  9 17  1  0  0  0  0
  7  8  1  0  0  0  0
  7  9  1  0  0  0  0
 21 22  1  0  0  0  0
 21 23  1  0  0  0  0
 21 24  1  0  0  0  0
 19 20  1  0  0  0  0
 19 21  1  0  0  0  0
M  CHG  1  15  -1
M  END
$$$$
default_name
  -OEChem-02102213163D

 24 23  0     1  0  0  0  0  0999 V2000
   -2.8347   -3.7166    0.8034 H   0  0  0  0  0  0  0  0  0  0  0  0
   -2.7728   -2.7096    0.3954 C   0  0  0  0  0  0  0  0  0  0  0  0
   -3.4267   -2.0426    0.9524 H   0  0  0  0  0  0  0  0  0  0  0  0
   -3.0538   -2.7186   -0.6556 H   0  0  0  0  0  0  0  0  0  0  0  0
   -1.3498   -2.2206    0.5184 C   0  0  0  0  0  0  0  0  0  0  0  0
   -0.4997   -2.9426    1.0194 O   0  0  0  0  0  0  0  0  0  0  0  0
   -1.1198   -0.9926    0.0674 N   0  0  0  0  0  0  0  0  0  0  0  0
   -1.8978   -0.4486   -0.2716 H   0  0  0  0  0  0  0  0  0  0  0  0
    0.1693   -0.2866    0.0854 C   0  0  1  0  0  0  0  0  0  0  0  0
    0.8425   -0.7905    0.7811 H   0  0  0  0  0  0  0  0  0  0  0  0
    0.7993   -0.3404   -1.3233 C   0  0  0  0  0  0  0  0  0  0  0  0
    0.4680    0.5324   -1.8887 H   0  0  0  0  0  0  0  0  0  0  0  0
    1.8855   -0.2810   -1.2254 H   0  0  0  0  0  0  0  0  0  0  0  0
    0.4315   -1.5896   -2.1391 C   0  0  0  0  0  0  0  0  0  0  0  0
   -0.0785   -2.5666   -1.5415 O   0  5  0  0  0  0  0  0  0  0  0  0
    0.6844   -1.5628   -3.3628 O   0  0  0  0  0  0  0  0  0  0  0  0
   -0.0374    1.1645    0.5781 C   0  0  0  0  0  0  0  0  0  0  0  0
   -0.9816    1.8416    0.1544 O   0  0  0  0  0  0  0  0  0  0  0  0
    0.8235    1.6462    1.4801 N   0  0  0  0  0  0  0  0  0  0  0  0
    1.6183    1.0435    1.7020 H   0  0  0  0  0  0  0  0  0  0  0  0
    0.7895    2.9929    2.0404 C   0  0  0  0  0  0  0  0  0  0  0  0
   -0.2344    3.2522    2.3130 H   0  0  0  0  0  0  0  0  0  0  0  0
    1.4265    3.0377    2.9233 H   0  0  0  0  0  0  0  0  0  0  0  0
    1.1511    3.7014    1.2950 H   0  0  0  0  0  0  0  0  0  0  0  0
  5  6  2  0  0  0  0
  5  7  1  0  0  0  0
  2  3  1  0  0  0  0
  2  4  1  0  0  0  0
  2  5  1  0  0  0  0
  1  2  1  0  0  0  0
 17 18  2  0  0  0  0
 17 19  1  0  0  0  0
 14 15  1  0  0  0  0
 14 16  2  0  0  0  0
 11 12  1  0  0  0  0
 11 13  1  0  0  0  0
 11 14  1  0  0  0  0
  9 10  1  0  0  0  0
  9 11  1  0  0  0  0
  9 17  1  0  0  0  0
  7  8  1  0  0  0  0
  7  9  1  0  0  0  0
 21 22  1  0  0  0  0
 21 23  1  0  0  0  0
 21 24  1  0  0  0  0
 19 20  1  0  0  0  0
 19 21  1  0  0  0  0
M  CHG  1  15  -1
M  END
$$$$
default_name
  -OEChem-02102213163D

 24 23  0     1  0  0  0  0  0999 V2000
   -2.8347   -3.7166    0.8034 H   0  0  0  0  0  0  0  0  0  0  0  0
   -2.7728   -2.7096    0.3954 C   0  0  0  0  0  0  0  0  0  0  0  0
   -3.4267   -2.0426    0.9524 H   0  0  0  0  0  0  0  0  0  0  0  0
   -3.0538   -2.7186   -0.6556 H   0  0  0  0  0  0  0  0  0  0  0  0
   -1.3498   -2.2206    0.5184 C   0  0  0  0  0  0  0  0  0  0  0  0
   -0.4997   -2.9426    1.0194 O   0  0  0  0  0  0  0  0  0  0  0  0
   -1.1198   -0.9926    0.0674 N   0  0  0  0  0  0  0  0  0  0  0  0
   -1.8978   -0.4486   -0.2716 H   0  0  0  0  0  0  0  0  0  0  0  0
    0.1693   -0.2866    0.0854 C   0  0  1  0  0  0  0  0  0  0  0  0
    0.8425   -0.7905    0.7811 H   0  0  0  0  0  0  0  0  0  0  0  0
    0.7993   -0.3404   -1.3233 C   0  0  0  0  0  0  0  0  0  0  0  0
    0.4680    0.5324   -1.8887 H   0  0  0  0  0  0  0  0  0  0  0  0
    1.8855   -0.2810   -1.2254 H   0  0  0  0  0  0  0  0  0  0  0  0
    0.4315   -1.5896   -2.1391 C   0  0  0  0  0  0  0  0  0  0  0  0
   -0.3260   -2.4428   -1.6195 O   0  5  0  0  0  0  0  0  0  0  0  0
    0.9323   -1.6899   -3.2798 O   0  0  0  0  0  0  0  0  0  0  0  0
   -0.0374    1.1645    0.5781 C   0  0  0  0  0  0  0  0  0  0  0  0
   -0.9816    1.8416    0.1544 O   0  0  0  0  0  0  0  0  0  0  0  0
    0.8235    1.6462    1.4801 N   0  0  0  0  0  0  0  0  0  0  0  0
    1.6183    1.0435    1.7020 H   0  0  0  0  0  0  0  0  0  0  0  0
    0.7895    2.9929    2.0404 C   0  0  0  0  0  0  0  0  0  0  0  0
   -0.2344    3.2522    2.3130 H   0  0  0  0  0  0  0  0  0  0  0  0
    1.4265    3.0377    2.9233 H   0  0  0  0  0  0  0  0  0  0  0  0
    1.1511    3.7014    1.2950 H   0  0  0  0  0  0  0  0  0  0  0  0
  5  6  2  0  0  0  0
  5  7  1  0  0  0  0
  2  3  1  0  0  0  0
  2  4  1  0  0  0  0
  2  5  1  0  0  0  0
  1  2  1  0  0  0  0
 17 18  2  0  0  0  0
 17 19  1  0  0  0  0
 14 15  1  0  0  0  0
 14 16  2  0  0  0  0
 11 12  1  0  0  0  0
 11 13  1  0  0  0  0
 11 14  1  0  0  0  0
  9 10  1  0  0  0  0
  9 11  1  0  0  0  0
  9 17  1  0  0  0  0
  7  8  1  0  0  0  0
  7  9  1  0  0  0  0
 21 22  1  0  0  0  0
 21 23  1  0  0  0  0
 21 24  1  0  0  0  0
 19 20  1  0  0  0  0
 19 21  1  0  0  0  0
M  CHG  1  15  -1
M  END
$$$$
default_name
  -OEChem-02102213163D

 24 23  0     1  0  0  0  0  0999 V2000
   -2.8347   -3.7166    0.8034 H   0  0  0  0  0  0  0  0  0  0  0  0
   -2.7728   -2.7096    0.3954 C   0  0  0  0  0  0  0  0  0  0  0  0
   -3.4267   -2.0426    0.9524 H   0  0  0  0  0  0  0  0  0  0  0  0
   -3.0538   -2.7186   -0.6556 H   0  0  0  0  0  0  0  0  0  0  0  0
   -1.3498   -2.2206    0.5184 C   0  0  0  0  0  0  0  0  0  0  0  0
   -0.4997   -2.9426    1.0194 O   0  0  0  0  0  0  0  0  0  0  0  0
   -1.1198   -0.9926    0.0674 N   0  0  0  0  0  0  0  0  0  0  0  0
   -1.8978   -0.4486   -0.2716 H   0  0  0  0  0  0  0  0  0  0  0  0
    0.1693   -0.2866    0.0854 C   0  0  1  0  0  0  0  0  0  0  0  0
    0.8425   -0.7905    0.7811 H   0  0  0  0  0  0  0  0  0  0  0  0
    0.7993   -0.3404   -1.3233 C   0  0  0  0  0  0  0  0  0  0  0  0
    0.4680    0.5324   -1.8887 H   0  0  0  0  0  0  0  0  0  0  0  0
    1.8855   -0.2810   -1.2254 H   0  0  0  0  0  0  0  0  0  0  0  0
    0.4315   -1.5896   -2.1391 C   0  0  0  0  0  0  0  0  0  0  0  0
   -0.5316   -2.2940   -1.7546 O   0  5  0  0  0  0  0  0  0  0  0  0
    1.1368   -1.8417   -3.1397 O   0  0  0  0  0  0  0  0  0  0  0  0
   -0.0374    1.1645    0.5781 C   0  0  0  0  0  0  0  0  0  0  0  0
   -0.9816    1.8416    0.1544 O   0  0  0  0  0  0  0  0  0  0  0  0
    0.8235    1.6462    1.4801 N   0  0  0  0  0  0  0  0  0  0  0  0
    1.6183    1.0435    1.7020 H   0  0  0  0  0  0  0  0  0  0  0  0
    0.7895    2.9929    2.0404 C   0  0  0  0  0  0  0  0  0  0  0  0
   -0.2344    3.2522    2.3130 H   0  0  0  0  0  0  0  0  0  0  0  0
    1.4265    3.0377    2.9233 H   0  0  0  0  0  0  0  0  0  0  0  0
    1.1511    3.7014    1.2950 H   0  0  0  0  0  0  0  0  0  0  0  0
  5  6  2  0  0  0  0
  5  7  1  0  0  0  0
  2  3  1  0  0  0  0
  2  4  1  0  0  0  0
  2  5  1  0  0  0  0
  1  2  1  0  0  0  0
 17 18  2  0  0  0  0
 17 19  1  0  0  0  0
 14 15  1  0  0  0  0
 14 16  2  0  0  0  0
 11 12  1  0  0  0  0
 11 13  1  0  0  0  0
 11 14  1  0  0  0  0
  9 10  1  0  0  0  0
  9 11  1  0  0  0  0
  9 17  1  0  0  0  0
  7  8  1  0  0  0  0
  7  9  1  0  0  0  0
 21 22  1  0  0  0  0
 21 23  1  0  0  0  0
 21 24  1  0  0  0  0
 19 20  1  0  0  0  0
 19 21  1  0  0  0  0
M  CHG  1  15  -1
M  END
$$$$
default_name
  -OEChem-02102213163D

 24 23  0     1  0  0  0  0  0999 V2000
   -2.8347   -3.7166    0.8034 H   0  0  0  0  0  0  0  0  0  0  0  0
   -2.7728   -2.7096    0.3954 C   0  0  0  0  0  0  0  0  0  0  0  0
   -3.4267   -2.0426    0.9524 H   0  0  0  0  0  0  0  0  0  0  0  0
   -3.0538   -2.7186   -0.6556 H   0  0  0  0  0  0  0  0  0  0  0  0
   -1.3498   -2.2206    0.5184 C   0  0  0  0  0  0  0  0  0  0  0  0
   -0.4997   -2.9426    1.0194 O   0  0  0  0  0  0  0  0  0  0  0  0
   -1.1198   -0.9926    0.0674 N   0  0  0  0  0  0  0  0  0  0  0  0
   -1.8978   -0.4486   -0.2716 H   0  0  0  0  0  0  0  0  0  0  0  0
    0.1693   -0.2866    0.0854 C   0  0  1  0  0  0  0  0  0  0  0  0
    0.8425   -0.7905    0.7811 H   0  0  0  0  0  0  0  0  0  0  0  0
    0.7993   -0.3404   -1.3233 C   0  0  0  0  0  0  0  0  0  0  0  0
    0.4680    0.5324   -1.8887 H   0  0  0  0  0  0  0  0  0  0  0  0
    1.8855   -0.2810   -1.2254 H   0  0  0  0  0  0  0  0  0  0  0  0
    0.4315   -1.5896   -2.1391 C   0  0  0  0  0  0  0  0  0  0  0  0
   -0.6813   -2.1305   -1.9375 O   0  5  0  0  0  0  0  0  0  0  0  0
    1.2841   -2.0077   -2.9518 O   0  0  0  0  0  0  0  0  0  0  0  0
   -0.0374    1.1645    0.5781 C   0  0  0  0  0  0  0  0  0  0  0  0
   -0.9816    1.8416    0.1544 O   0  0  0  0  0  0  0  0  0  0  0  0
    0.8235    1.6462    1.4801 N   0  0  0  0  0  0  0  0  0  0  0  0
    1.6183    1.0435    1.7020 H   0  0  0  0  0  0  0  0  0  0  0  0
    0.7895    2.9929    2.0404 C   0  0  0  0  0  0  0  0  0  0  0  0
   -0.2344    3.2522    2.3130 H   0  0  0  0  0  0  0  0  0  0  0  0
    1.4265    3.0377    2.9233 H   0  0  0  0  0  0  0  0  0  0  0  0
    1.1511    3.7014    1.2950 H   0  0  0  0  0  0  0  0  0  0  0  0
  5  6  2  0  0  0  0
  5  7  1  0  0  0  0
  2  3  1  0  0  0  0
  2  4  1  0  0  0  0
  2  5  1  0  0  0  0
  1  2  1  0  0  0  0
 17 18  2  0  0  0  0
 17 19  1  0  0  0  0
 14 15  1  0  0  0  0
 14 16  2  0  0  0  0
 11 12  1  0  0  0  0
 11 13  1  0  0  0  0
 11 14  1  0  0  0  0
  9 10  1  0  0  0  0
  9 11  1  0  0  0  0
  9 17  1  0  0  0  0
  7  8  1  0  0  0  0
  7  9  1  0  0  0  0
 21 22  1  0  0  0  0
 21 23  1  0  0  0  0
 21 24  1  0  0  0  0
 19 20  1  0  0  0  0
 19 21  1  0  0  0  0
M  CHG  1  15  -1
M  END
$$$$
default_name
  -OEChem-02102213163D

 24 23  0     1  0  0  0  0  0999 V2000
   -2.8347   -3.7166    0.8034 H   0  0  0  0  0  0  0  0  0  0  0  0
   -2.7728   -2.7096    0.3954 C   0  0  0  0  0  0  0  0  0  0  0  0
   -3.4267   -2.0426    0.9524 H   0  0  0  0  0  0  0  0  0  0  0  0
   -3.0538   -2.7186   -0.6556 H   0  0  0  0  0  0  0  0  0  0  0  0
   -1.3498   -2.2206    0.5184 C   0  0  0  0  0  0  0  0  0  0  0  0
   -0.4997   -2.9426    1.0194 O   0  0  0  0  0  0  0  0  0  0  0  0
   -1.1198   -0.9926    0.0674 N   0  0  0  0  0  0  0  0  0  0  0  0
   -1.8978   -0.4486   -0.2716 H   0  0  0  0  0  0  0  0  0  0  0  0
    0.1693   -0.2866    0.0854 C   0  0  1  0  0  0  0  0  0  0  0  0
    0.8425   -0.7905    0.7811 H   0  0  0  0  0  0  0  0  0  0  0  0
    0.7993   -0.3404   -1.3233 C   0  0  0  0  0  0  0  0  0  0  0  0
    0.4680    0.5324   -1.8887 H   0  0  0  0  0  0  0  0  0  0  0  0
    1.8855   -0.2810   -1.2254 H   0  0  0  0  0  0  0  0  0  0  0  0
    0.4315   -1.5896   -2.1391 C   0  0  0  0  0  0  0  0  0  0  0  0
   -0.7650   -1.9633   -2.1559 O   0  5  0  0  0  0  0  0  0  0  0  0
    1.3639   -2.1767   -2.7291 O   0  0  0  0  0  0  0  0  0  0  0  0
   -0.0374    1.1645    0.5781 C   0  0  0  0  0  0  0  0  0  0  0  0
   -0.9816    1.8416    0.1544 O   0  0  0  0  0  0  0  0  0  0  0  0
    0.8235    1.6462    1.4801 N   0  0  0  0  0  0  0  0  0  0  0  0
    1.6183    1.0435    1.7020 H   0  0  0  0  0  0  0  0  0  0  0  0
    0.7895    2.9929    2.0404 C   0  0  0  0  0  0  0  0  0  0  0  0
   -0.2344    3.2522    2.3130 H   0  0  0  0  0  0  0  0  0  0  0  0
    1.4265    3.0377    2.9233 H   0  0  0  0  0  0  0  0  0  0  0  0
    1.1511    3.7014    1.2950 H   0  0  0  0  0  0  0  0  0  0  0  0
  5  6  2  0  0  0  0
  5  7  1  0  0  0  0
  2  3  1  0  0  0  0
  2  4  1  0  0  0  0
  2  5  1  0  0  0  0
  1  2  1  0  0  0  0
 17 18  2  0  0  0  0
 17 19  1  0  0  0  0
 14 15  1  0  0  0  0
 14 16  2  0  0  0  0
 11 12  1  0  0  0  0
 11 13  1  0  0  0  0
 11 14  1  0  0  0  0
  9 10  1  0  0  0  0
  9 11  1  0  0  0  0
  9 17  1  0  0  0  0
  7  8  1  0  0  0  0
  7  9  1  0  0  0  0
 21 22  1  0  0  0  0
 21 23  1  0  0  0  0
 21 24  1  0  0  0  0
 19 20  1  0  0  0  0
 19 21  1  0  0  0  0
M  CHG  1  15  -1
M  END
$$$$
default_name
  -OEChem-02102213163D

 24 23  0     1  0  0  0  0  0999 V2000
   -2.8347   -3.7166    0.8034 H   0  0  0  0  0  0  0  0  0  0  0  0
   -2.7728   -2.7096    0.3954 C   0  0  0  0  0  0  0  0  0  0  0  0
   -3.4267   -2.0426    0.9524 H   0  0  0  0  0  0  0  0  0  0  0  0
   -3.0538   -2.7186   -0.6556 H   0  0  0  0  0  0  0  0  0  0  0  0
   -1.3498   -2.2206    0.5184 C   0  0  0  0  0  0  0  0  0  0  0  0
   -0.4997   -2.9426    1.0194 O   0  0  0  0  0  0  0  0  0  0  0  0
   -1.1198   -0.9926    0.0674 N   0  0  0  0  0  0  0  0  0  0  0  0
   -1.8978   -0.4486   -0.2716 H   0  0  0  0  0  0  0  0  0  0  0  0
    0.1693   -0.2866    0.0854 C   0  0  1  0  0  0  0  0  0  0  0  0
    0.8425   -0.7905    0.7811 H   0  0  0  0  0  0  0  0  0  0  0  0
    0.7993   -0.3404   -1.3233 C   0  0  0  0  0  0  0  0  0  0  0  0
    0.4680    0.5324   -1.8887 H   0  0  0  0  0  0  0  0  0  0  0  0
    1.8855   -0.2810   -1.2254 H   0  0  0  0  0  0  0  0  0  0  0  0
    0.4315   -1.5896   -2.1391 C   0  0  0  0  0  0  0  0  0  0  0  0
   -0.7769   -1.8037   -2.3948 O   0  5  0  0  0  0  0  0  0  0  0  0
    1.3710   -2.3370   -2.4867 O   0  0  0  0  0  0  0  0  0  0  0  0
   -0.0374    1.1645    0.5781 C   0  0  0  0  0  0  0  0  0  0  0  0
   -0.9816    1.8416    0.1544 O   0  0  0  0  0  0  0  0  0  0  0  0
    0.8235    1.6462    1.4801 N   0  0  0  0  0  0  0  0  0  0  0  0
    1.6183    1.0435    1.7020 H   0  0  0  0  0  0  0  0  0  0  0  0
    0.7895    2.9929    2.0404 C   0  0  0  0  0  0  0  0  0  0  0  0
   -0.2344    3.2522    2.3130 H   0  0  0  0  0  0  0  0  0  0  0  0
    1.4265    3.0377    2.9233 H   0  0  0  0  0  0  0  0  0  0  0  0
    1.1511    3.7014    1.2950 H   0  0  0  0  0  0  0  0  0  0  0  0
  5  6  2  0  0  0  0
  5  7  1  0  0  0  0
  2  3  1  0  0  0  0
  2  4  1  0  0  0  0
  2  5  1  0  0  0  0
  1  2  1  0  0  0  0
 17 18  2  0  0  0  0
 17 19  1  0  0  0  0
 14 15  1  0  0  0  0
 14 16  2  0  0  0  0
 11 12  1  0  0  0  0
 11 13  1  0  0  0  0
 11 14  1  0  0  0  0
  9 10  1  0  0  0  0
  9 11  1  0  0  0  0
  9 17  1  0  0  0  0
  7  8  1  0  0  0  0
  7  9  1  0  0  0  0
 21 22  1  0  0  0  0
 21 23  1  0  0  0  0
 21 24  1  0  0  0  0
 19 20  1  0  0  0  0
 19 21  1  0  0  0  0
M  CHG  1  15  -1
M  END
$$$$
default_name
  -OEChem-02102213163D

 24 23  0     1  0  0  0  0  0999 V2000
   -2.8347   -3.7166    0.8034 H   0  0  0  0  0  0  0  0  0  0  0  0
   -2.7728   -2.7096    0.3954 C   0  0  0  0  0  0  0  0  0  0  0  0
   -3.4267   -2.0426    0.9524 H   0  0  0  0  0  0  0  0  0  0  0  0
   -3.0538   -2.7186   -0.6556 H   0  0  0  0  0  0  0  0  0  0  0  0
   -1.3498   -2.2206    0.5184 C   0  0  0  0  0  0  0  0  0  0  0  0
   -0.4997   -2.9426    1.0194 O   0  0  0  0  0  0  0  0  0  0  0  0
   -1.1198   -0.9926    0.0674 N   0  0  0  0  0  0  0  0  0  0  0  0
   -1.8978   -0.4486   -0.2716 H   0  0  0  0  0  0  0  0  0  0  0  0
    0.1693   -0.2866    0.0854 C   0  0  1  0  0  0  0  0  0  0  0  0
    0.8425   -0.7905    0.7811 H   0  0  0  0  0  0  0  0  0  0  0  0
    0.7993   -0.3404   -1.3233 C   0  0  0  0  0  0  0  0  0  0  0  0
    0.4680    0.5324   -1.8887 H   0  0  0  0  0  0  0  0  0  0  0  0
    1.8855   -0.2810   -1.2254 H   0  0  0  0  0  0  0  0  0  0  0  0
    0.4315   -1.5896   -2.1391 C   0  0  0  0  0  0  0  0  0  0  0  0
   -0.7163   -1.6628   -2.6379 O   0  5  0  0  0  0  0  0  0  0  0  0
    1.3048   -2.4779   -2.2412 O   0  0  0  0  0  0  0  0  0  0  0  0
   -0.0374    1.1645    0.5781 C   0  0  0  0  0  0  0  0  0  0  0  0
   -0.9816    1.8416    0.1544 O   0  0  0  0  0  0  0  0  0  0  0  0
    0.8235    1.6462    1.4801 N   0  0  0  0  0  0  0  0  0  0  0  0
    1.6183    1.0435    1.7020 H   0  0  0  0  0  0  0  0  0  0  0  0
    0.7895    2.9929    2.0404 C   0  0  0  0  0  0  0  0  0  0  0  0
   -0.2344    3.2522    2.3130 H   0  0  0  0  0  0  0  0  0  0  0  0
    1.4265    3.0377    2.9233 H   0  0  0  0  0  0  0  0  0  0  0  0
    1.1511    3.7014    1.2950 H   0  0  0  0  0  0  0  0  0  0  0  0
  5  6  2  0  0  0  0
  5  7  1  0  0  0  0
  2  3  1  0  0  0  0
  2  4  1  0  0  0  0
  2  5  1  0  0  0  0
  1  2  1  0  0  0  0
 17 18  2  0  0  0  0
 17 19  1  0  0  0  0
 14 15  1  0  0  0  0
 14 16  2  0  0  0  0
 11 12  1  0  0  0  0
 11 13  1  0  0  0  0
 11 14  1  0  0  0  0
  9 10  1  0  0  0  0
  9 11  1  0  0  0  0
  9 17  1  0  0  0  0
  7  8  1  0  0  0  0
  7  9  1  0  0  0  0
 21 22  1  0  0  0  0
 21 23  1  0  0  0  0
 21 24  1  0  0  0  0
 19 20  1  0  0  0  0
 19 21  1  0  0  0  0
M  CHG  1  15  -1
M  END
$$$$
default_name
  -OEChem-02102213163D

 24 23  0     1  0  0  0  0  0999 V2000
   -2.8347   -3.7166    0.8034 H   0  0  0  0  0  0  0  0  0  0  0  0
   -2.7728   -2.7096    0.3954 C   0  0  0  0  0  0  0  0  0  0  0  0
   -3.4267   -2.0426    0.9524 H   0  0  0  0  0  0  0  0  0  0  0  0
   -3.0538   -2.7186   -0.6556 H   0  0  0  0  0  0  0  0  0  0  0  0
   -1.3498   -2.2206    0.5184 C   0  0  0  0  0  0  0  0  0  0  0  0
   -0.4997   -2.9426    1.0194 O   0  0  0  0  0  0  0  0  0  0  0  0
   -1.1198   -0.9926    0.0674 N   0  0  0  0  0  0  0  0  0  0  0  0
   -1.8978   -0.4486   -0.2716 H   0  0  0  0  0  0  0  0  0  0  0  0
    0.1693   -0.2866    0.0854 C   0  0  1  0  0  0  0  0  0  0  0  0
    0.8425   -0.7905    0.7811 H   0  0  0  0  0  0  0  0  0  0  0  0
    0.7993   -0.3404   -1.3233 C   0  0  0  0  0  0  0  0  0  0  0  0
    0.4680    0.5324   -1.8887 H   0  0  0  0  0  0  0  0  0  0  0  0
    1.8855   -0.2810   -1.2254 H   0  0  0  0  0  0  0  0  0  0  0  0
    0.4315   -1.5896   -2.1391 C   0  0  0  0  0  0  0  0  0  0  0  0
   -0.5872   -1.5501   -2.8687 O   0  5  0  0  0  0  0  0  0  0  0  0
    1.1699   -2.5897   -2.0092 O   0  0  0  0  0  0  0  0  0  0  0  0
   -0.0374    1.1645    0.5781 C   0  0  0  0  0  0  0  0  0  0  0  0
   -0.9816    1.8416    0.1544 O   0  0  0  0  0  0  0  0  0  0  0  0
    0.8235    1.6462    1.4801 N   0  0  0  0  0  0  0  0  0  0  0  0
    1.6183    1.0435    1.7020 H   0  0  0  0  0  0  0  0  0  0  0  0
    0.7895    2.9929    2.0404 C   0  0  0  0  0  0  0  0  0  0  0  0
   -0.2344    3.2522    2.3130 H   0  0  0  0  0  0  0  0  0  0  0  0
    1.4265    3.0377    2.9233 H   0  0  0  0  0  0  0  0  0  0  0  0
    1.1511    3.7014    1.2950 H   0  0  0  0  0  0  0  0  0  0  0  0
  5  6  2  0  0  0  0
  5  7  1  0  0  0  0
  2  3  1  0  0  0  0
  2  4  1  0  0  0  0
  2  5  1  0  0  0  0
  1  2  1  0  0  0  0
 17 18  2  0  0  0  0
 17 19  1  0  0  0  0
 14 15  1  0  0  0  0
 14 16  2  0  0  0  0
 11 12  1  0  0  0  0
 11 13  1  0  0  0  0
 11 14  1  0  0  0  0
  9 10  1  0  0  0  0
  9 11  1  0  0  0  0
  9 17  1  0  0  0  0
  7  8  1  0  0  0  0
  7  9  1  0  0  0  0
 21 22  1  0  0  0  0
 21 23  1  0  0  0  0
 21 24  1  0  0  0  0
 19 20  1  0  0  0  0
 19 21  1  0  0  0  0
M  CHG  1  15  -1
M  END
$$$$
default_name
  -OEChem-02102213163D

 24 23  0     1  0  0  0  0  0999 V2000
   -2.8347   -3.7166    0.8034 H   0  0  0  0  0  0  0  0  0  0  0  0
   -2.7728   -2.7096    0.3954 C   0  0  0  0  0  0  0  0  0  0  0  0
   -3.4267   -2.0426    0.9524 H   0  0  0  0  0  0  0  0  0  0  0  0
   -3.0538   -2.7186   -0.6556 H   0  0  0  0  0  0  0  0  0  0  0  0
   -1.3498   -2.2206    0.5184 C   0  0  0  0  0  0  0  0  0  0  0  0
   -0.4997   -2.9426    1.0194 O   0  0  0  0  0  0  0  0  0  0  0  0
   -1.1198   -0.9926    0.0674 N   0  0  0  0  0  0  0  0  0  0  0  0
   -1.8978   -0.4486   -0.2716 H   0  0  0  0  0  0  0  0  0  0  0  0
    0.1693   -0.2866    0.0854 C   0  0  1  0  0  0  0  0  0  0  0  0
    0.8425   -0.7905    0.7811 H   0  0  0  0  0  0  0  0  0  0  0  0
    0.7993   -0.3404   -1.3233 C   0  0  0  0  0  0  0  0  0  0  0  0
    0.4680    0.5324   -1.8887 H   0  0  0  0  0  0  0  0  0  0  0  0
    1.8855   -0.2810   -1.2254 H   0  0  0  0  0  0  0  0  0  0  0  0
    0.4315   -1.5896   -2.1391 C   0  0  0  0  0  0  0  0  0  0  0  0
   -0.3984   -1.4733   -3.0715 O   0  5  0  0  0  0  0  0  0  0  0  0
    0.9753   -2.6647   -1.8066 O   0  0  0  0  0  0  0  0  0  0  0  0
   -0.0374    1.1645    0.5781 C   0  0  0  0  0  0  0  0  0  0  0  0
   -0.9816    1.8416    0.1544 O   0  0  0  0  0  0  0  0  0  0  0  0
    0.8235    1.6462    1.4801 N   0  0  0  0  0  0  0  0  0  0  0  0
    1.6183    1.0435    1.7020 H   0  0  0  0  0  0  0  0  0  0  0  0
    0.7895    2.9929    2.0404 C   0  0  0  0  0  0  0  0  0  0  0  0
   -0.2344    3.2522    2.3130 H   0  0  0  0  0  0  0  0  0  0  0  0
    1.4265    3.0377    2.9233 H   0  0  0  0  0  0  0  0  0  0  0  0
    1.1511    3.7014    1.2950 H   0  0  0  0  0  0  0  0  0  0  0  0
  5  6  2  0  0  0  0
  5  7  1  0  0  0  0
  2  3  1  0  0  0  0
  2  4  1  0  0  0  0
  2  5  1  0  0  0  0
  1  2  1  0  0  0  0
 17 18  2  0  0  0  0
 17 19  1  0  0  0  0
 14 15  1  0  0  0  0
 14 16  2  0  0  0  0
 11 12  1  0  0  0  0
 11 13  1  0  0  0  0
 11 14  1  0  0  0  0
  9 10  1  0  0  0  0
  9 11  1  0  0  0  0
  9 17  1  0  0  0  0
  7  8  1  0  0  0  0
  7  9  1  0  0  0  0
 21 22  1  0  0  0  0
 21 23  1  0  0  0  0
 21 24  1  0  0  0  0
 19 20  1  0  0  0  0
 19 21  1  0  0  0  0
M  CHG  1  15  -1
M  END
$$$$
default_name
  -OEChem-02102213163D

 24 23  0     1  0  0  0  0  0999 V2000
   -2.8347   -3.7166    0.8034 H   0  0  0  0  0  0  0  0  0  0  0  0
   -2.7728   -2.7096    0.3954 C   0  0  0  0  0  0  0  0  0  0  0  0
   -3.4267   -2.0426    0.9524 H   0  0  0  0  0  0  0  0  0  0  0  0
   -3.0538   -2.7186   -0.6556 H   0  0  0  0  0  0  0  0  0  0  0  0
   -1.3498   -2.2206    0.5184 C   0  0  0  0  0  0  0  0  0  0  0  0
   -0.4997   -2.9426    1.0194 O   0  0  0  0  0  0  0  0  0  0  0  0
   -1.1198   -0.9926    0.0674 N   0  0  0  0  0  0  0  0  0  0  0  0
   -1.8978   -0.4486   -0.2716 H   0  0  0  0  0  0  0  0  0  0  0  0
    0.1693   -0.2866    0.0854 C   0  0  1  0  0  0  0  0  0  0  0  0
    0.8425   -0.7905    0.7811 H   0  0  0  0  0  0  0  0  0  0  0  0
    0.7993   -0.3404   -1.3233 C   0  0  0  0  0  0  0  0  0  0  0  0
    0.4680    0.5324   -1.8887 H   0  0  0  0  0  0  0  0  0  0  0  0
    1.8855   -0.2810   -1.2254 H   0  0  0  0  0  0  0  0  0  0  0  0
    0.4315   -1.5896   -2.1391 C   0  0  0  0  0  0  0  0  0  0  0  0
   -0.1628   -1.4376   -3.2324 O   0  5  0  0  0  0  0  0  0  0  0  0
    0.7345   -2.6979   -1.6471 O   0  0  0  0  0  0  0  0  0  0  0  0
   -0.0374    1.1645    0.5781 C   0  0  0  0  0  0  0  0  0  0  0  0
   -0.9816    1.8416    0.1544 O   0  0  0  0  0  0  0  0  0  0  0  0
    0.8235    1.6462    1.4801 N   0  0  0  0  0  0  0  0  0  0  0  0
    1.6183    1.0435    1.7020 H   0  0  0  0  0  0  0  0  0  0  0  0
    0.7895    2.9929    2.0404 C   0  0  0  0  0  0  0  0  0  0  0  0
   -0.2344    3.2522    2.3130 H   0  0  0  0  0  0  0  0  0  0  0  0
    1.4265    3.0377    2.9233 H   0  0  0  0  0  0  0  0  0  0  0  0
    1.1511    3.7014    1.2950 H   0  0  0  0  0  0  0  0  0  0  0  0
  5  6  2  0  0  0  0
  5  7  1  0  0  0  0
  2  3  1  0  0  0  0
  2  4  1  0  0  0  0
  2  5  1  0  0  0  0
  1  2  1  0  0  0  0
 17 18  2  0  0  0  0
 17 19  1  0  0  0  0
 14 15  1  0  0  0  0
 14 16  2  0  0  0  0
 11 12  1  0  0  0  0
 11 13  1  0  0  0  0
 11 14  1  0  0  0  0
  9 10  1  0  0  0  0
  9 11  1  0  0  0  0
  9 17  1  0  0  0  0
  7  8  1  0  0  0  0
  7  9  1  0  0  0  0
 21 22  1  0  0  0  0
 21 23  1  0  0  0  0
 21 24  1  0  0  0  0
 19 20  1  0  0  0  0
 19 21  1  0  0  0  0
M  CHG  1  15  -1
M  END
$$$$
default_name
  -OEChem-02102213163D

 24 23  0     1  0  0  0  0  0999 V2000
   -2.8347   -3.7166    0.8034 H   0  0  0  0  0  0  0  0  0  0  0  0
   -2.7728   -2.7096    0.3954 C   0  0  0  0  0  0  0  0  0  0  0  0
   -3.4267   -2.0426    0.9524 H   0  0  0  0  0  0  0  0  0  0  0  0
   -3.0538   -2.7186   -0.6556 H   0  0  0  0  0  0  0  0  0  0  0  0
   -1.3498   -2.2206    0.5184 C   0  0  0  0  0  0  0  0  0  0  0  0
   -0.4997   -2.9426    1.0194 O   0  0  0  0  0  0  0  0  0  0  0  0
   -1.1198   -0.9926    0.0674 N   0  0  0  0  0  0  0  0  0  0  0  0
   -1.8978   -0.4486   -0.2716 H   0  0  0  0  0  0  0  0  0  0  0  0
    0.1693   -0.2866    0.0854 C   0  0  1  0  0  0  0  0  0  0  0  0
    0.8425   -0.7905    0.7811 H   0  0  0  0  0  0  0  0  0  0  0  0
    0.7993   -0.3404   -1.3233 C   0  0  0  0  0  0  0  0  0  0  0  0
    0.4680    0.5324   -1.8887 H   0  0  0  0  0  0  0  0  0  0  0  0
    1.8855   -0.2810   -1.2254 H   0  0  0  0  0  0  0  0  0  0  0  0
    0.4315   -1.5896   -2.1391 C   0  0  0  0  0  0  0  0  0  0  0  0
    0.1034   -1.4454   -3.3404 O   0  5  0  0  0  0  0  0  0  0  0  0
    0.4637   -2.6870   -1.5418 O   0  0  0  0  0  0  0  0  0  0  0  0
   -0.0374    1.1645    0.5781 C   0  0  0  0  0  0  0  0  0  0  0  0
   -0.9816    1.8416    0.1544 O   0  0  0  0  0  0  0  0  0  0  0  0
    0.8235    1.6462    1.4801 N   0  0  0  0  0  0  0  0  0  0  0  0
    1.6183    1.0435    1.7020 H   0  0  0  0  0  0  0  0  0  0  0  0
    0.7895    2.9929    2.0404 C   0  0  0  0  0  0  0  0  0  0  0  0
   -0.2344    3.2522    2.3130 H   0  0  0  0  0  0  0  0  0  0  0  0
    1.4265    3.0377    2.9233 H   0  0  0  0  0  0  0  0  0  0  0  0
    1.1511    3.7014    1.2950 H   0  0  0  0  0  0  0  0  0  0  0  0
  5  6  2  0  0  0  0
  5  7  1  0  0  0  0
  2  3  1  0  0  0  0
  2  4  1  0  0  0  0
  2  5  1  0  0  0  0
  1  2  1  0  0  0  0
 17 18  2  0  0  0  0
 17 19  1  0  0  0  0
 14 15  1  0  0  0  0
 14 16  2  0  0  0  0
 11 12  1  0  0  0  0
 11 13  1  0  0  0  0
 11 14  1  0  0  0  0
  9 10  1  0  0  0  0
  9 11  1  0  0  0  0
  9 17  1  0  0  0  0
  7  8  1  0  0  0  0
  7  9  1  0  0  0  0
 21 22  1  0  0  0  0
 21 23  1  0  0  0  0
 21 24  1  0  0  0  0
 19 20  1  0  0  0  0
 19 21  1  0  0  0  0
M  CHG  1  15  -1
M  END
$$$$
default_name
  -OEChem-02102213163D

 24 23  0     1  0  0  0  0  0999 V2000
   -2.8347   -3.7166    0.8034 H   0  0  0  0  0  0  0  0  0  0  0  0
   -2.7728   -2.7096    0.3954 C   0  0  0  0  0  0  0  0  0  0  0  0
   -3.4267   -2.0426    0.9524 H   0  0  0  0  0  0  0  0  0  0  0  0
   -3.0538   -2.7186   -0.6556 H   0  0  0  0  0  0  0  0  0  0  0  0
   -1.3498   -2.2206    0.5184 C   0  0  0  0  0  0  0  0  0  0  0  0
   -0.4997   -2.9426    1.0194 O   0  0  0  0  0  0  0  0  0  0  0  0
   -1.1198   -0.9926    0.0674 N   0  0  0  0  0  0  0  0  0  0  0  0
   -1.8978   -0.4486   -0.2716 H   0  0  0  0  0  0  0  0  0  0  0  0
    0.1693   -0.2866    0.0854 C   0  0  1  0  0  0  0  0  0  0  0  0
    0.8425   -0.7905    0.7811 H   0  0  0  0  0  0  0  0  0  0  0  0
    0.7993   -0.3404   -1.3233 C   0  0  0  0  0  0  0  0  0  0  0  0
    0.4680    0.5324   -1.8887 H   0  0  0  0  0  0  0  0  0  0  0  0
    1.8855   -0.2810   -1.2254 H   0  0  0  0  0  0  0  0  0  0  0  0
    0.4315   -1.5896   -2.1391 C   0  0  0  0  0  0  0  0  0  0  0  0
    0.3823   -1.4962   -3.3883 O   0  5  0  0  0  0  0  0  0  0  0  0
    0.1815   -2.6328   -1.4976 O   0  0  0  0  0  0  0  0  0  0  0  0
   -0.0374    1.1645    0.5781 C   0  0  0  0  0  0  0  0  0  0  0  0
   -0.9816    1.8416    0.1544 O   0  0  0  0  0  0  0  0  0  0  0  0
    0.8235    1.6462    1.4801 N   0  0  0  0  0  0  0  0  0  0  0  0
    1.6183    1.0435    1.7020 H   0  0  0  0  0  0  0  0  0  0  0  0
    0.7895    2.9929    2.0404 C   0  0  0  0  0  0  0  0  0  0  0  0
   -0.2344    3.2522    2.3130 H   0  0  0  0  0  0  0  0  0  0  0  0
    1.4265    3.0377    2.9233 H   0  0  0  0  0  0  0  0  0  0  0  0
    1.1511    3.7014    1.2950 H   0  0  0  0  0  0  0  0  0  0  0  0
  5  6  2  0  0  0  0
  5  7  1  0  0  0  0
  2  3  1  0  0  0  0
  2  4  1  0  0  0  0
  2  5  1  0  0  0  0
  1  2  1  0  0  0  0
 17 18  2  0  0  0  0
 17 19  1  0  0  0  0
 14 15  1  0  0  0  0
 14 16  2  0  0  0  0
 11 12  1  0  0  0  0
 11 13  1  0  0  0  0
 11 14  1  0  0  0  0
  9 10  1  0  0  0  0
  9 11  1  0  0  0  0
  9 17  1  0  0  0  0
  7  8  1  0  0  0  0
  7  9  1  0  0  0  0
 21 22  1  0  0  0  0
 21 23  1  0  0  0  0
 21 24  1  0  0  0  0
 19 20  1  0  0  0  0
 19 21  1  0  0  0  0
M  CHG  1  15  -1
M  END
$$$$
default_name
  -OEChem-02102213163D

 24 23  0     1  0  0  0  0  0999 V2000
   -2.8347   -3.7166    0.8034 H   0  0  0  0  0  0  0  0  0  0  0  0
   -2.7728   -2.7096    0.3954 C   0  0  0  0  0  0  0  0  0  0  0  0
   -3.4267   -2.0426    0.9524 H   0  0  0  0  0  0  0  0  0  0  0  0
   -3.0538   -2.7186   -0.6556 H   0  0  0  0  0  0  0  0  0  0  0  0
   -1.3498   -2.2206    0.5184 C   0  0  0  0  0  0  0  0  0  0  0  0
   -0.4997   -2.9426    1.0194 O   0  0  0  0  0  0  0  0  0  0  0  0
   -1.1198   -0.9926    0.0674 N   0  0  0  0  0  0  0  0  0  0  0  0
   -1.8978   -0.4486   -0.2716 H   0  0  0  0  0  0  0  0  0  0  0  0
    0.1693   -0.2866    0.0854 C   0  0  1  0  0  0  0  0  0  0  0  0
    0.8425   -0.7905    0.7811 H   0  0  0  0  0  0  0  0  0  0  0  0
    0.7993   -0.3404   -1.3233 C   0  0  0  0  0  0  0  0  0  0  0  0
    0.4680    0.5324   -1.8887 H   0  0  0  0  0  0  0  0  0  0  0  0
    1.8855   -0.2810   -1.2254 H   0  0  0  0  0  0  0  0  0  0  0  0
    0.4315   -1.5896   -2.1391 C   0  0  0  0  0  0  0  0  0  0  0  0
    0.6548   -1.5866   -3.3727 O   0  5  0  0  0  0  0  0  0  0  0  0
   -0.0929   -2.5389   -1.5177 O   0  0  0  0  0  0  0  0  0  0  0  0
   -0.0374    1.1645    0.5781 C   0  0  0  0  0  0  0  0  0  0  0  0
   -0.9816    1.8416    0.1544 O   0  0  0  0  0  0  0  0  0  0  0  0
    0.8235    1.6462    1.4801 N   0  0  0  0  0  0  0  0  0  0  0  0
    1.6183    1.0435    1.7020 H   0  0  0  0  0  0  0  0  0  0  0  0
    0.7895    2.9929    2.0404 C   0  0  0  0  0  0  0  0  0  0  0  0
   -0.2344    3.2522    2.3130 H   0  0  0  0  0  0  0  0  0  0  0  0
    1.4265    3.0377    2.9233 H   0  0  0  0  0  0  0  0  0  0  0  0
    1.1511    3.7014    1.2950 H   0  0  0  0  0  0  0  0  0  0  0  0
  5  6  2  0  0  0  0
  5  7  1  0  0  0  0
  2  3  1  0  0  0  0
  2  4  1  0  0  0  0
  2  5  1  0  0  0  0
  1  2  1  0  0  0  0
 17 18  2  0  0  0  0
 17 19  1  0  0  0  0
 14 15  1  0  0  0  0
 14 16  2  0  0  0  0
 11 12  1  0  0  0  0
 11 13  1  0  0  0  0
 11 14  1  0  0  0  0
  9 10  1  0  0  0  0
  9 11  1  0  0  0  0
  9 17  1  0  0  0  0
  7  8  1  0  0  0  0
  7  9  1  0  0  0  0
 21 22  1  0  0  0  0
 21 23  1  0  0  0  0
 21 24  1  0  0  0  0
 19 20  1  0  0  0  0
 19 21  1  0  0  0  0
M  CHG  1  15  -1
M  END
$$$$
default_name
  -OEChem-02102213163D

 24 23  0     1  0  0  0  0  0999 V2000
   -2.8347   -3.7166    0.8034 H   0  0  0  0  0  0  0  0  0  0  0  0
   -2.7728   -2.7096    0.3954 C   0  0  0  0  0  0  0  0  0  0  0  0
   -3.4267   -2.0426    0.9524 H   0  0  0  0  0  0  0  0  0  0  0  0
   -3.0538   -2.7186   -0.6556 H   0  0  0  0  0  0  0  0  0  0  0  0
   -1.3498   -2.2206    0.5184 C   0  0  0  0  0  0  0  0  0  0  0  0
   -0.4997   -2.9426    1.0194 O   0  0  0  0  0  0  0  0  0  0  0  0
   -1.1198   -0.9926    0.0674 N   0  0  0  0  0  0  0  0  0  0  0  0
   -1.8978   -0.4486   -0.2716 H   0  0  0  0  0  0  0  0  0  0  0  0
    0.1693   -0.2866    0.0854 C   0  0  1  0  0  0  0  0  0  0  0  0
    0.8425   -0.7905    0.7811 H   0  0  0  0  0  0  0  0  0  0  0  0
    0.7993   -0.3404   -1.3233 C   0  0  0  0  0  0  0  0  0  0  0  0
    0.6953    0.6402   -1.7912 H   0  0  0  0  0  0  0  0  0  0  0  0
    1.8665   -0.5503   -1.2237 H   0  0  0  0  0  0  0  0  0  0  0  0
    0.1653   -1.3748   -2.2664 C   0  0  0  0  0  0  0  0  0  0  0  0
    0.6193   -1.4821   -3.4300 O   0  5  0  0  0  0  0  0  0  0  0  0
   -0.7905   -2.0424   -1.8159 O   0  0  0  0  0  0  0  0  0  0  0  0
   -0.0374    1.1645    0.5781 C   0  0  0  0  0  0  0  0  0  0  0  0
   -0.9816    1.8416    0.1544 O   0  0  0  0  0  0  0  0  0  0  0  0
    0.8235    1.6462    1.4801 N   0  0  0  0  0  0  0  0  0  0  0  0
    1.6183    1.0435    1.7020 H   0  0  0  0  0  0  0  0  0  0  0  0
    0.7895    2.9929    2.0404 C   0  0  0  0  0  0  0  0  0  0  0  0
   -0.2344    3.2522    2.3130 H   0  0  0  0  0  0  0  0  0  0  0  0
    1.4265    3.0377    2.9233 H   0  0  0  0  0  0  0  0  0  0  0  0
    1.1511    3.7014    1.2950 H   0  0  0  0  0  0  0  0  0  0  0  0
  5  6  2  0  0  0  0
  5  7  1  0  0  0  0
  2  3  1  0  0  0  0
  2  4  1  0  0  0  0
  2  5  1  0  0  0  0
  1  2  1  0  0  0  0
 17 18  2  0  0  0  0
 17 19  1  0  0  0  0
 14 15  1  0  0  0  0
 14 16  2  0  0  0  0
 11 12  1  0  0  0  0
 11 13  1  0  0  0  0
 11 14  1  0  0  0  0
  9 10  1  0  0  0  0
  9 11  1  0  0  0  0
  9 17  1  0  0  0  0
  7  8  1  0  0  0  0
  7  9  1  0  0  0  0
 21 22  1  0  0  0  0
 21 23  1  0  0  0  0
 21 24  1  0  0  0  0
 19 20  1  0  0  0  0
 19 21  1  0  0  0  0
M  CHG  1  15  -1
M  END
$$$$
default_name
  -OEChem-02102213163D

 24 23  0     1  0  0  0  0  0999 V2000
   -2.8347   -3.7166    0.8034 H   0  0  0  0  0  0  0  0  0  0  0  0
   -2.7728   -2.7096    0.3954 C   0  0  0  0  0  0  0  0  0  0  0  0
   -3.4267   -2.0426    0.9524 H   0  0  0  0  0  0  0  0  0  0  0  0
   -3.0538   -2.7186   -0.6556 H   0  0  0  0  0  0  0  0  0  0  0  0
   -1.3498   -2.2206    0.5184 C   0  0  0  0  0  0  0  0  0  0  0  0
   -0.4997   -2.9426    1.0194 O   0  0  0  0  0  0  0  0  0  0  0  0
   -1.1198   -0.9926    0.0674 N   0  0  0  0  0  0  0  0  0  0  0  0
   -1.8978   -0.4486   -0.2716 H   0  0  0  0  0  0  0  0  0  0  0  0
    0.1693   -0.2866    0.0854 C   0  0  1  0  0  0  0  0  0  0  0  0
    0.8425   -0.7905    0.7811 H   0  0  0  0  0  0  0  0  0  0  0  0
    0.7993   -0.3404   -1.3233 C   0  0  0  0  0  0  0  0  0  0  0  0
    0.6953    0.6402   -1.7912 H   0  0  0  0  0  0  0  0  0  0  0  0
    1.8665   -0.5503   -1.2237 H   0  0  0  0  0  0  0  0  0  0  0  0
    0.1653   -1.3748   -2.2664 C   0  0  0  0  0  0  0  0  0  0  0  0
    0.7811   -1.6885   -3.3123 O   0  5  0  0  0  0  0  0  0  0  0  0
   -0.9504   -1.8328   -1.9383 O   0  0  0  0  0  0  0  0  0  0  0  0
   -0.0374    1.1645    0.5781 C   0  0  0  0  0  0  0  0  0  0  0  0
   -0.9816    1.8416    0.1544 O   0  0  0  0  0  0  0  0  0  0  0  0
    0.8235    1.6462    1.4801 N   0  0  0  0  0  0  0  0  0  0  0  0
    1.6183    1.0435    1.7020 H   0  0  0  0  0  0  0  0  0  0  0  0
    0.7895    2.9929    2.0404 C   0  0  0  0  0  0  0  0  0  0  0  0
   -0.2344    3.2522    2.3130 H   0  0  0  0  0  0  0  0  0  0  0  0
    1.4265    3.0377    2.9233 H   0  0  0  0  0  0  0  0  0  0  0  0
    1.1511    3.7014    1.2950 H   0  0  0  0  0  0  0  0  0  0  0  0
  5  6  2  0  0  0  0
  5  7  1  0  0  0  0
  2  3  1  0  0  0  0
  2  4  1  0  0  0  0
  2  5  1  0  0  0  0
  1  2  1  0  0  0  0
 17 18  2  0  0  0  0
 17 19  1  0  0  0  0
 14 15  1  0  0  0  0
 14 16  2  0  0  0  0
 11 12  1  0  0  0  0
 11 13  1  0  0  0  0
 11 14  1  0  0  0  0
  9 10  1  0  0  0  0
  9 11  1  0  0  0  0
  9 17  1  0  0  0  0
  7  8  1  0  0  0  0
  7  9  1  0  0  0  0
 21 22  1  0  0  0  0
 21 23  1  0  0  0  0
 21 24  1  0  0  0  0
 19 20  1  0  0  0  0
 19 21  1  0  0  0  0
M  CHG  1  15  -1
M  END
$$$$
default_name
  -OEChem-02102213163D

 24 23  0     1  0  0  0  0  0999 V2000
   -2.8347   -3.7166    0.8034 H   0  0  0  0  0  0  0  0  0  0  0  0
   -2.7728   -2.7096    0.3954 C   0  0  0  0  0  0  0  0  0  0  0  0
   -3.4267   -2.0426    0.9524 H   0  0  0  0  0  0  0  0  0  0  0  0
   -3.0538   -2.7186   -0.6556 H   0  0  0  0  0  0  0  0  0  0  0  0
   -1.3498   -2.2206    0.5184 C   0  0  0  0  0  0  0  0  0  0  0  0
   -0.4997   -2.9426    1.0194 O   0  0  0  0  0  0  0  0  0  0  0  0
   -1.1198   -0.9926    0.0674 N   0  0  0  0  0  0  0  0  0  0  0  0
   -1.8978   -0.4486   -0.2716 H   0  0  0  0  0  0  0  0  0  0  0  0
    0.1693   -0.2866    0.0854 C   0  0  1  0  0  0  0  0  0  0  0  0
    0.8425   -0.7905    0.7811 H   0  0  0  0  0  0  0  0  0  0  0  0
    0.7993   -0.3404   -1.3233 C   0  0  0  0  0  0  0  0  0  0  0  0
    0.6953    0.6402   -1.7912 H   0  0  0  0  0  0  0  0  0  0  0  0
    1.8665   -0.5503   -1.2237 H   0  0  0  0  0  0  0  0  0  0  0  0
    0.1653   -1.3748   -2.2664 C   0  0  0  0  0  0  0  0  0  0  0  0
    0.8841   -1.9011   -3.1484 O   0  5  0  0  0  0  0  0  0  0  0  0
   -1.0503   -1.6179   -2.1069 O   0  0  0  0  0  0  0  0  0  0  0  0
   -0.0374    1.1645    0.5781 C   0  0  0  0  0  0  0  0  0  0  0  0
   -0.9816    1.8416    0.1544 O   0  0  0  0  0  0  0  0  0  0  0  0
    0.8235    1.6462    1.4801 N   0  0  0  0  0  0  0  0  0  0  0  0
    1.6183    1.0435    1.7020 H   0  0  0  0  0  0  0  0  0  0  0  0
    0.7895    2.9929    2.0404 C   0  0  0  0  0  0  0  0  0  0  0  0
   -0.2344    3.2522    2.3130 H   0  0  0  0  0  0  0  0  0  0  0  0
    1.4265    3.0377    2.9233 H   0  0  0  0  0  0  0  0  0  0  0  0
    1.1511    3.7014    1.2950 H   0  0  0  0  0  0  0  0  0  0  0  0
  5  6  2  0  0  0  0
  5  7  1  0  0  0  0
  2  3  1  0  0  0  0
  2  4  1  0  0  0  0
  2  5  1  0  0  0  0
  1  2  1  0  0  0  0
 17 18  2  0  0  0  0
 17 19  1  0  0  0  0
 14 15  1  0  0  0  0
 14 16  2  0  0  0  0
 11 12  1  0  0  0  0
 11 13  1  0  0  0  0
 11 14  1  0  0  0  0
  9 10  1  0  0  0  0
  9 11  1  0  0  0  0
  9 17  1  0  0  0  0
  7  8  1  0  0  0  0
  7  9  1  0  0  0  0
 21 22  1  0  0  0  0
 21 23  1  0  0  0  0
 21 24  1  0  0  0  0
 19 20  1  0  0  0  0
 19 21  1  0  0  0  0
M  CHG  1  15  -1
M  END
$$$$
default_name
  -OEChem-02102213163D

 24 23  0     1  0  0  0  0  0999 V2000
   -2.8347   -3.7166    0.8034 H   0  0  0  0  0  0  0  0  0  0  0  0
   -2.7728   -2.7096    0.3954 C   0  0  0  0  0  0  0  0  0  0  0  0
   -3.4267   -2.0426    0.9524 H   0  0  0  0  0  0  0  0  0  0  0  0
   -3.0538   -2.7186   -0.6556 H   0  0  0  0  0  0  0  0  0  0  0  0
   -1.3498   -2.2206    0.5184 C   0  0  0  0  0  0  0  0  0  0  0  0
   -0.4997   -2.9426    1.0194 O   0  0  0  0  0  0  0  0  0  0  0  0
   -1.1198   -0.9926    0.0674 N   0  0  0  0  0  0  0  0  0  0  0  0
   -1.8978   -0.4486   -0.2716 H   0  0  0  0  0  0  0  0  0  0  0  0
    0.1693   -0.2866    0.0854 C   0  0  1  0  0  0  0  0  0  0  0  0
    0.8425   -0.7905    0.7811 H   0  0  0  0  0  0  0  0  0  0  0  0
    0.7993   -0.3404   -1.3233 C   0  0  0  0  0  0  0  0  0  0  0  0
    0.6953    0.6402   -1.7912 H   0  0  0  0  0  0  0  0  0  0  0  0
    1.8665   -0.5503   -1.2237 H   0  0  0  0  0  0  0  0  0  0  0  0
    0.1653   -1.3748   -2.2664 C   0  0  0  0  0  0  0  0  0  0  0  0
    0.9212   -2.1053   -2.9495 O   0  5  0  0  0  0  0  0  0  0  0  0
   -1.0832   -1.4126   -2.3100 O   0  0  0  0  0  0  0  0  0  0  0  0
   -0.0374    1.1645    0.5781 C   0  0  0  0  0  0  0  0  0  0  0  0
   -0.9816    1.8416    0.1544 O   0  0  0  0  0  0  0  0  0  0  0  0
    0.8235    1.6462    1.4801 N   0  0  0  0  0  0  0  0  0  0  0  0
    1.6183    1.0435    1.7020 H   0  0  0  0  0  0  0  0  0  0  0  0
    0.7895    2.9929    2.0404 C   0  0  0  0  0  0  0  0  0  0  0  0
   -0.2344    3.2522    2.3130 H   0  0  0  0  0  0  0  0  0  0  0  0
    1.4265    3.0377    2.9233 H   0  0  0  0  0  0  0  0  0  0  0  0
    1.1511    3.7014    1.2950 H   0  0  0  0  0  0  0  0  0  0  0  0
  5  6  2  0  0  0  0
  5  7  1  0  0  0  0
  2  3  1  0  0  0  0
  2  4  1  0  0  0  0
  2  5  1  0  0  0  0
  1  2  1  0  0  0  0
 17 18  2  0  0  0  0
 17 19  1  0  0  0  0
 14 15  1  0  0  0  0
 14 16  2  0  0  0  0
 11 12  1  0  0  0  0
 11 13  1  0  0  0  0
 11 14  1  0  0  0  0
  9 10  1  0  0  0  0
  9 11  1  0  0  0  0
  9 17  1  0  0  0  0
  7  8  1  0  0  0  0
  7  9  1  0  0  0  0
 21 22  1  0  0  0  0
 21 23  1  0  0  0  0
 21 24  1  0  0  0  0
 19 20  1  0  0  0  0
 19 21  1  0  0  0  0
M  CHG  1  15  -1
M  END
$$$$
default_name
  -OEChem-02102213163D

 24 23  0     1  0  0  0  0  0999 V2000
   -2.8347   -3.7166    0.8034 H   0  0  0  0  0  0  0  0  0  0  0  0
   -2.7728   -2.7096    0.3954 C   0  0  0  0  0  0  0  0  0  0  0  0
   -3.4267   -2.0426    0.9524 H   0  0  0  0  0  0  0  0  0  0  0  0
   -3.0538   -2.7186   -0.6556 H   0  0  0  0  0  0  0  0  0  0  0  0
   -1.3498   -2.2206    0.5184 C   0  0  0  0  0  0  0  0  0  0  0  0
   -0.4997   -2.9426    1.0194 O   0  0  0  0  0  0  0  0  0  0  0  0
   -1.1198   -0.9926    0.0674 N   0  0  0  0  0  0  0  0  0  0  0  0
   -1.8978   -0.4486   -0.2716 H   0  0  0  0  0  0  0  0  0  0  0  0
    0.1693   -0.2866    0.0854 C   0  0  1  0  0  0  0  0  0  0  0  0
    0.8425   -0.7905    0.7811 H   0  0  0  0  0  0  0  0  0  0  0  0
    0.7993   -0.3404   -1.3233 C   0  0  0  0  0  0  0  0  0  0  0  0
    0.6953    0.6402   -1.7912 H   0  0  0  0  0  0  0  0  0  0  0  0
    1.8665   -0.5503   -1.2237 H   0  0  0  0  0  0  0  0  0  0  0  0
    0.1653   -1.3748   -2.2664 C   0  0  0  0  0  0  0  0  0  0  0  0
    0.8900   -2.2871   -2.7290 O   0  5  0  0  0  0  0  0  0  0  0  0
   -1.0471   -1.2306   -2.5338 O   0  0  0  0  0  0  0  0  0  0  0  0
   -0.0374    1.1645    0.5781 C   0  0  0  0  0  0  0  0  0  0  0  0
   -0.9816    1.8416    0.1544 O   0  0  0  0  0  0  0  0  0  0  0  0
    0.8235    1.6462    1.4801 N   0  0  0  0  0  0  0  0  0  0  0  0
    1.6183    1.0435    1.7020 H   0  0  0  0  0  0  0  0  0  0  0  0
    0.7895    2.9929    2.0404 C   0  0  0  0  0  0  0  0  0  0  0  0
   -0.2344    3.2522    2.3130 H   0  0  0  0  0  0  0  0  0  0  0  0
    1.4265    3.0377    2.9233 H   0  0  0  0  0  0  0  0  0  0  0  0
    1.1511    3.7014    1.2950 H   0  0  0  0  0  0  0  0  0  0  0  0
  5  6  2  0  0  0  0
  5  7  1  0  0  0  0
  2  3  1  0  0  0  0
  2  4  1  0  0  0  0
  2  5  1  0  0  0  0
  1  2  1  0  0  0  0
 17 18  2  0  0  0  0
 17 19  1  0  0  0  0
 14 15  1  0  0  0  0
 14 16  2  0  0  0  0
 11 12  1  0  0  0  0
 11 13  1  0  0  0  0
 11 14  1  0  0  0  0
  9 10  1  0  0  0  0
  9 11  1  0  0  0  0
  9 17  1  0  0  0  0
  7  8  1  0  0  0  0
  7  9  1  0  0  0  0
 21 22  1  0  0  0  0
 21 23  1  0  0  0  0
 21 24  1  0  0  0  0
 19 20  1  0  0  0  0
 19 21  1  0  0  0  0
M  CHG  1  15  -1
M  END
$$$$
default_name
  -OEChem-02102213163D

 24 23  0     1  0  0  0  0  0999 V2000
   -2.8347   -3.7166    0.8034 H   0  0  0  0  0  0  0  0  0  0  0  0
   -2.7728   -2.7096    0.3954 C   0  0  0  0  0  0  0  0  0  0  0  0
   -3.4267   -2.0426    0.9524 H   0  0  0  0  0  0  0  0  0  0  0  0
   -3.0538   -2.7186   -0.6556 H   0  0  0  0  0  0  0  0  0  0  0  0
   -1.3498   -2.2206    0.5184 C   0  0  0  0  0  0  0  0  0  0  0  0
   -0.4997   -2.9426    1.0194 O   0  0  0  0  0  0  0  0  0  0  0  0
   -1.1198   -0.9926    0.0674 N   0  0  0  0  0  0  0  0  0  0  0  0
   -1.8978   -0.4486   -0.2716 H   0  0  0  0  0  0  0  0  0  0  0  0
    0.1693   -0.2866    0.0854 C   0  0  1  0  0  0  0  0  0  0  0  0
    0.8425   -0.7905    0.7811 H   0  0  0  0  0  0  0  0  0  0  0  0
    0.7993   -0.3404   -1.3233 C   0  0  0  0  0  0  0  0  0  0  0  0
    0.6953    0.6402   -1.7912 H   0  0  0  0  0  0  0  0  0  0  0  0
    1.8665   -0.5503   -1.2237 H   0  0  0  0  0  0  0  0  0  0  0  0
    0.1653   -1.3748   -2.2664 C   0  0  0  0  0  0  0  0  0  0  0  0
    0.7926   -2.4343   -2.5021 O   0  5  0  0  0  0  0  0  0  0  0  0
   -0.9442   -1.0845   -2.7632 O   0  0  0  0  0  0  0  0  0  0  0  0
   -0.0374    1.1645    0.5781 C   0  0  0  0  0  0  0  0  0  0  0  0
   -0.9816    1.8416    0.1544 O   0  0  0  0  0  0  0  0  0  0  0  0
    0.8235    1.6462    1.4801 N   0  0  0  0  0  0  0  0  0  0  0  0
    1.6183    1.0435    1.7020 H   0  0  0  0  0  0  0  0  0  0  0  0
    0.7895    2.9929    2.0404 C   0  0  0  0  0  0  0  0  0  0  0  0
   -0.2344    3.2522    2.3130 H   0  0  0  0  0  0  0  0  0  0  0  0
    1.4265    3.0377    2.9233 H   0  0  0  0  0  0  0  0  0  0  0  0
    1.1511    3.7014    1.2950 H   0  0  0  0  0  0  0  0  0  0  0  0
  5  6  2  0  0  0  0
  5  7  1  0  0  0  0
  2  3  1  0  0  0  0
  2  4  1  0  0  0  0
  2  5  1  0  0  0  0
  1  2  1  0  0  0  0
 17 18  2  0  0  0  0
 17 19  1  0  0  0  0
 14 15  1  0  0  0  0
 14 16  2  0  0  0  0
 11 12  1  0  0  0  0
 11 13  1  0  0  0  0
 11 14  1  0  0  0  0
  9 10  1  0  0  0  0
  9 11  1  0  0  0  0
  9 17  1  0  0  0  0
  7  8  1  0  0  0  0
  7  9  1  0  0  0  0
 21 22  1  0  0  0  0
 21 23  1  0  0  0  0
 21 24  1  0  0  0  0
 19 20  1  0  0  0  0
 19 21  1  0  0  0  0
M  CHG  1  15  -1
M  END
$$$$
default_name
  -OEChem-02102213163D

 24 23  0     1  0  0  0  0  0999 V2000
   -2.8347   -3.7166    0.8034 H   0  0  0  0  0  0  0  0  0  0  0  0
   -2.7728   -2.7096    0.3954 C   0  0  0  0  0  0  0  0  0  0  0  0
   -3.4267   -2.0426    0.9524 H   0  0  0  0  0  0  0  0  0  0  0  0
   -3.0538   -2.7186   -0.6556 H   0  0  0  0  0  0  0  0  0  0  0  0
   -1.3498   -2.2206    0.5184 C   0  0  0  0  0  0  0  0  0  0  0  0
   -0.4997   -2.9426    1.0194 O   0  0  0  0  0  0  0  0  0  0  0  0
   -1.1198   -0.9926    0.0674 N   0  0  0  0  0  0  0  0  0  0  0  0
   -1.8978   -0.4486   -0.2716 H   0  0  0  0  0  0  0  0  0  0  0  0
    0.1693   -0.2866    0.0854 C   0  0  1  0  0  0  0  0  0  0  0  0
    0.8425   -0.7905    0.7811 H   0  0  0  0  0  0  0  0  0  0  0  0
    0.7993   -0.3404   -1.3233 C   0  0  0  0  0  0  0  0  0  0  0  0
    0.6953    0.6402   -1.7912 H   0  0  0  0  0  0  0  0  0  0  0  0
    1.8665   -0.5503   -1.2237 H   0  0  0  0  0  0  0  0  0  0  0  0
    0.1653   -1.3748   -2.2664 C   0  0  0  0  0  0  0  0  0  0  0  0
    0.6356   -2.5368   -2.2842 O   0  5  0  0  0  0  0  0  0  0  0  0
   -0.7817   -0.9843   -2.9824 O   0  0  0  0  0  0  0  0  0  0  0  0
   -0.0374    1.1645    0.5781 C   0  0  0  0  0  0  0  0  0  0  0  0
   -0.9816    1.8416    0.1544 O   0  0  0  0  0  0  0  0  0  0  0  0
    0.8235    1.6462    1.4801 N   0  0  0  0  0  0  0  0  0  0  0  0
    1.6183    1.0435    1.7020 H   0  0  0  0  0  0  0  0  0  0  0  0
    0.7895    2.9929    2.0404 C   0  0  0  0  0  0  0  0  0  0  0  0
   -0.2344    3.2522    2.3130 H   0  0  0  0  0  0  0  0  0  0  0  0
    1.4265    3.0377    2.9233 H   0  0  0  0  0  0  0  0  0  0  0  0
    1.1511    3.7014    1.2950 H   0  0  0  0  0  0  0  0  0  0  0  0
  5  6  2  0  0  0  0
  5  7  1  0  0  0  0
  2  3  1  0  0  0  0
  2  4  1  0  0  0  0
  2  5  1  0  0  0  0
  1  2  1  0  0  0  0
 17 18  2  0  0  0  0
 17 19  1  0  0  0  0
 14 15  1  0  0  0  0
 14 16  2  0  0  0  0
 11 12  1  0  0  0  0
 11 13  1  0  0  0  0
 11 14  1  0  0  0  0
  9 10  1  0  0  0  0
  9 11  1  0  0  0  0
  9 17  1  0  0  0  0
  7  8  1  0  0  0  0
  7  9  1  0  0  0  0
 21 22  1  0  0  0  0
 21 23  1  0  0  0  0
 21 24  1  0  0  0  0
 19 20  1  0  0  0  0
 19 21  1  0  0  0  0
M  CHG  1  15  -1
M  END
$$$$
default_name
  -OEChem-02102213163D

 24 23  0     1  0  0  0  0  0999 V2000
   -2.8347   -3.7166    0.8034 H   0  0  0  0  0  0  0  0  0  0  0  0
   -2.7728   -2.7096    0.3954 C   0  0  0  0  0  0  0  0  0  0  0  0
   -3.4267   -2.0426    0.9524 H   0  0  0  0  0  0  0  0  0  0  0  0
   -3.0538   -2.7186   -0.6556 H   0  0  0  0  0  0  0  0  0  0  0  0
   -1.3498   -2.2206    0.5184 C   0  0  0  0  0  0  0  0  0  0  0  0
   -0.4997   -2.9426    1.0194 O   0  0  0  0  0  0  0  0  0  0  0  0
   -1.1198   -0.9926    0.0674 N   0  0  0  0  0  0  0  0  0  0  0  0
   -1.8978   -0.4486   -0.2716 H   0  0  0  0  0  0  0  0  0  0  0  0
    0.1693   -0.2866    0.0854 C   0  0  1  0  0  0  0  0  0  0  0  0
    0.8425   -0.7905    0.7811 H   0  0  0  0  0  0  0  0  0  0  0  0
    0.7993   -0.3404   -1.3233 C   0  0  0  0  0  0  0  0  0  0  0  0
    0.6953    0.6402   -1.7912 H   0  0  0  0  0  0  0  0  0  0  0  0
    1.8665   -0.5503   -1.2237 H   0  0  0  0  0  0  0  0  0  0  0  0
    0.1653   -1.3748   -2.2664 C   0  0  0  0  0  0  0  0  0  0  0  0
    0.4297   -2.5875   -2.0901 O   0  5  0  0  0  0  0  0  0  0  0  0
   -0.5706   -0.9366   -3.1766 O   0  0  0  0  0  0  0  0  0  0  0  0
   -0.0374    1.1645    0.5781 C   0  0  0  0  0  0  0  0  0  0  0  0
   -0.9816    1.8416    0.1544 O   0  0  0  0  0  0  0  0  0  0  0  0
    0.8235    1.6462    1.4801 N   0  0  0  0  0  0  0  0  0  0  0  0
    1.6183    1.0435    1.7020 H   0  0  0  0  0  0  0  0  0  0  0  0
    0.7895    2.9929    2.0404 C   0  0  0  0  0  0  0  0  0  0  0  0
   -0.2344    3.2522    2.3130 H   0  0  0  0  0  0  0  0  0  0  0  0
    1.4265    3.0377    2.9233 H   0  0  0  0  0  0  0  0  0  0  0  0
    1.1511    3.7014    1.2950 H   0  0  0  0  0  0  0  0  0  0  0  0
  5  6  2  0  0  0  0
  5  7  1  0  0  0  0
  2  3  1  0  0  0  0
  2  4  1  0  0  0  0
  2  5  1  0  0  0  0
  1  2  1  0  0  0  0
 17 18  2  0  0  0  0
 17 19  1  0  0  0  0
 14 15  1  0  0  0  0
 14 16  2  0  0  0  0
 11 12  1  0  0  0  0
 11 13  1  0  0  0  0
 11 14  1  0  0  0  0
  9 10  1  0  0  0  0
  9 11  1  0  0  0  0
  9 17  1  0  0  0  0
  7  8  1  0  0  0  0
  7  9  1  0  0  0  0
 21 22  1  0  0  0  0
 21 23  1  0  0  0  0
 21 24  1  0  0  0  0
 19 20  1  0  0  0  0
 19 21  1  0  0  0  0
M  CHG  1  15  -1
M  END
$$$$
default_name
  -OEChem-02102213163D

 24 23  0     1  0  0  0  0  0999 V2000
   -2.8347   -3.7166    0.8034 H   0  0  0  0  0  0  0  0  0  0  0  0
   -2.7728   -2.7096    0.3954 C   0  0  0  0  0  0  0  0  0  0  0  0
   -3.4267   -2.0426    0.9524 H   0  0  0  0  0  0  0  0  0  0  0  0
   -3.0538   -2.7186   -0.6556 H   0  0  0  0  0  0  0  0  0  0  0  0
   -1.3498   -2.2206    0.5184 C   0  0  0  0  0  0  0  0  0  0  0  0
   -0.4997   -2.9426    1.0194 O   0  0  0  0  0  0  0  0  0  0  0  0
   -1.1198   -0.9926    0.0674 N   0  0  0  0  0  0  0  0  0  0  0  0
   -1.8978   -0.4486   -0.2716 H   0  0  0  0  0  0  0  0  0  0  0  0
    0.1693   -0.2866    0.0854 C   0  0  1  0  0  0  0  0  0  0  0  0
    0.8425   -0.7905    0.7811 H   0  0  0  0  0  0  0  0  0  0  0  0
    0.7993   -0.3404   -1.3233 C   0  0  0  0  0  0  0  0  0  0  0  0
    0.6953    0.6402   -1.7912 H   0  0  0  0  0  0  0  0  0  0  0  0
    1.8665   -0.5503   -1.2237 H   0  0  0  0  0  0  0  0  0  0  0  0
    0.1653   -1.3748   -2.2664 C   0  0  0  0  0  0  0  0  0  0  0  0
    0.1889   -2.5831   -1.9330 O   0  5  0  0  0  0  0  0  0  0  0  0
   -0.3254   -0.9449   -3.3325 O   0  0  0  0  0  0  0  0  0  0  0  0
   -0.0374    1.1645    0.5781 C   0  0  0  0  0  0  0  0  0  0  0  0
   -0.9816    1.8416    0.1544 O   0  0  0  0  0  0  0  0  0  0  0  0
    0.8235    1.6462    1.4801 N   0  0  0  0  0  0  0  0  0  0  0  0
    1.6183    1.0435    1.7020 H   0  0  0  0  0  0  0  0  0  0  0  0
    0.7895    2.9929    2.0404 C   0  0  0  0  0  0  0  0  0  0  0  0
   -0.2344    3.2522    2.3130 H   0  0  0  0  0  0  0  0  0  0  0  0
    1.4265    3.0377    2.9233 H   0  0  0  0  0  0  0  0  0  0  0  0
    1.1511    3.7014    1.2950 H   0  0  0  0  0  0  0  0  0  0  0  0
  5  6  2  0  0  0  0
  5  7  1  0  0  0  0
  2  3  1  0  0  0  0
  2  4  1  0  0  0  0
  2  5  1  0  0  0  0
  1  2  1  0  0  0  0
 17 18  2  0  0  0  0
 17 19  1  0  0  0  0
 14 15  1  0  0  0  0
 14 16  2  0  0  0  0
 11 12  1  0  0  0  0
 11 13  1  0  0  0  0
 11 14  1  0  0  0  0
  9 10  1  0  0  0  0
  9 11  1  0  0  0  0
  9 17  1  0  0  0  0
  7  8  1  0  0  0  0
  7  9  1  0  0  0  0
 21 22  1  0  0  0  0
 21 23  1  0  0  0  0
 21 24  1  0  0  0  0
 19 20  1  0  0  0  0
 19 21  1  0  0  0  0
M  CHG  1  15  -1
M  END
$$$$
default_name
  -OEChem-02102213163D

 24 23  0     1  0  0  0  0  0999 V2000
   -2.8347   -3.7166    0.8034 H   0  0  0  0  0  0  0  0  0  0  0  0
   -2.7728   -2.7096    0.3954 C   0  0  0  0  0  0  0  0  0  0  0  0
   -3.4267   -2.0426    0.9524 H   0  0  0  0  0  0  0  0  0  0  0  0
   -3.0538   -2.7186   -0.6556 H   0  0  0  0  0  0  0  0  0  0  0  0
   -1.3498   -2.2206    0.5184 C   0  0  0  0  0  0  0  0  0  0  0  0
   -0.4997   -2.9426    1.0194 O   0  0  0  0  0  0  0  0  0  0  0  0
   -1.1198   -0.9926    0.0674 N   0  0  0  0  0  0  0  0  0  0  0  0
   -1.8978   -0.4486   -0.2716 H   0  0  0  0  0  0  0  0  0  0  0  0
    0.1693   -0.2866    0.0854 C   0  0  1  0  0  0  0  0  0  0  0  0
    0.8425   -0.7905    0.7811 H   0  0  0  0  0  0  0  0  0  0  0  0
    0.7993   -0.3404   -1.3233 C   0  0  0  0  0  0  0  0  0  0  0  0
    0.6953    0.6402   -1.7912 H   0  0  0  0  0  0  0  0  0  0  0  0
    1.8665   -0.5503   -1.2237 H   0  0  0  0  0  0  0  0  0  0  0  0
    0.1653   -1.3748   -2.2664 C   0  0  0  0  0  0  0  0  0  0  0  0
   -0.0703   -2.5238   -1.8238 O   0  5  0  0  0  0  0  0  0  0  0  0
   -0.0626   -1.0085   -3.4394 O   0  0  0  0  0  0  0  0  0  0  0  0
   -0.0374    1.1645    0.5781 C   0  0  0  0  0  0  0  0  0  0  0  0
   -0.9816    1.8416    0.1544 O   0  0  0  0  0  0  0  0  0  0  0  0
    0.8235    1.6462    1.4801 N   0  0  0  0  0  0  0  0  0  0  0  0
    1.6183    1.0435    1.7020 H   0  0  0  0  0  0  0  0  0  0  0  0
    0.7895    2.9929    2.0404 C   0  0  0  0  0  0  0  0  0  0  0  0
   -0.2344    3.2522    2.3130 H   0  0  0  0  0  0  0  0  0  0  0  0
    1.4265    3.0377    2.9233 H   0  0  0  0  0  0  0  0  0  0  0  0
    1.1511    3.7014    1.2950 H   0  0  0  0  0  0  0  0  0  0  0  0
  5  6  2  0  0  0  0
  5  7  1  0  0  0  0
  2  3  1  0  0  0  0
  2  4  1  0  0  0  0
  2  5  1  0  0  0  0
  1  2  1  0  0  0  0
 17 18  2  0  0  0  0
 17 19  1  0  0  0  0
 14 15  1  0  0  0  0
 14 16  2  0  0  0  0
 11 12  1  0  0  0  0
 11 13  1  0  0  0  0
 11 14  1  0  0  0  0
  9 10  1  0  0  0  0
  9 11  1  0  0  0  0
  9 17  1  0  0  0  0
  7  8  1  0  0  0  0
  7  9  1  0  0  0  0
 21 22  1  0  0  0  0
 21 23  1  0  0  0  0
 21 24  1  0  0  0  0
 19 20  1  0  0  0  0
 19 21  1  0  0  0  0
M  CHG  1  15  -1
M  END
$$$$
default_name
  -OEChem-02102213163D

 24 23  0     1  0  0  0  0  0999 V2000
   -2.8347   -3.7166    0.8034 H   0  0  0  0  0  0  0  0  0  0  0  0
   -2.7728   -2.7096    0.3954 C   0  0  0  0  0  0  0  0  0  0  0  0
   -3.4267   -2.0426    0.9524 H   0  0  0  0  0  0  0  0  0  0  0  0
   -3.0538   -2.7186   -0.6556 H   0  0  0  0  0  0  0  0  0  0  0  0
   -1.3498   -2.2206    0.5184 C   0  0  0  0  0  0  0  0  0  0  0  0
   -0.4997   -2.9426    1.0194 O   0  0  0  0  0  0  0  0  0  0  0  0
   -1.1198   -0.9926    0.0674 N   0  0  0  0  0  0  0  0  0  0  0  0
   -1.8978   -0.4486   -0.2716 H   0  0  0  0  0  0  0  0  0  0  0  0
    0.1693   -0.2866    0.0854 C   0  0  1  0  0  0  0  0  0  0  0  0
    0.8425   -0.7905    0.7811 H   0  0  0  0  0  0  0  0  0  0  0  0
    0.7993   -0.3404   -1.3233 C   0  0  0  0  0  0  0  0  0  0  0  0
    0.6953    0.6402   -1.7912 H   0  0  0  0  0  0  0  0  0  0  0  0
    1.8665   -0.5503   -1.2237 H   0  0  0  0  0  0  0  0  0  0  0  0
    0.1653   -1.3748   -2.2664 C   0  0  0  0  0  0  0  0  0  0  0  0
   -0.3303   -2.4137   -1.7697 O   0  5  0  0  0  0  0  0  0  0  0  0
    0.1998   -1.1230   -3.4901 O   0  0  0  0  0  0  0  0  0  0  0  0
   -0.0374    1.1645    0.5781 C   0  0  0  0  0  0  0  0  0  0  0  0
   -0.9816    1.8416    0.1544 O   0  0  0  0  0  0  0  0  0  0  0  0
    0.8235    1.6462    1.4801 N   0  0  0  0  0  0  0  0  0  0  0  0
    1.6183    1.0435    1.7020 H   0  0  0  0  0  0  0  0  0  0  0  0
    0.7895    2.9929    2.0404 C   0  0  0  0  0  0  0  0  0  0  0  0
   -0.2344    3.2522    2.3130 H   0  0  0  0  0  0  0  0  0  0  0  0
    1.4265    3.0377    2.9233 H   0  0  0  0  0  0  0  0  0  0  0  0
    1.1511    3.7014    1.2950 H   0  0  0  0  0  0  0  0  0  0  0  0
  5  6  2  0  0  0  0
  5  7  1  0  0  0  0
  2  3  1  0  0  0  0
  2  4  1  0  0  0  0
  2  5  1  0  0  0  0
  1  2  1  0  0  0  0
 17 18  2  0  0  0  0
 17 19  1  0  0  0  0
 14 15  1  0  0  0  0
 14 16  2  0  0  0  0
 11 12  1  0  0  0  0
 11 13  1  0  0  0  0
 11 14  1  0  0  0  0
  9 10  1  0  0  0  0
  9 11  1  0  0  0  0
  9 17  1  0  0  0  0
  7  8  1  0  0  0  0
  7  9  1  0  0  0  0
 21 22  1  0  0  0  0
 21 23  1  0  0  0  0
 21 24  1  0  0  0  0
 19 20  1  0  0  0  0
 19 21  1  0  0  0  0
M  CHG  1  15  -1
M  END
$$$$
default_name
  -OEChem-02102213163D

 24 23  0     1  0  0  0  0  0999 V2000
   -2.8347   -3.7166    0.8034 H   0  0  0  0  0  0  0  0  0  0  0  0
   -2.7728   -2.7096    0.3954 C   0  0  0  0  0  0  0  0  0  0  0  0
   -3.4267   -2.0426    0.9524 H   0  0  0  0  0  0  0  0  0  0  0  0
   -3.0538   -2.7186   -0.6556 H   0  0  0  0  0  0  0  0  0  0  0  0
   -1.3498   -2.2206    0.5184 C   0  0  0  0  0  0  0  0  0  0  0  0
   -0.4997   -2.9426    1.0194 O   0  0  0  0  0  0  0  0  0  0  0  0
   -1.1198   -0.9926    0.0674 N   0  0  0  0  0  0  0  0  0  0  0  0
   -1.8978   -0.4486   -0.2716 H   0  0  0  0  0  0  0  0  0  0  0  0
    0.1693   -0.2866    0.0854 C   0  0  1  0  0  0  0  0  0  0  0  0
    0.8425   -0.7905    0.7811 H   0  0  0  0  0  0  0  0  0  0  0  0
    0.7993   -0.3404   -1.3233 C   0  0  0  0  0  0  0  0  0  0  0  0
    0.6953    0.6402   -1.7912 H   0  0  0  0  0  0  0  0  0  0  0  0
    1.8665   -0.5503   -1.2237 H   0  0  0  0  0  0  0  0  0  0  0  0
    0.1653   -1.3748   -2.2664 C   0  0  0  0  0  0  0  0  0  0  0  0
   -0.5734   -2.2603   -1.7746 O   0  5  0  0  0  0  0  0  0  0  0  0
    0.4438   -1.2808   -3.4812 O   0  0  0  0  0  0  0  0  0  0  0  0
   -0.0374    1.1645    0.5781 C   0  0  0  0  0  0  0  0  0  0  0  0
   -0.9816    1.8416    0.1544 O   0  0  0  0  0  0  0  0  0  0  0  0
    0.8235    1.6462    1.4801 N   0  0  0  0  0  0  0  0  0  0  0  0
    1.6183    1.0435    1.7020 H   0  0  0  0  0  0  0  0  0  0  0  0
    0.7895    2.9929    2.0404 C   0  0  0  0  0  0  0  0  0  0  0  0
   -0.2344    3.2522    2.3130 H   0  0  0  0  0  0  0  0  0  0  0  0
    1.4265    3.0377    2.9233 H   0  0  0  0  0  0  0  0  0  0  0  0
    1.1511    3.7014    1.2950 H   0  0  0  0  0  0  0  0  0  0  0  0
  5  6  2  0  0  0  0
  5  7  1  0  0  0  0
  2  3  1  0  0  0  0
  2  4  1  0  0  0  0
  2  5  1  0  0  0  0
  1  2  1  0  0  0  0
 17 18  2  0  0  0  0
 17 19  1  0  0  0  0
 14 15  1  0  0  0  0
 14 16  2  0  0  0  0
 11 12  1  0  0  0  0
 11 13  1  0  0  0  0
 11 14  1  0  0  0  0
  9 10  1  0  0  0  0
  9 11  1  0  0  0  0
  9 17  1  0  0  0  0
  7  8  1  0  0  0  0
  7  9  1  0  0  0  0
 21 22  1  0  0  0  0
 21 23  1  0  0  0  0
 21 24  1  0  0  0  0
 19 20  1  0  0  0  0
 19 21  1  0  0  0  0
M  CHG  1  15  -1
M  END
$$$$
default_name
  -OEChem-02102213163D

 24 23  0     1  0  0  0  0  0999 V2000
   -2.8347   -3.7166    0.8034 H   0  0  0  0  0  0  0  0  0  0  0  0
   -2.7728   -2.7096    0.3954 C   0  0  0  0  0  0  0  0  0  0  0  0
   -3.4267   -2.0426    0.9524 H   0  0  0  0  0  0  0  0  0  0  0  0
   -3.0538   -2.7186   -0.6556 H   0  0  0  0  0  0  0  0  0  0  0  0
   -1.3498   -2.2206    0.5184 C   0  0  0  0  0  0  0  0  0  0  0  0
   -0.4997   -2.9426    1.0194 O   0  0  0  0  0  0  0  0  0  0  0  0
   -1.1198   -0.9926    0.0674 N   0  0  0  0  0  0  0  0  0  0  0  0
   -1.8978   -0.4486   -0.2716 H   0  0  0  0  0  0  0  0  0  0  0  0
    0.1693   -0.2866    0.0854 C   0  0  1  0  0  0  0  0  0  0  0  0
    0.8425   -0.7905    0.7811 H   0  0  0  0  0  0  0  0  0  0  0  0
    0.7993   -0.3404   -1.3233 C   0  0  0  0  0  0  0  0  0  0  0  0
    0.6953    0.6402   -1.7912 H   0  0  0  0  0  0  0  0  0  0  0  0
    1.8665   -0.5503   -1.2237 H   0  0  0  0  0  0  0  0  0  0  0  0
    0.1653   -1.3748   -2.2664 C   0  0  0  0  0  0  0  0  0  0  0  0
   -0.7830   -2.0740   -1.8380 O   0  5  0  0  0  0  0  0  0  0  0  0
    0.6529   -1.4709   -3.4131 O   0  0  0  0  0  0  0  0  0  0  0  0
   -0.0374    1.1645    0.5781 C   0  0  0  0  0  0  0  0  0  0  0  0
   -0.9816    1.8416    0.1544 O   0  0  0  0  0  0  0  0  0  0  0  0
    0.8235    1.6462    1.4801 N   0  0  0  0  0  0  0  0  0  0  0  0
    1.6183    1.0435    1.7020 H   0  0  0  0  0  0  0  0  0  0  0  0
    0.7895    2.9929    2.0404 C   0  0  0  0  0  0  0  0  0  0  0  0
   -0.2344    3.2522    2.3130 H   0  0  0  0  0  0  0  0  0  0  0  0
    1.4265    3.0377    2.9233 H   0  0  0  0  0  0  0  0  0  0  0  0
    1.1511    3.7014    1.2950 H   0  0  0  0  0  0  0  0  0  0  0  0
  5  6  2  0  0  0  0
  5  7  1  0  0  0  0
  2  3  1  0  0  0  0
  2  4  1  0  0  0  0
  2  5  1  0  0  0  0
  1  2  1  0  0  0  0
 17 18  2  0  0  0  0
 17 19  1  0  0  0  0
 14 15  1  0  0  0  0
 14 16  2  0  0  0  0
 11 12  1  0  0  0  0
 11 13  1  0  0  0  0
 11 14  1  0  0  0  0
  9 10  1  0  0  0  0
  9 11  1  0  0  0  0
  9 17  1  0  0  0  0
  7  8  1  0  0  0  0
  7  9  1  0  0  0  0
 21 22  1  0  0  0  0
 21 23  1  0  0  0  0
 21 24  1  0  0  0  0
 19 20  1  0  0  0  0
 19 21  1  0  0  0  0
M  CHG  1  15  -1
M  END
$$$$
default_name
  -OEChem-02102213163D

 24 23  0     1  0  0  0  0  0999 V2000
   -2.8347   -3.7166    0.8034 H   0  0  0  0  0  0  0  0  0  0  0  0
   -2.7728   -2.7096    0.3954 C   0  0  0  0  0  0  0  0  0  0  0  0
   -3.4267   -2.0426    0.9524 H   0  0  0  0  0  0  0  0  0  0  0  0
   -3.0538   -2.7186   -0.6556 H   0  0  0  0  0  0  0  0  0  0  0  0
   -1.3498   -2.2206    0.5184 C   0  0  0  0  0  0  0  0  0  0  0  0
   -0.4997   -2.9426    1.0194 O   0  0  0  0  0  0  0  0  0  0  0  0
   -1.1198   -0.9926    0.0674 N   0  0  0  0  0  0  0  0  0  0  0  0
   -1.8978   -0.4486   -0.2716 H   0  0  0  0  0  0  0  0  0  0  0  0
    0.1693   -0.2866    0.0854 C   0  0  1  0  0  0  0  0  0  0  0  0
    0.8425   -0.7905    0.7811 H   0  0  0  0  0  0  0  0  0  0  0  0
    0.7993   -0.3404   -1.3233 C   0  0  0  0  0  0  0  0  0  0  0  0
    0.6953    0.6402   -1.7912 H   0  0  0  0  0  0  0  0  0  0  0  0
    1.8665   -0.5503   -1.2237 H   0  0  0  0  0  0  0  0  0  0  0  0
    0.1653   -1.3748   -2.2664 C   0  0  0  0  0  0  0  0  0  0  0  0
   -0.9448   -1.8676   -1.9557 O   0  5  0  0  0  0  0  0  0  0  0  0
    0.8129   -1.6806   -3.2907 O   0  0  0  0  0  0  0  0  0  0  0  0
   -0.0374    1.1645    0.5781 C   0  0  0  0  0  0  0  0  0  0  0  0
   -0.9816    1.8416    0.1544 O   0  0  0  0  0  0  0  0  0  0  0  0
    0.8235    1.6462    1.4801 N   0  0  0  0  0  0  0  0  0  0  0  0
    1.6183    1.0435    1.7020 H   0  0  0  0  0  0  0  0  0  0  0  0
    0.7895    2.9929    2.0404 C   0  0  0  0  0  0  0  0  0  0  0  0
   -0.2344    3.2522    2.3130 H   0  0  0  0  0  0  0  0  0  0  0  0
    1.4265    3.0377    2.9233 H   0  0  0  0  0  0  0  0  0  0  0  0
    1.1511    3.7014    1.2950 H   0  0  0  0  0  0  0  0  0  0  0  0
  5  6  2  0  0  0  0
  5  7  1  0  0  0  0
  2  3  1  0  0  0  0
  2  4  1  0  0  0  0
  2  5  1  0  0  0  0
  1  2  1  0  0  0  0
 17 18  2  0  0  0  0
 17 19  1  0  0  0  0
 14 15  1  0  0  0  0
 14 16  2  0  0  0  0
 11 12  1  0  0  0  0
 11 13  1  0  0  0  0
 11 14  1  0  0  0  0
  9 10  1  0  0  0  0
  9 11  1  0  0  0  0
  9 17  1  0  0  0  0
  7  8  1  0  0  0  0
  7  9  1  0  0  0  0
 21 22  1  0  0  0  0
 21 23  1  0  0  0  0
 21 24  1  0  0  0  0
 19 20  1  0  0  0  0
 19 21  1  0  0  0  0
M  CHG  1  15  -1
M  END
$$$$
default_name
  -OEChem-02102213163D

 24 23  0     1  0  0  0  0  0999 V2000
   -2.8347   -3.7166    0.8034 H   0  0  0  0  0  0  0  0  0  0  0  0
   -2.7728   -2.7096    0.3954 C   0  0  0  0  0  0  0  0  0  0  0  0
   -3.4267   -2.0426    0.9524 H   0  0  0  0  0  0  0  0  0  0  0  0
   -3.0538   -2.7186   -0.6556 H   0  0  0  0  0  0  0  0  0  0  0  0
   -1.3498   -2.2206    0.5184 C   0  0  0  0  0  0  0  0  0  0  0  0
   -0.4997   -2.9426    1.0194 O   0  0  0  0  0  0  0  0  0  0  0  0
   -1.1198   -0.9926    0.0674 N   0  0  0  0  0  0  0  0  0  0  0  0
   -1.8978   -0.4486   -0.2716 H   0  0  0  0  0  0  0  0  0  0  0  0
    0.1693   -0.2866    0.0854 C   0  0  1  0  0  0  0  0  0  0  0  0
    0.8425   -0.7905    0.7811 H   0  0  0  0  0  0  0  0  0  0  0  0
    0.7993   -0.3404   -1.3233 C   0  0  0  0  0  0  0  0  0  0  0  0
    0.6953    0.6402   -1.7912 H   0  0  0  0  0  0  0  0  0  0  0  0
    1.8665   -0.5503   -1.2237 H   0  0  0  0  0  0  0  0  0  0  0  0
    0.1653   -1.3748   -2.2664 C   0  0  0  0  0  0  0  0  0  0  0  0
   -1.0478   -1.6550   -2.1196 O   0  5  0  0  0  0  0  0  0  0  0  0
    0.9127   -1.8954   -3.1222 O   0  0  0  0  0  0  0  0  0  0  0  0
   -0.0374    1.1645    0.5781 C   0  0  0  0  0  0  0  0  0  0  0  0
   -0.9816    1.8416    0.1544 O   0  0  0  0  0  0  0  0  0  0  0  0
    0.8235    1.6462    1.4801 N   0  0  0  0  0  0  0  0  0  0  0  0
    1.6183    1.0435    1.7020 H   0  0  0  0  0  0  0  0  0  0  0  0
    0.7895    2.9929    2.0404 C   0  0  0  0  0  0  0  0  0  0  0  0
   -0.2344    3.2522    2.3130 H   0  0  0  0  0  0  0  0  0  0  0  0
    1.4265    3.0377    2.9233 H   0  0  0  0  0  0  0  0  0  0  0  0
    1.1511    3.7014    1.2950 H   0  0  0  0  0  0  0  0  0  0  0  0
  5  6  2  0  0  0  0
  5  7  1  0  0  0  0
  2  3  1  0  0  0  0
  2  4  1  0  0  0  0
  2  5  1  0  0  0  0
  1  2  1  0  0  0  0
 17 18  2  0  0  0  0
 17 19  1  0  0  0  0
 14 15  1  0  0  0  0
 14 16  2  0  0  0  0
 11 12  1  0  0  0  0
 11 13  1  0  0  0  0
 11 14  1  0  0  0  0
  9 10  1  0  0  0  0
  9 11  1  0  0  0  0
  9 17  1  0  0  0  0
  7  8  1  0  0  0  0
  7  9  1  0  0  0  0
 21 22  1  0  0  0  0
 21 23  1  0  0  0  0
 21 24  1  0  0  0  0
 19 20  1  0  0  0  0
 19 21  1  0  0  0  0
M  CHG  1  15  -1
M  END
$$$$
default_name
  -OEChem-02102213163D

 24 23  0     1  0  0  0  0  0999 V2000
   -2.8347   -3.7166    0.8034 H   0  0  0  0  0  0  0  0  0  0  0  0
   -2.7728   -2.7096    0.3954 C   0  0  0  0  0  0  0  0  0  0  0  0
   -3.4267   -2.0426    0.9524 H   0  0  0  0  0  0  0  0  0  0  0  0
   -3.0538   -2.7186   -0.6556 H   0  0  0  0  0  0  0  0  0  0  0  0
   -1.3498   -2.2206    0.5184 C   0  0  0  0  0  0  0  0  0  0  0  0
   -0.4997   -2.9426    1.0194 O   0  0  0  0  0  0  0  0  0  0  0  0
   -1.1198   -0.9926    0.0674 N   0  0  0  0  0  0  0  0  0  0  0  0
   -1.8978   -0.4486   -0.2716 H   0  0  0  0  0  0  0  0  0  0  0  0
    0.1693   -0.2866    0.0854 C   0  0  1  0  0  0  0  0  0  0  0  0
    0.8425   -0.7905    0.7811 H   0  0  0  0  0  0  0  0  0  0  0  0
    0.7993   -0.3404   -1.3233 C   0  0  0  0  0  0  0  0  0  0  0  0
    0.6953    0.6402   -1.7912 H   0  0  0  0  0  0  0  0  0  0  0  0
    1.8665   -0.5503   -1.2237 H   0  0  0  0  0  0  0  0  0  0  0  0
    0.1653   -1.3748   -2.2664 C   0  0  0  0  0  0  0  0  0  0  0  0
   -1.0849   -1.4509   -2.3185 O   0  5  0  0  0  0  0  0  0  0  0  0
    0.9457   -2.1008   -2.9191 O   0  0  0  0  0  0  0  0  0  0  0  0
   -0.0374    1.1645    0.5781 C   0  0  0  0  0  0  0  0  0  0  0  0
   -0.9816    1.8416    0.1544 O   0  0  0  0  0  0  0  0  0  0  0  0
    0.8235    1.6462    1.4801 N   0  0  0  0  0  0  0  0  0  0  0  0
    1.6183    1.0435    1.7020 H   0  0  0  0  0  0  0  0  0  0  0  0
    0.7895    2.9929    2.0404 C   0  0  0  0  0  0  0  0  0  0  0  0
   -0.2344    3.2522    2.3130 H   0  0  0  0  0  0  0  0  0  0  0  0
    1.4265    3.0377    2.9233 H   0  0  0  0  0  0  0  0  0  0  0  0
    1.1511    3.7014    1.2950 H   0  0  0  0  0  0  0  0  0  0  0  0
  5  6  2  0  0  0  0
  5  7  1  0  0  0  0
  2  3  1  0  0  0  0
  2  4  1  0  0  0  0
  2  5  1  0  0  0  0
  1  2  1  0  0  0  0
 17 18  2  0  0  0  0
 17 19  1  0  0  0  0
 14 15  1  0  0  0  0
 14 16  2  0  0  0  0
 11 12  1  0  0  0  0
 11 13  1  0  0  0  0
 11 14  1  0  0  0  0
  9 10  1  0  0  0  0
  9 11  1  0  0  0  0
  9 17  1  0  0  0  0
  7  8  1  0  0  0  0
  7  9  1  0  0  0  0
 21 22  1  0  0  0  0
 21 23  1  0  0  0  0
 21 24  1  0  0  0  0
 19 20  1  0  0  0  0
 19 21  1  0  0  0  0
M  CHG  1  15  -1
M  END
$$$$
default_name
  -OEChem-02102213163D

 24 23  0     1  0  0  0  0  0999 V2000
   -2.8347   -3.7166    0.8034 H   0  0  0  0  0  0  0  0  0  0  0  0
   -2.7728   -2.7096    0.3954 C   0  0  0  0  0  0  0  0  0  0  0  0
   -3.4267   -2.0426    0.9524 H   0  0  0  0  0  0  0  0  0  0  0  0
   -3.0538   -2.7186   -0.6556 H   0  0  0  0  0  0  0  0  0  0  0  0
   -1.3498   -2.2206    0.5184 C   0  0  0  0  0  0  0  0  0  0  0  0
   -0.4997   -2.9426    1.0194 O   0  0  0  0  0  0  0  0  0  0  0  0
   -1.1198   -0.9926    0.0674 N   0  0  0  0  0  0  0  0  0  0  0  0
   -1.8978   -0.4486   -0.2716 H   0  0  0  0  0  0  0  0  0  0  0  0
    0.1693   -0.2866    0.0854 C   0  0  1  0  0  0  0  0  0  0  0  0
    0.8425   -0.7905    0.7811 H   0  0  0  0  0  0  0  0  0  0  0  0
    0.7993   -0.3404   -1.3233 C   0  0  0  0  0  0  0  0  0  0  0  0
    0.6953    0.6402   -1.7912 H   0  0  0  0  0  0  0  0  0  0  0  0
    1.8665   -0.5503   -1.2237 H   0  0  0  0  0  0  0  0  0  0  0  0
    0.1653   -1.3748   -2.2664 C   0  0  0  0  0  0  0  0  0  0  0  0
   -1.0538   -1.2690   -2.5390 O   0  5  0  0  0  0  0  0  0  0  0  0
    0.9095   -2.2827   -2.6952 O   0  0  0  0  0  0  0  0  0  0  0  0
   -0.0374    1.1645    0.5781 C   0  0  0  0  0  0  0  0  0  0  0  0
   -0.9816    1.8416    0.1544 O   0  0  0  0  0  0  0  0  0  0  0  0
    0.8235    1.6462    1.4801 N   0  0  0  0  0  0  0  0  0  0  0  0
    1.6183    1.0435    1.7020 H   0  0  0  0  0  0  0  0  0  0  0  0
    0.7895    2.9929    2.0404 C   0  0  0  0  0  0  0  0  0  0  0  0
   -0.2344    3.2522    2.3130 H   0  0  0  0  0  0  0  0  0  0  0  0
    1.4265    3.0377    2.9233 H   0  0  0  0  0  0  0  0  0  0  0  0
    1.1511    3.7014    1.2950 H   0  0  0  0  0  0  0  0  0  0  0  0
  5  6  2  0  0  0  0
  5  7  1  0  0  0  0
  2  3  1  0  0  0  0
  2  4  1  0  0  0  0
  2  5  1  0  0  0  0
  1  2  1  0  0  0  0
 17 18  2  0  0  0  0
 17 19  1  0  0  0  0
 14 15  1  0  0  0  0
 14 16  2  0  0  0  0
 11 12  1  0  0  0  0
 11 13  1  0  0  0  0
 11 14  1  0  0  0  0
  9 10  1  0  0  0  0
  9 11  1  0  0  0  0
  9 17  1  0  0  0  0
  7  8  1  0  0  0  0
  7  9  1  0  0  0  0
 21 22  1  0  0  0  0
 21 23  1  0  0  0  0
 21 24  1  0  0  0  0
 19 20  1  0  0  0  0
 19 21  1  0  0  0  0
M  CHG  1  15  -1
M  END
$$$$
default_name
  -OEChem-02102213163D

 24 23  0     1  0  0  0  0  0999 V2000
   -2.8347   -3.7166    0.8034 H   0  0  0  0  0  0  0  0  0  0  0  0
   -2.7728   -2.7096    0.3954 C   0  0  0  0  0  0  0  0  0  0  0  0
   -3.4267   -2.0426    0.9524 H   0  0  0  0  0  0  0  0  0  0  0  0
   -3.0538   -2.7186   -0.6556 H   0  0  0  0  0  0  0  0  0  0  0  0
   -1.3498   -2.2206    0.5184 C   0  0  0  0  0  0  0  0  0  0  0  0
   -0.4997   -2.9426    1.0194 O   0  0  0  0  0  0  0  0  0  0  0  0
   -1.1198   -0.9926    0.0674 N   0  0  0  0  0  0  0  0  0  0  0  0
   -1.8978   -0.4486   -0.2716 H   0  0  0  0  0  0  0  0  0  0  0  0
    0.1693   -0.2866    0.0854 C   0  0  1  0  0  0  0  0  0  0  0  0
    0.8425   -0.7905    0.7811 H   0  0  0  0  0  0  0  0  0  0  0  0
    0.7993   -0.3404   -1.3233 C   0  0  0  0  0  0  0  0  0  0  0  0
    0.6953    0.6402   -1.7912 H   0  0  0  0  0  0  0  0  0  0  0  0
    1.8665   -0.5503   -1.2237 H   0  0  0  0  0  0  0  0  0  0  0  0
    0.1653   -1.3748   -2.2664 C   0  0  0  0  0  0  0  0  0  0  0  0
   -0.9563   -1.1218   -2.7659 O   0  5  0  0  0  0  0  0  0  0  0  0
    0.8067   -2.4288   -2.4658 O   0  0  0  0  0  0  0  0  0  0  0  0
   -0.0374    1.1645    0.5781 C   0  0  0  0  0  0  0  0  0  0  0  0
   -0.9816    1.8416    0.1544 O   0  0  0  0  0  0  0  0  0  0  0  0
    0.8235    1.6462    1.4801 N   0  0  0  0  0  0  0  0  0  0  0  0
    1.6183    1.0435    1.7020 H   0  0  0  0  0  0  0  0  0  0  0  0
    0.7895    2.9929    2.0404 C   0  0  0  0  0  0  0  0  0  0  0  0
   -0.2344    3.2522    2.3130 H   0  0  0  0  0  0  0  0  0  0  0  0
    1.4265    3.0377    2.9233 H   0  0  0  0  0  0  0  0  0  0  0  0
    1.1511    3.7014    1.2950 H   0  0  0  0  0  0  0  0  0  0  0  0
  5  6  2  0  0  0  0
  5  7  1  0  0  0  0
  2  3  1  0  0  0  0
  2  4  1  0  0  0  0
  2  5  1  0  0  0  0
  1  2  1  0  0  0  0
 17 18  2  0  0  0  0
 17 19  1  0  0  0  0
 14 15  1  0  0  0  0
 14 16  2  0  0  0  0
 11 12  1  0  0  0  0
 11 13  1  0  0  0  0
 11 14  1  0  0  0  0
  9 10  1  0  0  0  0
  9 11  1  0  0  0  0
  9 17  1  0  0  0  0
  7  8  1  0  0  0  0
  7  9  1  0  0  0  0
 21 22  1  0  0  0  0
 21 23  1  0  0  0  0
 21 24  1  0  0  0  0
 19 20  1  0  0  0  0
 19 21  1  0  0  0  0
M  CHG  1  15  -1
M  END
$$$$
default_name
  -OEChem-02102213163D

 24 23  0     1  0  0  0  0  0999 V2000
   -2.8347   -3.7166    0.8034 H   0  0  0  0  0  0  0  0  0  0  0  0
   -2.7728   -2.7096    0.3954 C   0  0  0  0  0  0  0  0  0  0  0  0
   -3.4267   -2.0426    0.9524 H   0  0  0  0  0  0  0  0  0  0  0  0
   -3.0538   -2.7186   -0.6556 H   0  0  0  0  0  0  0  0  0  0  0  0
   -1.3498   -2.2206    0.5184 C   0  0  0  0  0  0  0  0  0  0  0  0
   -0.4997   -2.9426    1.0194 O   0  0  0  0  0  0  0  0  0  0  0  0
   -1.1198   -0.9926    0.0674 N   0  0  0  0  0  0  0  0  0  0  0  0
   -1.8978   -0.4486   -0.2716 H   0  0  0  0  0  0  0  0  0  0  0  0
    0.1693   -0.2866    0.0854 C   0  0  1  0  0  0  0  0  0  0  0  0
    0.8425   -0.7905    0.7811 H   0  0  0  0  0  0  0  0  0  0  0  0
    0.7993   -0.3404   -1.3233 C   0  0  0  0  0  0  0  0  0  0  0  0
    0.6953    0.6402   -1.7912 H   0  0  0  0  0  0  0  0  0  0  0  0
    1.8665   -0.5503   -1.2237 H   0  0  0  0  0  0  0  0  0  0  0  0
    0.1653   -1.3748   -2.2664 C   0  0  0  0  0  0  0  0  0  0  0  0
   -0.7993   -1.0194   -2.9839 O   0  5  0  0  0  0  0  0  0  0  0  0
    0.6442   -2.5291   -2.2466 O   0  0  0  0  0  0  0  0  0  0  0  0
   -0.0374    1.1645    0.5781 C   0  0  0  0  0  0  0  0  0  0  0  0
   -0.9816    1.8416    0.1544 O   0  0  0  0  0  0  0  0  0  0  0  0
    0.8235    1.6462    1.4801 N   0  0  0  0  0  0  0  0  0  0  0  0
    1.6183    1.0435    1.7020 H   0  0  0  0  0  0  0  0  0  0  0  0
    0.7895    2.9929    2.0404 C   0  0  0  0  0  0  0  0  0  0  0  0
   -0.2344    3.2522    2.3130 H   0  0  0  0  0  0  0  0  0  0  0  0
    1.4265    3.0377    2.9233 H   0  0  0  0  0  0  0  0  0  0  0  0
    1.1511    3.7014    1.2950 H   0  0  0  0  0  0  0  0  0  0  0  0
  5  6  2  0  0  0  0
  5  7  1  0  0  0  0
  2  3  1  0  0  0  0
  2  4  1  0  0  0  0
  2  5  1  0  0  0  0
  1  2  1  0  0  0  0
 17 18  2  0  0  0  0
 17 19  1  0  0  0  0
 14 15  1  0  0  0  0
 14 16  2  0  0  0  0
 11 12  1  0  0  0  0
 11 13  1  0  0  0  0
 11 14  1  0  0  0  0
  9 10  1  0  0  0  0
  9 11  1  0  0  0  0
  9 17  1  0  0  0  0
  7  8  1  0  0  0  0
  7  9  1  0  0  0  0
 21 22  1  0  0  0  0
 21 23  1  0  0  0  0
 21 24  1  0  0  0  0
 19 20  1  0  0  0  0
 19 21  1  0  0  0  0
M  CHG  1  15  -1
M  END
$$$$
default_name
  -OEChem-02102213163D

 24 23  0     1  0  0  0  0  0999 V2000
   -2.8347   -3.7166    0.8034 H   0  0  0  0  0  0  0  0  0  0  0  0
   -2.7728   -2.7096    0.3954 C   0  0  0  0  0  0  0  0  0  0  0  0
   -3.4267   -2.0426    0.9524 H   0  0  0  0  0  0  0  0  0  0  0  0
   -3.0538   -2.7186   -0.6556 H   0  0  0  0  0  0  0  0  0  0  0  0
   -1.3498   -2.2206    0.5184 C   0  0  0  0  0  0  0  0  0  0  0  0
   -0.4997   -2.9426    1.0194 O   0  0  0  0  0  0  0  0  0  0  0  0
   -1.1198   -0.9926    0.0674 N   0  0  0  0  0  0  0  0  0  0  0  0
   -1.8978   -0.4486   -0.2716 H   0  0  0  0  0  0  0  0  0  0  0  0
    0.1693   -0.2866    0.0854 C   0  0  1  0  0  0  0  0  0  0  0  0
    0.8425   -0.7905    0.7811 H   0  0  0  0  0  0  0  0  0  0  0  0
    0.7993   -0.3404   -1.3233 C   0  0  0  0  0  0  0  0  0  0  0  0
    0.6953    0.6402   -1.7912 H   0  0  0  0  0  0  0  0  0  0  0  0
    1.8665   -0.5503   -1.2237 H   0  0  0  0  0  0  0  0  0  0  0  0
    0.1653   -1.3748   -2.2664 C   0  0  0  0  0  0  0  0  0  0  0  0
   -0.5934   -0.9686   -3.1779 O   0  5  0  0  0  0  0  0  0  0  0  0
    0.4331   -2.5767   -2.0524 O   0  0  0  0  0  0  0  0  0  0  0  0
   -0.0374    1.1645    0.5781 C   0  0  0  0  0  0  0  0  0  0  0  0
   -0.9816    1.8416    0.1544 O   0  0  0  0  0  0  0  0  0  0  0  0
    0.8235    1.6462    1.4801 N   0  0  0  0  0  0  0  0  0  0  0  0
    1.6183    1.0435    1.7020 H   0  0  0  0  0  0  0  0  0  0  0  0
    0.7895    2.9929    2.0404 C   0  0  0  0  0  0  0  0  0  0  0  0
   -0.2344    3.2522    2.3130 H   0  0  0  0  0  0  0  0  0  0  0  0
    1.4265    3.0377    2.9233 H   0  0  0  0  0  0  0  0  0  0  0  0
    1.1511    3.7014    1.2950 H   0  0  0  0  0  0  0  0  0  0  0  0
  5  6  2  0  0  0  0
  5  7  1  0  0  0  0
  2  3  1  0  0  0  0
  2  4  1  0  0  0  0
  2  5  1  0  0  0  0
  1  2  1  0  0  0  0
 17 18  2  0  0  0  0
 17 19  1  0  0  0  0
 14 15  1  0  0  0  0
 14 16  2  0  0  0  0
 11 12  1  0  0  0  0
 11 13  1  0  0  0  0
 11 14  1  0  0  0  0
  9 10  1  0  0  0  0
  9 11  1  0  0  0  0
  9 17  1  0  0  0  0
  7  8  1  0  0  0  0
  7  9  1  0  0  0  0
 21 22  1  0  0  0  0
 21 23  1  0  0  0  0
 21 24  1  0  0  0  0
 19 20  1  0  0  0  0
 19 21  1  0  0  0  0
M  CHG  1  15  -1
M  END
$$$$
default_name
  -OEChem-02102213163D

 24 23  0     1  0  0  0  0  0999 V2000
   -2.8347   -3.7166    0.8034 H   0  0  0  0  0  0  0  0  0  0  0  0
   -2.7728   -2.7096    0.3954 C   0  0  0  0  0  0  0  0  0  0  0  0
   -3.4267   -2.0426    0.9524 H   0  0  0  0  0  0  0  0  0  0  0  0
   -3.0538   -2.7186   -0.6556 H   0  0  0  0  0  0  0  0  0  0  0  0
   -1.3498   -2.2206    0.5184 C   0  0  0  0  0  0  0  0  0  0  0  0
   -0.4997   -2.9426    1.0194 O   0  0  0  0  0  0  0  0  0  0  0  0
   -1.1198   -0.9926    0.0674 N   0  0  0  0  0  0  0  0  0  0  0  0
   -1.8978   -0.4486   -0.2716 H   0  0  0  0  0  0  0  0  0  0  0  0
    0.1693   -0.2866    0.0854 C   0  0  1  0  0  0  0  0  0  0  0  0
    0.8425   -0.7905    0.7811 H   0  0  0  0  0  0  0  0  0  0  0  0
    0.7993   -0.3404   -1.3233 C   0  0  0  0  0  0  0  0  0  0  0  0
    0.6953    0.6402   -1.7912 H   0  0  0  0  0  0  0  0  0  0  0  0
    1.8665   -0.5503   -1.2237 H   0  0  0  0  0  0  0  0  0  0  0  0
    0.1653   -1.3748   -2.2664 C   0  0  0  0  0  0  0  0  0  0  0  0
   -0.3526   -0.9730   -3.3350 O   0  5  0  0  0  0  0  0  0  0  0  0
    0.1878   -2.5685   -1.8966 O   0  0  0  0  0  0  0  0  0  0  0  0
   -0.0374    1.1645    0.5781 C   0  0  0  0  0  0  0  0  0  0  0  0
   -0.9816    1.8416    0.1544 O   0  0  0  0  0  0  0  0  0  0  0  0
    0.8235    1.6462    1.4801 N   0  0  0  0  0  0  0  0  0  0  0  0
    1.6183    1.0435    1.7020 H   0  0  0  0  0  0  0  0  0  0  0  0
    0.7895    2.9929    2.0404 C   0  0  0  0  0  0  0  0  0  0  0  0
   -0.2344    3.2522    2.3130 H   0  0  0  0  0  0  0  0  0  0  0  0
    1.4265    3.0377    2.9233 H   0  0  0  0  0  0  0  0  0  0  0  0
    1.1511    3.7014    1.2950 H   0  0  0  0  0  0  0  0  0  0  0  0
  5  6  2  0  0  0  0
  5  7  1  0  0  0  0
  2  3  1  0  0  0  0
  2  4  1  0  0  0  0
  2  5  1  0  0  0  0
  1  2  1  0  0  0  0
 17 18  2  0  0  0  0
 17 19  1  0  0  0  0
 14 15  1  0  0  0  0
 14 16  2  0  0  0  0
 11 12  1  0  0  0  0
 11 13  1  0  0  0  0
 11 14  1  0  0  0  0
  9 10  1  0  0  0  0
  9 11  1  0  0  0  0
  9 17  1  0  0  0  0
  7  8  1  0  0  0  0
  7  9  1  0  0  0  0
 21 22  1  0  0  0  0
 21 23  1  0  0  0  0
 21 24  1  0  0  0  0
 19 20  1  0  0  0  0
 19 21  1  0  0  0  0
M  CHG  1  15  -1
M  END
$$$$
default_name
  -OEChem-02102213163D

 24 23  0     1  0  0  0  0  0999 V2000
   -2.8347   -3.7166    0.8034 H   0  0  0  0  0  0  0  0  0  0  0  0
   -2.7728   -2.7096    0.3954 C   0  0  0  0  0  0  0  0  0  0  0  0
   -3.4267   -2.0426    0.9524 H   0  0  0  0  0  0  0  0  0  0  0  0
   -3.0538   -2.7186   -0.6556 H   0  0  0  0  0  0  0  0  0  0  0  0
   -1.3498   -2.2206    0.5184 C   0  0  0  0  0  0  0  0  0  0  0  0
   -0.4997   -2.9426    1.0194 O   0  0  0  0  0  0  0  0  0  0  0  0
   -1.1198   -0.9926    0.0674 N   0  0  0  0  0  0  0  0  0  0  0  0
   -1.8978   -0.4486   -0.2716 H   0  0  0  0  0  0  0  0  0  0  0  0
    0.1693   -0.2866    0.0854 C   0  0  1  0  0  0  0  0  0  0  0  0
    0.8425   -0.7905    0.7811 H   0  0  0  0  0  0  0  0  0  0  0  0
    0.7993   -0.3404   -1.3233 C   0  0  0  0  0  0  0  0  0  0  0  0
    0.6953    0.6402   -1.7912 H   0  0  0  0  0  0  0  0  0  0  0  0
    1.8665   -0.5503   -1.2237 H   0  0  0  0  0  0  0  0  0  0  0  0
    0.1653   -1.3748   -2.2664 C   0  0  0  0  0  0  0  0  0  0  0  0
   -0.0934   -1.0323   -3.4442 O   0  5  0  0  0  0  0  0  0  0  0  0
   -0.0749   -2.5049   -1.7897 O   0  0  0  0  0  0  0  0  0  0  0  0
   -0.0374    1.1645    0.5781 C   0  0  0  0  0  0  0  0  0  0  0  0
   -0.9816    1.8416    0.1544 O   0  0  0  0  0  0  0  0  0  0  0  0
    0.8235    1.6462    1.4801 N   0  0  0  0  0  0  0  0  0  0  0  0
    1.6183    1.0435    1.7020 H   0  0  0  0  0  0  0  0  0  0  0  0
    0.7895    2.9929    2.0404 C   0  0  0  0  0  0  0  0  0  0  0  0
   -0.2344    3.2522    2.3130 H   0  0  0  0  0  0  0  0  0  0  0  0
    1.4265    3.0377    2.9233 H   0  0  0  0  0  0  0  0  0  0  0  0
    1.1511    3.7014    1.2950 H   0  0  0  0  0  0  0  0  0  0  0  0
  5  6  2  0  0  0  0
  5  7  1  0  0  0  0
  2  3  1  0  0  0  0
  2  4  1  0  0  0  0
  2  5  1  0  0  0  0
  1  2  1  0  0  0  0
 17 18  2  0  0  0  0
 17 19  1  0  0  0  0
 14 15  1  0  0  0  0
 14 16  2  0  0  0  0
 11 12  1  0  0  0  0
 11 13  1  0  0  0  0
 11 14  1  0  0  0  0
  9 10  1  0  0  0  0
  9 11  1  0  0  0  0
  9 17  1  0  0  0  0
  7  8  1  0  0  0  0
  7  9  1  0  0  0  0
 21 22  1  0  0  0  0
 21 23  1  0  0  0  0
 21 24  1  0  0  0  0
 19 20  1  0  0  0  0
 19 21  1  0  0  0  0
M  CHG  1  15  -1
M  END
$$$$
default_name
  -OEChem-02102213163D

 24 23  0     1  0  0  0  0  0999 V2000
   -2.8347   -3.7166    0.8034 H   0  0  0  0  0  0  0  0  0  0  0  0
   -2.7728   -2.7096    0.3954 C   0  0  0  0  0  0  0  0  0  0  0  0
   -3.4267   -2.0426    0.9524 H   0  0  0  0  0  0  0  0  0  0  0  0
   -3.0538   -2.7186   -0.6556 H   0  0  0  0  0  0  0  0  0  0  0  0
   -1.3498   -2.2206    0.5184 C   0  0  0  0  0  0  0  0  0  0  0  0
   -0.4997   -2.9426    1.0194 O   0  0  0  0  0  0  0  0  0  0  0  0
   -1.1198   -0.9926    0.0674 N   0  0  0  0  0  0  0  0  0  0  0  0
   -1.8978   -0.4486   -0.2716 H   0  0  0  0  0  0  0  0  0  0  0  0
    0.1693   -0.2866    0.0854 C   0  0  1  0  0  0  0  0  0  0  0  0
    0.8425   -0.7905    0.7811 H   0  0  0  0  0  0  0  0  0  0  0  0
    0.7993   -0.3404   -1.3233 C   0  0  0  0  0  0  0  0  0  0  0  0
    0.6953    0.6402   -1.7912 H   0  0  0  0  0  0  0  0  0  0  0  0
    1.8665   -0.5503   -1.2237 H   0  0  0  0  0  0  0  0  0  0  0  0
    0.1653   -1.3748   -2.2664 C   0  0  0  0  0  0  0  0  0  0  0  0
    0.1666   -1.1424   -3.4983 O   0  5  0  0  0  0  0  0  0  0  0  0
   -0.3373   -2.3904   -1.7389 O   0  0  0  0  0  0  0  0  0  0  0  0
   -0.0374    1.1645    0.5781 C   0  0  0  0  0  0  0  0  0  0  0  0
   -0.9816    1.8416    0.1544 O   0  0  0  0  0  0  0  0  0  0  0  0
    0.8235    1.6462    1.4801 N   0  0  0  0  0  0  0  0  0  0  0  0
    1.6183    1.0435    1.7020 H   0  0  0  0  0  0  0  0  0  0  0  0
    0.7895    2.9929    2.0404 C   0  0  0  0  0  0  0  0  0  0  0  0
   -0.2344    3.2522    2.3130 H   0  0  0  0  0  0  0  0  0  0  0  0
    1.4265    3.0377    2.9233 H   0  0  0  0  0  0  0  0  0  0  0  0
    1.1511    3.7014    1.2950 H   0  0  0  0  0  0  0  0  0  0  0  0
  5  6  2  0  0  0  0
  5  7  1  0  0  0  0
  2  3  1  0  0  0  0
  2  4  1  0  0  0  0
  2  5  1  0  0  0  0
  1  2  1  0  0  0  0
 17 18  2  0  0  0  0
 17 19  1  0  0  0  0
 14 15  1  0  0  0  0
 14 16  2  0  0  0  0
 11 12  1  0  0  0  0
 11 13  1  0  0  0  0
 11 14  1  0  0  0  0
  9 10  1  0  0  0  0
  9 11  1  0  0  0  0
  9 17  1  0  0  0  0
  7  8  1  0  0  0  0
  7  9  1  0  0  0  0
 21 22  1  0  0  0  0
 21 23  1  0  0  0  0
 21 24  1  0  0  0  0
 19 20  1  0  0  0  0
 19 21  1  0  0  0  0
M  CHG  1  15  -1
M  END
$$$$
default_name
  -OEChem-02102213163D

 24 23  0     1  0  0  0  0  0999 V2000
   -2.8347   -3.7166    0.8034 H   0  0  0  0  0  0  0  0  0  0  0  0
   -2.7728   -2.7096    0.3954 C   0  0  0  0  0  0  0  0  0  0  0  0
   -3.4267   -2.0426    0.9524 H   0  0  0  0  0  0  0  0  0  0  0  0
   -3.0538   -2.7186   -0.6556 H   0  0  0  0  0  0  0  0  0  0  0  0
   -1.3498   -2.2206    0.5184 C   0  0  0  0  0  0  0  0  0  0  0  0
   -0.4997   -2.9426    1.0194 O   0  0  0  0  0  0  0  0  0  0  0  0
   -1.1198   -0.9926    0.0674 N   0  0  0  0  0  0  0  0  0  0  0  0
   -1.8978   -0.4486   -0.2716 H   0  0  0  0  0  0  0  0  0  0  0  0
    0.1693   -0.2866    0.0854 C   0  0  1  0  0  0  0  0  0  0  0  0
    0.8425   -0.7905    0.7811 H   0  0  0  0  0  0  0  0  0  0  0  0
    0.7993   -0.3404   -1.3233 C   0  0  0  0  0  0  0  0  0  0  0  0
    0.6953    0.6402   -1.7912 H   0  0  0  0  0  0  0  0  0  0  0  0
    1.8665   -0.5503   -1.2237 H   0  0  0  0  0  0  0  0  0  0  0  0
    0.1653   -1.3748   -2.2664 C   0  0  0  0  0  0  0  0  0  0  0  0
    0.4097   -1.2958   -3.4934 O   0  5  0  0  0  0  0  0  0  0  0  0
   -0.5813   -2.2326   -1.7479 O   0  0  0  0  0  0  0  0  0  0  0  0
   -0.0374    1.1645    0.5781 C   0  0  0  0  0  0  0  0  0  0  0  0
   -0.9816    1.8416    0.1544 O   0  0  0  0  0  0  0  0  0  0  0  0
    0.8235    1.6462    1.4801 N   0  0  0  0  0  0  0  0  0  0  0  0
    1.6183    1.0435    1.7020 H   0  0  0  0  0  0  0  0  0  0  0  0
    0.7895    2.9929    2.0404 C   0  0  0  0  0  0  0  0  0  0  0  0
   -0.2344    3.2522    2.3130 H   0  0  0  0  0  0  0  0  0  0  0  0
    1.4265    3.0377    2.9233 H   0  0  0  0  0  0  0  0  0  0  0  0
    1.1511    3.7014    1.2950 H   0  0  0  0  0  0  0  0  0  0  0  0
  5  6  2  0  0  0  0
  5  7  1  0  0  0  0
  2  3  1  0  0  0  0
  2  4  1  0  0  0  0
  2  5  1  0  0  0  0
  1  2  1  0  0  0  0
 17 18  2  0  0  0  0
 17 19  1  0  0  0  0
 14 15  1  0  0  0  0
 14 16  2  0  0  0  0
 11 12  1  0  0  0  0
 11 13  1  0  0  0  0
 11 14  1  0  0  0  0
  9 10  1  0  0  0  0
  9 11  1  0  0  0  0
  9 17  1  0  0  0  0
  7  8  1  0  0  0  0
  7  9  1  0  0  0  0
 21 22  1  0  0  0  0
 21 23  1  0  0  0  0
 21 24  1  0  0  0  0
 19 20  1  0  0  0  0
 19 21  1  0  0  0  0
M  CHG  1  15  -1
M  END
$$$$
default_name
  -OEChem-02102213163D

 24 23  0     1  0  0  0  0  0999 V2000
   -2.8347   -3.7166    0.8034 H   0  0  0  0  0  0  0  0  0  0  0  0
   -2.7728   -2.7096    0.3954 C   0  0  0  0  0  0  0  0  0  0  0  0
   -3.4267   -2.0426    0.9524 H   0  0  0  0  0  0  0  0  0  0  0  0
   -3.0538   -2.7186   -0.6556 H   0  0  0  0  0  0  0  0  0  0  0  0
   -1.3498   -2.2206    0.5184 C   0  0  0  0  0  0  0  0  0  0  0  0
   -0.4997   -2.9426    1.0194 O   0  0  0  0  0  0  0  0  0  0  0  0
   -1.1198   -0.9926    0.0674 N   0  0  0  0  0  0  0  0  0  0  0  0
   -1.8978   -0.4486   -0.2716 H   0  0  0  0  0  0  0  0  0  0  0  0
    0.1693   -0.2866    0.0854 C   0  0  1  0  0  0  0  0  0  0  0  0
    0.8425   -0.7905    0.7811 H   0  0  0  0  0  0  0  0  0  0  0  0
    0.7993   -0.3404   -1.3233 C   0  0  0  0  0  0  0  0  0  0  0  0
    0.9395    0.6803   -1.6835 H   0  0  0  0  0  0  0  0  0  0  0  0
    1.7846   -0.8060   -1.2506 H   0  0  0  0  0  0  0  0  0  0  0  0
   -0.0400   -1.0910   -2.3690 C   0  0  0  0  0  0  0  0  0  0  0  0
    0.4010   -1.1804   -3.5391 O   0  5  0  0  0  0  0  0  0  0  0  0
   -1.1357   -1.5569   -1.9888 O   0  0  0  0  0  0  0  0  0  0  0  0
   -0.0374    1.1645    0.5781 C   0  0  0  0  0  0  0  0  0  0  0  0
   -0.9816    1.8416    0.1544 O   0  0  0  0  0  0  0  0  0  0  0  0
    0.8235    1.6462    1.4801 N   0  0  0  0  0  0  0  0  0  0  0  0
    1.6183    1.0435    1.7020 H   0  0  0  0  0  0  0  0  0  0  0  0
    0.7895    2.9929    2.0404 C   0  0  0  0  0  0  0  0  0  0  0  0
   -0.2344    3.2522    2.3130 H   0  0  0  0  0  0  0  0  0  0  0  0
    1.4265    3.0377    2.9233 H   0  0  0  0  0  0  0  0  0  0  0  0
    1.1511    3.7014    1.2950 H   0  0  0  0  0  0  0  0  0  0  0  0
  5  6  2  0  0  0  0
  5  7  1  0  0  0  0
  2  3  1  0  0  0  0
  2  4  1  0  0  0  0
  2  5  1  0  0  0  0
  1  2  1  0  0  0  0
 17 18  2  0  0  0  0
 17 19  1  0  0  0  0
 14 15  1  0  0  0  0
 14 16  2  0  0  0  0
 11 12  1  0  0  0  0
 11 13  1  0  0  0  0
 11 14  1  0  0  0  0
  9 10  1  0  0  0  0
  9 11  1  0  0  0  0
  9 17  1  0  0  0  0
  7  8  1  0  0  0  0
  7  9  1  0  0  0  0
 21 22  1  0  0  0  0
 21 23  1  0  0  0  0
 21 24  1  0  0  0  0
 19 20  1  0  0  0  0
 19 21  1  0  0  0  0
M  CHG  1  15  -1
M  END
$$$$
default_name
  -OEChem-02102213163D

 24 23  0     1  0  0  0  0  0999 V2000
   -2.8347   -3.7166    0.8034 H   0  0  0  0  0  0  0  0  0  0  0  0
   -2.7728   -2.7096    0.3954 C   0  0  0  0  0  0  0  0  0  0  0  0
   -3.4267   -2.0426    0.9524 H   0  0  0  0  0  0  0  0  0  0  0  0
   -3.0538   -2.7186   -0.6556 H   0  0  0  0  0  0  0  0  0  0  0  0
   -1.3498   -2.2206    0.5184 C   0  0  0  0  0  0  0  0  0  0  0  0
   -0.4997   -2.9426    1.0194 O   0  0  0  0  0  0  0  0  0  0  0  0
   -1.1198   -0.9926    0.0674 N   0  0  0  0  0  0  0  0  0  0  0  0
   -1.8978   -0.4486   -0.2716 H   0  0  0  0  0  0  0  0  0  0  0  0
    0.1693   -0.2866    0.0854 C   0  0  1  0  0  0  0  0  0  0  0  0
    0.8425   -0.7905    0.7811 H   0  0  0  0  0  0  0  0  0  0  0  0
    0.7993   -0.3404   -1.3233 C   0  0  0  0  0  0  0  0  0  0  0  0
    0.9395    0.6803   -1.6835 H   0  0  0  0  0  0  0  0  0  0  0  0
    1.7846   -0.8060   -1.2506 H   0  0  0  0  0  0  0  0  0  0  0  0
   -0.0400   -1.0910   -2.3690 C   0  0  0  0  0  0  0  0  0  0  0  0
    0.5070   -1.4304   -3.4447 O   0  5  0  0  0  0  0  0  0  0  0  0
   -1.2390   -1.3037   -2.0876 O   0  0  0  0  0  0  0  0  0  0  0  0
   -0.0374    1.1645    0.5781 C   0  0  0  0  0  0  0  0  0  0  0  0
   -0.9816    1.8416    0.1544 O   0  0  0  0  0  0  0  0  0  0  0  0
    0.8235    1.6462    1.4801 N   0  0  0  0  0  0  0  0  0  0  0  0
    1.6183    1.0435    1.7020 H   0  0  0  0  0  0  0  0  0  0  0  0
    0.7895    2.9929    2.0404 C   0  0  0  0  0  0  0  0  0  0  0  0
   -0.2344    3.2522    2.3130 H   0  0  0  0  0  0  0  0  0  0  0  0
    1.4265    3.0377    2.9233 H   0  0  0  0  0  0  0  0  0  0  0  0
    1.1511    3.7014    1.2950 H   0  0  0  0  0  0  0  0  0  0  0  0
  5  6  2  0  0  0  0
  5  7  1  0  0  0  0
  2  3  1  0  0  0  0
  2  4  1  0  0  0  0
  2  5  1  0  0  0  0
  1  2  1  0  0  0  0
 17 18  2  0  0  0  0
 17 19  1  0  0  0  0
 14 15  1  0  0  0  0
 14 16  2  0  0  0  0
 11 12  1  0  0  0  0
 11 13  1  0  0  0  0
 11 14  1  0  0  0  0
  9 10  1  0  0  0  0
  9 11  1  0  0  0  0
  9 17  1  0  0  0  0
  7  8  1  0  0  0  0
  7  9  1  0  0  0  0
 21 22  1  0  0  0  0
 21 23  1  0  0  0  0
 21 24  1  0  0  0  0
 19 20  1  0  0  0  0
 19 21  1  0  0  0  0
M  CHG  1  15  -1
M  END
$$$$
default_name
  -OEChem-02102213163D

 24 23  0     1  0  0  0  0  0999 V2000
   -2.8347   -3.7166    0.8034 H   0  0  0  0  0  0  0  0  0  0  0  0
   -2.7728   -2.7096    0.3954 C   0  0  0  0  0  0  0  0  0  0  0  0
   -3.4267   -2.0426    0.9524 H   0  0  0  0  0  0  0  0  0  0  0  0
   -3.0538   -2.7186   -0.6556 H   0  0  0  0  0  0  0  0  0  0  0  0
   -1.3498   -2.2206    0.5184 C   0  0  0  0  0  0  0  0  0  0  0  0
   -0.4997   -2.9426    1.0194 O   0  0  0  0  0  0  0  0  0  0  0  0
   -1.1198   -0.9926    0.0674 N   0  0  0  0  0  0  0  0  0  0  0  0
   -1.8978   -0.4486   -0.2716 H   0  0  0  0  0  0  0  0  0  0  0  0
    0.1693   -0.2866    0.0854 C   0  0  1  0  0  0  0  0  0  0  0  0
    0.8425   -0.7905    0.7811 H   0  0  0  0  0  0  0  0  0  0  0  0
    0.7993   -0.3404   -1.3233 C   0  0  0  0  0  0  0  0  0  0  0  0
    0.9395    0.6803   -1.6835 H   0  0  0  0  0  0  0  0  0  0  0  0
    1.7846   -0.8060   -1.2506 H   0  0  0  0  0  0  0  0  0  0  0  0
   -0.0400   -1.0910   -2.3690 C   0  0  0  0  0  0  0  0  0  0  0  0
    0.5535   -1.6772   -3.3048 O   0  5  0  0  0  0  0  0  0  0  0  0
   -1.2818   -1.0549   -2.2319 O   0  0  0  0  0  0  0  0  0  0  0  0
   -0.0374    1.1645    0.5781 C   0  0  0  0  0  0  0  0  0  0  0  0
   -0.9816    1.8416    0.1544 O   0  0  0  0  0  0  0  0  0  0  0  0
    0.8235    1.6462    1.4801 N   0  0  0  0  0  0  0  0  0  0  0  0
    1.6183    1.0435    1.7020 H   0  0  0  0  0  0  0  0  0  0  0  0
    0.7895    2.9929    2.0404 C   0  0  0  0  0  0  0  0  0  0  0  0
   -0.2344    3.2522    2.3130 H   0  0  0  0  0  0  0  0  0  0  0  0
    1.4265    3.0377    2.9233 H   0  0  0  0  0  0  0  0  0  0  0  0
    1.1511    3.7014    1.2950 H   0  0  0  0  0  0  0  0  0  0  0  0
  5  6  2  0  0  0  0
  5  7  1  0  0  0  0
  2  3  1  0  0  0  0
  2  4  1  0  0  0  0
  2  5  1  0  0  0  0
  1  2  1  0  0  0  0
 17 18  2  0  0  0  0
 17 19  1  0  0  0  0
 14 15  1  0  0  0  0
 14 16  2  0  0  0  0
 11 12  1  0  0  0  0
 11 13  1  0  0  0  0
 11 14  1  0  0  0  0
  9 10  1  0  0  0  0
  9 11  1  0  0  0  0
  9 17  1  0  0  0  0
  7  8  1  0  0  0  0
  7  9  1  0  0  0  0
 21 22  1  0  0  0  0
 21 23  1  0  0  0  0
 21 24  1  0  0  0  0
 19 20  1  0  0  0  0
 19 21  1  0  0  0  0
M  CHG  1  15  -1
M  END
$$$$
default_name
  -OEChem-02102213163D

 24 23  0     1  0  0  0  0  0999 V2000
   -2.8347   -3.7166    0.8034 H   0  0  0  0  0  0  0  0  0  0  0  0
   -2.7728   -2.7096    0.3954 C   0  0  0  0  0  0  0  0  0  0  0  0
   -3.4267   -2.0426    0.9524 H   0  0  0  0  0  0  0  0  0  0  0  0
   -3.0538   -2.7186   -0.6556 H   0  0  0  0  0  0  0  0  0  0  0  0
   -1.3498   -2.2206    0.5184 C   0  0  0  0  0  0  0  0  0  0  0  0
   -0.4997   -2.9426    1.0194 O   0  0  0  0  0  0  0  0  0  0  0  0
   -1.1198   -0.9926    0.0674 N   0  0  0  0  0  0  0  0  0  0  0  0
   -1.8978   -0.4486   -0.2716 H   0  0  0  0  0  0  0  0  0  0  0  0
    0.1693   -0.2866    0.0854 C   0  0  1  0  0  0  0  0  0  0  0  0
    0.8425   -0.7905    0.7811 H   0  0  0  0  0  0  0  0  0  0  0  0
    0.7993   -0.3404   -1.3233 C   0  0  0  0  0  0  0  0  0  0  0  0
    0.9395    0.6803   -1.6835 H   0  0  0  0  0  0  0  0  0  0  0  0
    1.7846   -0.8060   -1.2506 H   0  0  0  0  0  0  0  0  0  0  0  0
   -0.0400   -1.0910   -2.3690 C   0  0  0  0  0  0  0  0  0  0  0  0
    0.5372   -1.9040   -3.1289 O   0  5  0  0  0  0  0  0  0  0  0  0
   -1.2610   -0.8275   -2.4118 O   0  0  0  0  0  0  0  0  0  0  0  0
   -0.0374    1.1645    0.5781 C   0  0  0  0  0  0  0  0  0  0  0  0
   -0.9816    1.8416    0.1544 O   0  0  0  0  0  0  0  0  0  0  0  0
    0.8235    1.6462    1.4801 N   0  0  0  0  0  0  0  0  0  0  0  0
    1.6183    1.0435    1.7020 H   0  0  0  0  0  0  0  0  0  0  0  0
    0.7895    2.9929    2.0404 C   0  0  0  0  0  0  0  0  0  0  0  0
   -0.2344    3.2522    2.3130 H   0  0  0  0  0  0  0  0  0  0  0  0
    1.4265    3.0377    2.9233 H   0  0  0  0  0  0  0  0  0  0  0  0
    1.1511    3.7014    1.2950 H   0  0  0  0  0  0  0  0  0  0  0  0
  5  6  2  0  0  0  0
  5  7  1  0  0  0  0
  2  3  1  0  0  0  0
  2  4  1  0  0  0  0
  2  5  1  0  0  0  0
  1  2  1  0  0  0  0
 17 18  2  0  0  0  0
 17 19  1  0  0  0  0
 14 15  1  0  0  0  0
 14 16  2  0  0  0  0
 11 12  1  0  0  0  0
 11 13  1  0  0  0  0
 11 14  1  0  0  0  0
  9 10  1  0  0  0  0
  9 11  1  0  0  0  0
  9 17  1  0  0  0  0
  7  8  1  0  0  0  0
  7  9  1  0  0  0  0
 21 22  1  0  0  0  0
 21 23  1  0  0  0  0
 21 24  1  0  0  0  0
 19 20  1  0  0  0  0
 19 21  1  0  0  0  0
M  CHG  1  15  -1
M  END
$$$$
default_name
  -OEChem-02102213163D

 24 23  0     1  0  0  0  0  0999 V2000
   -2.8347   -3.7166    0.8034 H   0  0  0  0  0  0  0  0  0  0  0  0
   -2.7728   -2.7096    0.3954 C   0  0  0  0  0  0  0  0  0  0  0  0
   -3.4267   -2.0426    0.9524 H   0  0  0  0  0  0  0  0  0  0  0  0
   -3.0538   -2.7186   -0.6556 H   0  0  0  0  0  0  0  0  0  0  0  0
   -1.3498   -2.2206    0.5184 C   0  0  0  0  0  0  0  0  0  0  0  0
   -0.4997   -2.9426    1.0194 O   0  0  0  0  0  0  0  0  0  0  0  0
   -1.1198   -0.9926    0.0674 N   0  0  0  0  0  0  0  0  0  0  0  0
   -1.8978   -0.4486   -0.2716 H   0  0  0  0  0  0  0  0  0  0  0  0
    0.1693   -0.2866    0.0854 C   0  0  1  0  0  0  0  0  0  0  0  0
    0.8425   -0.7905    0.7811 H   0  0  0  0  0  0  0  0  0  0  0  0
    0.7993   -0.3404   -1.3233 C   0  0  0  0  0  0  0  0  0  0  0  0
    0.9395    0.6803   -1.6835 H   0  0  0  0  0  0  0  0  0  0  0  0
    1.7846   -0.8060   -1.2506 H   0  0  0  0  0  0  0  0  0  0  0  0
   -0.0400   -1.0910   -2.3690 C   0  0  0  0  0  0  0  0  0  0  0  0
    0.4592   -2.0954   -2.9290 O   0  5  0  0  0  0  0  0  0  0  0  0
   -1.1781   -0.6369   -2.6151 O   0  0  0  0  0  0  0  0  0  0  0  0
   -0.0374    1.1645    0.5781 C   0  0  0  0  0  0  0  0  0  0  0  0
   -0.9816    1.8416    0.1544 O   0  0  0  0  0  0  0  0  0  0  0  0
    0.8235    1.6462    1.4801 N   0  0  0  0  0  0  0  0  0  0  0  0
    1.6183    1.0435    1.7020 H   0  0  0  0  0  0  0  0  0  0  0  0
    0.7895    2.9929    2.0404 C   0  0  0  0  0  0  0  0  0  0  0  0
   -0.2344    3.2522    2.3130 H   0  0  0  0  0  0  0  0  0  0  0  0
    1.4265    3.0377    2.9233 H   0  0  0  0  0  0  0  0  0  0  0  0
    1.1511    3.7014    1.2950 H   0  0  0  0  0  0  0  0  0  0  0  0
  5  6  2  0  0  0  0
  5  7  1  0  0  0  0
  2  3  1  0  0  0  0
  2  4  1  0  0  0  0
  2  5  1  0  0  0  0
  1  2  1  0  0  0  0
 17 18  2  0  0  0  0
 17 19  1  0  0  0  0
 14 15  1  0  0  0  0
 14 16  2  0  0  0  0
 11 12  1  0  0  0  0
 11 13  1  0  0  0  0
 11 14  1  0  0  0  0
  9 10  1  0  0  0  0
  9 11  1  0  0  0  0
  9 17  1  0  0  0  0
  7  8  1  0  0  0  0
  7  9  1  0  0  0  0
 21 22  1  0  0  0  0
 21 23  1  0  0  0  0
 21 24  1  0  0  0  0
 19 20  1  0  0  0  0
 19 21  1  0  0  0  0
M  CHG  1  15  -1
M  END
$$$$
default_name
  -OEChem-02102213163D

 24 23  0     1  0  0  0  0  0999 V2000
   -2.8347   -3.7166    0.8034 H   0  0  0  0  0  0  0  0  0  0  0  0
   -2.7728   -2.7096    0.3954 C   0  0  0  0  0  0  0  0  0  0  0  0
   -3.4267   -2.0426    0.9524 H   0  0  0  0  0  0  0  0  0  0  0  0
   -3.0538   -2.7186   -0.6556 H   0  0  0  0  0  0  0  0  0  0  0  0
   -1.3498   -2.2206    0.5184 C   0  0  0  0  0  0  0  0  0  0  0  0
   -0.4997   -2.9426    1.0194 O   0  0  0  0  0  0  0  0  0  0  0  0
   -1.1198   -0.9926    0.0674 N   0  0  0  0  0  0  0  0  0  0  0  0
   -1.8978   -0.4486   -0.2716 H   0  0  0  0  0  0  0  0  0  0  0  0
    0.1693   -0.2866    0.0854 C   0  0  1  0  0  0  0  0  0  0  0  0
    0.8425   -0.7905    0.7811 H   0  0  0  0  0  0  0  0  0  0  0  0
    0.7993   -0.3404   -1.3233 C   0  0  0  0  0  0  0  0  0  0  0  0
    0.9395    0.6803   -1.6835 H   0  0  0  0  0  0  0  0  0  0  0  0
    1.7846   -0.8060   -1.2506 H   0  0  0  0  0  0  0  0  0  0  0  0
   -0.0400   -1.0910   -2.3690 C   0  0  0  0  0  0  0  0  0  0  0  0
    0.3250   -2.2382   -2.7187 O   0  5  0  0  0  0  0  0  0  0  0  0
   -1.0388   -0.4962   -2.8280 O   0  0  0  0  0  0  0  0  0  0  0  0
   -0.0374    1.1645    0.5781 C   0  0  0  0  0  0  0  0  0  0  0  0
   -0.9816    1.8416    0.1544 O   0  0  0  0  0  0  0  0  0  0  0  0
    0.8235    1.6462    1.4801 N   0  0  0  0  0  0  0  0  0  0  0  0
    1.6183    1.0435    1.7020 H   0  0  0  0  0  0  0  0  0  0  0  0
    0.7895    2.9929    2.0404 C   0  0  0  0  0  0  0  0  0  0  0  0
   -0.2344    3.2522    2.3130 H   0  0  0  0  0  0  0  0  0  0  0  0
    1.4265    3.0377    2.9233 H   0  0  0  0  0  0  0  0  0  0  0  0
    1.1511    3.7014    1.2950 H   0  0  0  0  0  0  0  0  0  0  0  0
  5  6  2  0  0  0  0
  5  7  1  0  0  0  0
  2  3  1  0  0  0  0
  2  4  1  0  0  0  0
  2  5  1  0  0  0  0
  1  2  1  0  0  0  0
 17 18  2  0  0  0  0
 17 19  1  0  0  0  0
 14 15  1  0  0  0  0
 14 16  2  0  0  0  0
 11 12  1  0  0  0  0
 11 13  1  0  0  0  0
 11 14  1  0  0  0  0
  9 10  1  0  0  0  0
  9 11  1  0  0  0  0
  9 17  1  0  0  0  0
  7  8  1  0  0  0  0
  7  9  1  0  0  0  0
 21 22  1  0  0  0  0
 21 23  1  0  0  0  0
 21 24  1  0  0  0  0
 19 20  1  0  0  0  0
 19 21  1  0  0  0  0
M  CHG  1  15  -1
M  END
$$$$
default_name
  -OEChem-02102213163D

 24 23  0     1  0  0  0  0  0999 V2000
   -2.8347   -3.7166    0.8034 H   0  0  0  0  0  0  0  0  0  0  0  0
   -2.7728   -2.7096    0.3954 C   0  0  0  0  0  0  0  0  0  0  0  0
   -3.4267   -2.0426    0.9524 H   0  0  0  0  0  0  0  0  0  0  0  0
   -3.0538   -2.7186   -0.6556 H   0  0  0  0  0  0  0  0  0  0  0  0
   -1.3498   -2.2206    0.5184 C   0  0  0  0  0  0  0  0  0  0  0  0
   -0.4997   -2.9426    1.0194 O   0  0  0  0  0  0  0  0  0  0  0  0
   -1.1198   -0.9926    0.0674 N   0  0  0  0  0  0  0  0  0  0  0  0
   -1.8978   -0.4486   -0.2716 H   0  0  0  0  0  0  0  0  0  0  0  0
    0.1693   -0.2866    0.0854 C   0  0  1  0  0  0  0  0  0  0  0  0
    0.8425   -0.7905    0.7811 H   0  0  0  0  0  0  0  0  0  0  0  0
    0.7993   -0.3404   -1.3233 C   0  0  0  0  0  0  0  0  0  0  0  0
    0.9395    0.6803   -1.6835 H   0  0  0  0  0  0  0  0  0  0  0  0
    1.7846   -0.8060   -1.2506 H   0  0  0  0  0  0  0  0  0  0  0  0
   -0.0400   -1.0910   -2.3690 C   0  0  0  0  0  0  0  0  0  0  0  0
    0.1435   -2.3228   -2.5124 O   0  5  0  0  0  0  0  0  0  0  0  0
   -0.8526   -0.4148   -3.0358 O   0  0  0  0  0  0  0  0  0  0  0  0
   -0.0374    1.1645    0.5781 C   0  0  0  0  0  0  0  0  0  0  0  0
   -0.9816    1.8416    0.1544 O   0  0  0  0  0  0  0  0  0  0  0  0
    0.8235    1.6462    1.4801 N   0  0  0  0  0  0  0  0  0  0  0  0
    1.6183    1.0435    1.7020 H   0  0  0  0  0  0  0  0  0  0  0  0
    0.7895    2.9929    2.0404 C   0  0  0  0  0  0  0  0  0  0  0  0
   -0.2344    3.2522    2.3130 H   0  0  0  0  0  0  0  0  0  0  0  0
    1.4265    3.0377    2.9233 H   0  0  0  0  0  0  0  0  0  0  0  0
    1.1511    3.7014    1.2950 H   0  0  0  0  0  0  0  0  0  0  0  0
  5  6  2  0  0  0  0
  5  7  1  0  0  0  0
  2  3  1  0  0  0  0
  2  4  1  0  0  0  0
  2  5  1  0  0  0  0
  1  2  1  0  0  0  0
 17 18  2  0  0  0  0
 17 19  1  0  0  0  0
 14 15  1  0  0  0  0
 14 16  2  0  0  0  0
 11 12  1  0  0  0  0
 11 13  1  0  0  0  0
 11 14  1  0  0  0  0
  9 10  1  0  0  0  0
  9 11  1  0  0  0  0
  9 17  1  0  0  0  0
  7  8  1  0  0  0  0
  7  9  1  0  0  0  0
 21 22  1  0  0  0  0
 21 23  1  0  0  0  0
 21 24  1  0  0  0  0
 19 20  1  0  0  0  0
 19 21  1  0  0  0  0
M  CHG  1  15  -1
M  END
$$$$
default_name
  -OEChem-02102213163D

 24 23  0     1  0  0  0  0  0999 V2000
   -2.8347   -3.7166    0.8034 H   0  0  0  0  0  0  0  0  0  0  0  0
   -2.7728   -2.7096    0.3954 C   0  0  0  0  0  0  0  0  0  0  0  0
   -3.4267   -2.0426    0.9524 H   0  0  0  0  0  0  0  0  0  0  0  0
   -3.0538   -2.7186   -0.6556 H   0  0  0  0  0  0  0  0  0  0  0  0
   -1.3498   -2.2206    0.5184 C   0  0  0  0  0  0  0  0  0  0  0  0
   -0.4997   -2.9426    1.0194 O   0  0  0  0  0  0  0  0  0  0  0  0
   -1.1198   -0.9926    0.0674 N   0  0  0  0  0  0  0  0  0  0  0  0
   -1.8978   -0.4486   -0.2716 H   0  0  0  0  0  0  0  0  0  0  0  0
    0.1693   -0.2866    0.0854 C   0  0  1  0  0  0  0  0  0  0  0  0
    0.8425   -0.7905    0.7811 H   0  0  0  0  0  0  0  0  0  0  0  0
    0.7993   -0.3404   -1.3233 C   0  0  0  0  0  0  0  0  0  0  0  0
    0.9395    0.6803   -1.6835 H   0  0  0  0  0  0  0  0  0  0  0  0
    1.7846   -0.8060   -1.2506 H   0  0  0  0  0  0  0  0  0  0  0  0
   -0.0400   -1.0910   -2.3690 C   0  0  0  0  0  0  0  0  0  0  0  0
   -0.0727   -2.3434   -2.3241 O   0  5  0  0  0  0  0  0  0  0  0  0
   -0.6320   -0.3985   -3.2246 O   0  0  0  0  0  0  0  0  0  0  0  0
   -0.0374    1.1645    0.5781 C   0  0  0  0  0  0  0  0  0  0  0  0
   -0.9816    1.8416    0.1544 O   0  0  0  0  0  0  0  0  0  0  0  0
    0.8235    1.6462    1.4801 N   0  0  0  0  0  0  0  0  0  0  0  0
    1.6183    1.0435    1.7020 H   0  0  0  0  0  0  0  0  0  0  0  0
    0.7895    2.9929    2.0404 C   0  0  0  0  0  0  0  0  0  0  0  0
   -0.2344    3.2522    2.3130 H   0  0  0  0  0  0  0  0  0  0  0  0
    1.4265    3.0377    2.9233 H   0  0  0  0  0  0  0  0  0  0  0  0
    1.1511    3.7014    1.2950 H   0  0  0  0  0  0  0  0  0  0  0  0
  5  6  2  0  0  0  0
  5  7  1  0  0  0  0
  2  3  1  0  0  0  0
  2  4  1  0  0  0  0
  2  5  1  0  0  0  0
  1  2  1  0  0  0  0
 17 18  2  0  0  0  0
 17 19  1  0  0  0  0
 14 15  1  0  0  0  0
 14 16  2  0  0  0  0
 11 12  1  0  0  0  0
 11 13  1  0  0  0  0
 11 14  1  0  0  0  0
  9 10  1  0  0  0  0
  9 11  1  0  0  0  0
  9 17  1  0  0  0  0
  7  8  1  0  0  0  0
  7  9  1  0  0  0  0
 21 22  1  0  0  0  0
 21 23  1  0  0  0  0
 21 24  1  0  0  0  0
 19 20  1  0  0  0  0
 19 21  1  0  0  0  0
M  CHG  1  15  -1
M  END
$$$$
default_name
  -OEChem-02102213163D

 24 23  0     1  0  0  0  0  0999 V2000
   -2.8347   -3.7166    0.8034 H   0  0  0  0  0  0  0  0  0  0  0  0
   -2.7728   -2.7096    0.3954 C   0  0  0  0  0  0  0  0  0  0  0  0
   -3.4267   -2.0426    0.9524 H   0  0  0  0  0  0  0  0  0  0  0  0
   -3.0538   -2.7186   -0.6556 H   0  0  0  0  0  0  0  0  0  0  0  0
   -1.3498   -2.2206    0.5184 C   0  0  0  0  0  0  0  0  0  0  0  0
   -0.4997   -2.9426    1.0194 O   0  0  0  0  0  0  0  0  0  0  0  0
   -1.1198   -0.9926    0.0674 N   0  0  0  0  0  0  0  0  0  0  0  0
   -1.8978   -0.4486   -0.2716 H   0  0  0  0  0  0  0  0  0  0  0  0
    0.1693   -0.2866    0.0854 C   0  0  1  0  0  0  0  0  0  0  0  0
    0.8425   -0.7905    0.7811 H   0  0  0  0  0  0  0  0  0  0  0  0
    0.7993   -0.3404   -1.3233 C   0  0  0  0  0  0  0  0  0  0  0  0
    0.9395    0.6803   -1.6835 H   0  0  0  0  0  0  0  0  0  0  0  0
    1.7846   -0.8060   -1.2506 H   0  0  0  0  0  0  0  0  0  0  0  0
   -0.0400   -1.0910   -2.3690 C   0  0  0  0  0  0  0  0  0  0  0  0
   -0.3090   -2.2986   -2.1666 O   0  5  0  0  0  0  0  0  0  0  0  0
   -0.3923   -0.4482   -3.3813 O   0  0  0  0  0  0  0  0  0  0  0  0
   -0.0374    1.1645    0.5781 C   0  0  0  0  0  0  0  0  0  0  0  0
   -0.9816    1.8416    0.1544 O   0  0  0  0  0  0  0  0  0  0  0  0
    0.8235    1.6462    1.4801 N   0  0  0  0  0  0  0  0  0  0  0  0
    1.6183    1.0435    1.7020 H   0  0  0  0  0  0  0  0  0  0  0  0
    0.7895    2.9929    2.0404 C   0  0  0  0  0  0  0  0  0  0  0  0
   -0.2344    3.2522    2.3130 H   0  0  0  0  0  0  0  0  0  0  0  0
    1.4265    3.0377    2.9233 H   0  0  0  0  0  0  0  0  0  0  0  0
    1.1511    3.7014    1.2950 H   0  0  0  0  0  0  0  0  0  0  0  0
  5  6  2  0  0  0  0
  5  7  1  0  0  0  0
  2  3  1  0  0  0  0
  2  4  1  0  0  0  0
  2  5  1  0  0  0  0
  1  2  1  0  0  0  0
 17 18  2  0  0  0  0
 17 19  1  0  0  0  0
 14 15  1  0  0  0  0
 14 16  2  0  0  0  0
 11 12  1  0  0  0  0
 11 13  1  0  0  0  0
 11 14  1  0  0  0  0
  9 10  1  0  0  0  0
  9 11  1  0  0  0  0
  9 17  1  0  0  0  0
  7  8  1  0  0  0  0
  7  9  1  0  0  0  0
 21 22  1  0  0  0  0
 21 23  1  0  0  0  0
 21 24  1  0  0  0  0
 19 20  1  0  0  0  0
 19 21  1  0  0  0  0
M  CHG  1  15  -1
M  END
$$$$
default_name
  -OEChem-02102213163D

 24 23  0     1  0  0  0  0  0999 V2000
   -2.8347   -3.7166    0.8034 H   0  0  0  0  0  0  0  0  0  0  0  0
   -2.7728   -2.7096    0.3954 C   0  0  0  0  0  0  0  0  0  0  0  0
   -3.4267   -2.0426    0.9524 H   0  0  0  0  0  0  0  0  0  0  0  0
   -3.0538   -2.7186   -0.6556 H   0  0  0  0  0  0  0  0  0  0  0  0
   -1.3498   -2.2206    0.5184 C   0  0  0  0  0  0  0  0  0  0  0  0
   -0.4997   -2.9426    1.0194 O   0  0  0  0  0  0  0  0  0  0  0  0
   -1.1198   -0.9926    0.0674 N   0  0  0  0  0  0  0  0  0  0  0  0
   -1.8978   -0.4486   -0.2716 H   0  0  0  0  0  0  0  0  0  0  0  0
    0.1693   -0.2866    0.0854 C   0  0  1  0  0  0  0  0  0  0  0  0
    0.8425   -0.7905    0.7811 H   0  0  0  0  0  0  0  0  0  0  0  0
    0.7993   -0.3404   -1.3233 C   0  0  0  0  0  0  0  0  0  0  0  0
    0.9395    0.6803   -1.6835 H   0  0  0  0  0  0  0  0  0  0  0  0
    1.7846   -0.8060   -1.2506 H   0  0  0  0  0  0  0  0  0  0  0  0
   -0.0400   -1.0910   -2.3690 C   0  0  0  0  0  0  0  0  0  0  0  0
   -0.5492   -2.1914   -2.0507 O   0  5  0  0  0  0  0  0  0  0  0  0
   -0.1496   -0.5606   -3.4954 O   0  0  0  0  0  0  0  0  0  0  0  0
   -0.0374    1.1645    0.5781 C   0  0  0  0  0  0  0  0  0  0  0  0
   -0.9816    1.8416    0.1544 O   0  0  0  0  0  0  0  0  0  0  0  0
    0.8235    1.6462    1.4801 N   0  0  0  0  0  0  0  0  0  0  0  0
    1.6183    1.0435    1.7020 H   0  0  0  0  0  0  0  0  0  0  0  0
    0.7895    2.9929    2.0404 C   0  0  0  0  0  0  0  0  0  0  0  0
   -0.2344    3.2522    2.3130 H   0  0  0  0  0  0  0  0  0  0  0  0
    1.4265    3.0377    2.9233 H   0  0  0  0  0  0  0  0  0  0  0  0
    1.1511    3.7014    1.2950 H   0  0  0  0  0  0  0  0  0  0  0  0
  5  6  2  0  0  0  0
  5  7  1  0  0  0  0
  2  3  1  0  0  0  0
  2  4  1  0  0  0  0
  2  5  1  0  0  0  0
  1  2  1  0  0  0  0
 17 18  2  0  0  0  0
 17 19  1  0  0  0  0
 14 15  1  0  0  0  0
 14 16  2  0  0  0  0
 11 12  1  0  0  0  0
 11 13  1  0  0  0  0
 11 14  1  0  0  0  0
  9 10  1  0  0  0  0
  9 11  1  0  0  0  0
  9 17  1  0  0  0  0
  7  8  1  0  0  0  0
  7  9  1  0  0  0  0
 21 22  1  0  0  0  0
 21 23  1  0  0  0  0
 21 24  1  0  0  0  0
 19 20  1  0  0  0  0
 19 21  1  0  0  0  0
M  CHG  1  15  -1
M  END
$$$$
default_name
  -OEChem-02102213163D

 24 23  0     1  0  0  0  0  0999 V2000
   -2.8347   -3.7166    0.8034 H   0  0  0  0  0  0  0  0  0  0  0  0
   -2.7728   -2.7096    0.3954 C   0  0  0  0  0  0  0  0  0  0  0  0
   -3.4267   -2.0426    0.9524 H   0  0  0  0  0  0  0  0  0  0  0  0
   -3.0538   -2.7186   -0.6556 H   0  0  0  0  0  0  0  0  0  0  0  0
   -1.3498   -2.2206    0.5184 C   0  0  0  0  0  0  0  0  0  0  0  0
   -0.4997   -2.9426    1.0194 O   0  0  0  0  0  0  0  0  0  0  0  0
   -1.1198   -0.9926    0.0674 N   0  0  0  0  0  0  0  0  0  0  0  0
   -1.8978   -0.4486   -0.2716 H   0  0  0  0  0  0  0  0  0  0  0  0
    0.1693   -0.2866    0.0854 C   0  0  1  0  0  0  0  0  0  0  0  0
    0.8425   -0.7905    0.7811 H   0  0  0  0  0  0  0  0  0  0  0  0
    0.7993   -0.3404   -1.3233 C   0  0  0  0  0  0  0  0  0  0  0  0
    0.9395    0.6803   -1.6835 H   0  0  0  0  0  0  0  0  0  0  0  0
    1.7846   -0.8060   -1.2506 H   0  0  0  0  0  0  0  0  0  0  0  0
   -0.0400   -1.0910   -2.3690 C   0  0  0  0  0  0  0  0  0  0  0  0
   -0.7771   -2.0292   -1.9842 O   0  5  0  0  0  0  0  0  0  0  0  0
    0.0794   -0.7280   -3.5590 O   0  0  0  0  0  0  0  0  0  0  0  0
   -0.0374    1.1645    0.5781 C   0  0  0  0  0  0  0  0  0  0  0  0
   -0.9816    1.8416    0.1544 O   0  0  0  0  0  0  0  0  0  0  0  0
    0.8235    1.6462    1.4801 N   0  0  0  0  0  0  0  0  0  0  0  0
    1.6183    1.0435    1.7020 H   0  0  0  0  0  0  0  0  0  0  0  0
    0.7895    2.9929    2.0404 C   0  0  0  0  0  0  0  0  0  0  0  0
   -0.2344    3.2522    2.3130 H   0  0  0  0  0  0  0  0  0  0  0  0
    1.4265    3.0377    2.9233 H   0  0  0  0  0  0  0  0  0  0  0  0
    1.1511    3.7014    1.2950 H   0  0  0  0  0  0  0  0  0  0  0  0
  5  6  2  0  0  0  0
  5  7  1  0  0  0  0
  2  3  1  0  0  0  0
  2  4  1  0  0  0  0
  2  5  1  0  0  0  0
  1  2  1  0  0  0  0
 17 18  2  0  0  0  0
 17 19  1  0  0  0  0
 14 15  1  0  0  0  0
 14 16  2  0  0  0  0
 11 12  1  0  0  0  0
 11 13  1  0  0  0  0
 11 14  1  0  0  0  0
  9 10  1  0  0  0  0
  9 11  1  0  0  0  0
  9 17  1  0  0  0  0
  7  8  1  0  0  0  0
  7  9  1  0  0  0  0
 21 22  1  0  0  0  0
 21 23  1  0  0  0  0
 21 24  1  0  0  0  0
 19 20  1  0  0  0  0
 19 21  1  0  0  0  0
M  CHG  1  15  -1
M  END
$$$$
default_name
  -OEChem-02102213163D

 24 23  0     1  0  0  0  0  0999 V2000
   -2.8347   -3.7166    0.8034 H   0  0  0  0  0  0  0  0  0  0  0  0
   -2.7728   -2.7096    0.3954 C   0  0  0  0  0  0  0  0  0  0  0  0
   -3.4267   -2.0426    0.9524 H   0  0  0  0  0  0  0  0  0  0  0  0
   -3.0538   -2.7186   -0.6556 H   0  0  0  0  0  0  0  0  0  0  0  0
   -1.3498   -2.2206    0.5184 C   0  0  0  0  0  0  0  0  0  0  0  0
   -0.4997   -2.9426    1.0194 O   0  0  0  0  0  0  0  0  0  0  0  0
   -1.1198   -0.9926    0.0674 N   0  0  0  0  0  0  0  0  0  0  0  0
   -1.8978   -0.4486   -0.2716 H   0  0  0  0  0  0  0  0  0  0  0  0
    0.1693   -0.2866    0.0854 C   0  0  1  0  0  0  0  0  0  0  0  0
    0.8425   -0.7905    0.7811 H   0  0  0  0  0  0  0  0  0  0  0  0
    0.7993   -0.3404   -1.3233 C   0  0  0  0  0  0  0  0  0  0  0  0
    0.9395    0.6803   -1.6835 H   0  0  0  0  0  0  0  0  0  0  0  0
    1.7846   -0.8060   -1.2506 H   0  0  0  0  0  0  0  0  0  0  0  0
   -0.0400   -1.0910   -2.3690 C   0  0  0  0  0  0  0  0  0  0  0  0
   -0.9770   -1.8230   -1.9718 O   0  5  0  0  0  0  0  0  0  0  0  0
    0.2791   -0.9391   -3.5679 O   0  0  0  0  0  0  0  0  0  0  0  0
   -0.0374    1.1645    0.5781 C   0  0  0  0  0  0  0  0  0  0  0  0
   -0.9816    1.8416    0.1544 O   0  0  0  0  0  0  0  0  0  0  0  0
    0.8235    1.6462    1.4801 N   0  0  0  0  0  0  0  0  0  0  0  0
    1.6183    1.0435    1.7020 H   0  0  0  0  0  0  0  0  0  0  0  0
    0.7895    2.9929    2.0404 C   0  0  0  0  0  0  0  0  0  0  0  0
   -0.2344    3.2522    2.3130 H   0  0  0  0  0  0  0  0  0  0  0  0
    1.4265    3.0377    2.9233 H   0  0  0  0  0  0  0  0  0  0  0  0
    1.1511    3.7014    1.2950 H   0  0  0  0  0  0  0  0  0  0  0  0
  5  6  2  0  0  0  0
  5  7  1  0  0  0  0
  2  3  1  0  0  0  0
  2  4  1  0  0  0  0
  2  5  1  0  0  0  0
  1  2  1  0  0  0  0
 17 18  2  0  0  0  0
 17 19  1  0  0  0  0
 14 15  1  0  0  0  0
 14 16  2  0  0  0  0
 11 12  1  0  0  0  0
 11 13  1  0  0  0  0
 11 14  1  0  0  0  0
  9 10  1  0  0  0  0
  9 11  1  0  0  0  0
  9 17  1  0  0  0  0
  7  8  1  0  0  0  0
  7  9  1  0  0  0  0
 21 22  1  0  0  0  0
 21 23  1  0  0  0  0
 21 24  1  0  0  0  0
 19 20  1  0  0  0  0
 19 21  1  0  0  0  0
M  CHG  1  15  -1
M  END
$$$$
default_name
  -OEChem-02102213163D

 24 23  0     1  0  0  0  0  0999 V2000
   -2.8347   -3.7166    0.8034 H   0  0  0  0  0  0  0  0  0  0  0  0
   -2.7728   -2.7096    0.3954 C   0  0  0  0  0  0  0  0  0  0  0  0
   -3.4267   -2.0426    0.9524 H   0  0  0  0  0  0  0  0  0  0  0  0
   -3.0538   -2.7186   -0.6556 H   0  0  0  0  0  0  0  0  0  0  0  0
   -1.3498   -2.2206    0.5184 C   0  0  0  0  0  0  0  0  0  0  0  0
   -0.4997   -2.9426    1.0194 O   0  0  0  0  0  0  0  0  0  0  0  0
   -1.1198   -0.9926    0.0674 N   0  0  0  0  0  0  0  0  0  0  0  0
   -1.8978   -0.4486   -0.2716 H   0  0  0  0  0  0  0  0  0  0  0  0
    0.1693   -0.2866    0.0854 C   0  0  1  0  0  0  0  0  0  0  0  0
    0.8425   -0.7905    0.7811 H   0  0  0  0  0  0  0  0  0  0  0  0
    0.7993   -0.3404   -1.3233 C   0  0  0  0  0  0  0  0  0  0  0  0
    0.9395    0.6803   -1.6835 H   0  0  0  0  0  0  0  0  0  0  0  0
    1.7846   -0.8060   -1.2506 H   0  0  0  0  0  0  0  0  0  0  0  0
   -0.0400   -1.0910   -2.3690 C   0  0  0  0  0  0  0  0  0  0  0  0
   -1.1354   -1.5868   -2.0142 O   0  5  0  0  0  0  0  0  0  0  0  0
    0.4360   -1.1794   -3.5213 O   0  0  0  0  0  0  0  0  0  0  0  0
   -0.0374    1.1645    0.5781 C   0  0  0  0  0  0  0  0  0  0  0  0
   -0.9816    1.8416    0.1544 O   0  0  0  0  0  0  0  0  0  0  0  0
    0.8235    1.6462    1.4801 N   0  0  0  0  0  0  0  0  0  0  0  0
    1.6183    1.0435    1.7020 H   0  0  0  0  0  0  0  0  0  0  0  0
    0.7895    2.9929    2.0404 C   0  0  0  0  0  0  0  0  0  0  0  0
   -0.2344    3.2522    2.3130 H   0  0  0  0  0  0  0  0  0  0  0  0
    1.4265    3.0377    2.9233 H   0  0  0  0  0  0  0  0  0  0  0  0
    1.1511    3.7014    1.2950 H   0  0  0  0  0  0  0  0  0  0  0  0
  5  6  2  0  0  0  0
  5  7  1  0  0  0  0
  2  3  1  0  0  0  0
  2  4  1  0  0  0  0
  2  5  1  0  0  0  0
  1  2  1  0  0  0  0
 17 18  2  0  0  0  0
 17 19  1  0  0  0  0
 14 15  1  0  0  0  0
 14 16  2  0  0  0  0
 11 12  1  0  0  0  0
 11 13  1  0  0  0  0
 11 14  1  0  0  0  0
  9 10  1  0  0  0  0
  9 11  1  0  0  0  0
  9 17  1  0  0  0  0
  7  8  1  0  0  0  0
  7  9  1  0  0  0  0
 21 22  1  0  0  0  0
 21 23  1  0  0  0  0
 21 24  1  0  0  0  0
 19 20  1  0  0  0  0
 19 21  1  0  0  0  0
M  CHG  1  15  -1
M  END
$$$$
default_name
  -OEChem-02102213163D

 24 23  0     1  0  0  0  0  0999 V2000
   -2.8347   -3.7166    0.8034 H   0  0  0  0  0  0  0  0  0  0  0  0
   -2.7728   -2.7096    0.3954 C   0  0  0  0  0  0  0  0  0  0  0  0
   -3.4267   -2.0426    0.9524 H   0  0  0  0  0  0  0  0  0  0  0  0
   -3.0538   -2.7186   -0.6556 H   0  0  0  0  0  0  0  0  0  0  0  0
   -1.3498   -2.2206    0.5184 C   0  0  0  0  0  0  0  0  0  0  0  0
   -0.4997   -2.9426    1.0194 O   0  0  0  0  0  0  0  0  0  0  0  0
   -1.1198   -0.9926    0.0674 N   0  0  0  0  0  0  0  0  0  0  0  0
   -1.8978   -0.4486   -0.2716 H   0  0  0  0  0  0  0  0  0  0  0  0
    0.1693   -0.2866    0.0854 C   0  0  1  0  0  0  0  0  0  0  0  0
    0.8425   -0.7905    0.7811 H   0  0  0  0  0  0  0  0  0  0  0  0
    0.7993   -0.3404   -1.3233 C   0  0  0  0  0  0  0  0  0  0  0  0
    0.9395    0.6803   -1.6835 H   0  0  0  0  0  0  0  0  0  0  0  0
    1.7846   -0.8060   -1.2506 H   0  0  0  0  0  0  0  0  0  0  0  0
   -0.0400   -1.0910   -2.3690 C   0  0  0  0  0  0  0  0  0  0  0  0
   -1.2414   -1.3368   -2.1086 O   0  5  0  0  0  0  0  0  0  0  0  0
    0.5394   -1.4325   -3.4225 O   0  0  0  0  0  0  0  0  0  0  0  0
   -0.0374    1.1645    0.5781 C   0  0  0  0  0  0  0  0  0  0  0  0
   -0.9816    1.8416    0.1544 O   0  0  0  0  0  0  0  0  0  0  0  0
    0.8235    1.6462    1.4801 N   0  0  0  0  0  0  0  0  0  0  0  0
    1.6183    1.0435    1.7020 H   0  0  0  0  0  0  0  0  0  0  0  0
    0.7895    2.9929    2.0404 C   0  0  0  0  0  0  0  0  0  0  0  0
   -0.2344    3.2522    2.3130 H   0  0  0  0  0  0  0  0  0  0  0  0
    1.4265    3.0377    2.9233 H   0  0  0  0  0  0  0  0  0  0  0  0
    1.1511    3.7014    1.2950 H   0  0  0  0  0  0  0  0  0  0  0  0
  5  6  2  0  0  0  0
  5  7  1  0  0  0  0
  2  3  1  0  0  0  0
  2  4  1  0  0  0  0
  2  5  1  0  0  0  0
  1  2  1  0  0  0  0
 17 18  2  0  0  0  0
 17 19  1  0  0  0  0
 14 15  1  0  0  0  0
 14 16  2  0  0  0  0
 11 12  1  0  0  0  0
 11 13  1  0  0  0  0
 11 14  1  0  0  0  0
  9 10  1  0  0  0  0
  9 11  1  0  0  0  0
  9 17  1  0  0  0  0
  7  8  1  0  0  0  0
  7  9  1  0  0  0  0
 21 22  1  0  0  0  0
 21 23  1  0  0  0  0
 21 24  1  0  0  0  0
 19 20  1  0  0  0  0
 19 21  1  0  0  0  0
M  CHG  1  15  -1
M  END
$$$$
default_name
  -OEChem-02102213163D

 24 23  0     1  0  0  0  0  0999 V2000
   -2.8347   -3.7166    0.8034 H   0  0  0  0  0  0  0  0  0  0  0  0
   -2.7728   -2.7096    0.3954 C   0  0  0  0  0  0  0  0  0  0  0  0
   -3.4267   -2.0426    0.9524 H   0  0  0  0  0  0  0  0  0  0  0  0
   -3.0538   -2.7186   -0.6556 H   0  0  0  0  0  0  0  0  0  0  0  0
   -1.3498   -2.2206    0.5184 C   0  0  0  0  0  0  0  0  0  0  0  0
   -0.4997   -2.9426    1.0194 O   0  0  0  0  0  0  0  0  0  0  0  0
   -1.1198   -0.9926    0.0674 N   0  0  0  0  0  0  0  0  0  0  0  0
   -1.8978   -0.4486   -0.2716 H   0  0  0  0  0  0  0  0  0  0  0  0
    0.1693   -0.2866    0.0854 C   0  0  1  0  0  0  0  0  0  0  0  0
    0.8425   -0.7905    0.7811 H   0  0  0  0  0  0  0  0  0  0  0  0
    0.7993   -0.3404   -1.3233 C   0  0  0  0  0  0  0  0  0  0  0  0
    0.9395    0.6803   -1.6835 H   0  0  0  0  0  0  0  0  0  0  0  0
    1.7846   -0.8060   -1.2506 H   0  0  0  0  0  0  0  0  0  0  0  0
   -0.0400   -1.0910   -2.3690 C   0  0  0  0  0  0  0  0  0  0  0  0
   -1.2878   -1.0900   -2.2485 O   0  5  0  0  0  0  0  0  0  0  0  0
    0.5821   -1.6813   -3.2782 O   0  0  0  0  0  0  0  0  0  0  0  0
   -0.0374    1.1645    0.5781 C   0  0  0  0  0  0  0  0  0  0  0  0
   -0.9816    1.8416    0.1544 O   0  0  0  0  0  0  0  0  0  0  0  0
    0.8235    1.6462    1.4801 N   0  0  0  0  0  0  0  0  0  0  0  0
    1.6183    1.0435    1.7020 H   0  0  0  0  0  0  0  0  0  0  0  0
    0.7895    2.9929    2.0404 C   0  0  0  0  0  0  0  0  0  0  0  0
   -0.2344    3.2522    2.3130 H   0  0  0  0  0  0  0  0  0  0  0  0
    1.4265    3.0377    2.9233 H   0  0  0  0  0  0  0  0  0  0  0  0
    1.1511    3.7014    1.2950 H   0  0  0  0  0  0  0  0  0  0  0  0
  5  6  2  0  0  0  0
  5  7  1  0  0  0  0
  2  3  1  0  0  0  0
  2  4  1  0  0  0  0
  2  5  1  0  0  0  0
  1  2  1  0  0  0  0
 17 18  2  0  0  0  0
 17 19  1  0  0  0  0
 14 15  1  0  0  0  0
 14 16  2  0  0  0  0
 11 12  1  0  0  0  0
 11 13  1  0  0  0  0
 11 14  1  0  0  0  0
  9 10  1  0  0  0  0
  9 11  1  0  0  0  0
  9 17  1  0  0  0  0
  7  8  1  0  0  0  0
  7  9  1  0  0  0  0
 21 22  1  0  0  0  0
 21 23  1  0  0  0  0
 21 24  1  0  0  0  0
 19 20  1  0  0  0  0
 19 21  1  0  0  0  0
M  CHG  1  15  -1
M  END
$$$$
default_name
  -OEChem-02102213163D

 24 23  0     1  0  0  0  0  0999 V2000
   -2.8347   -3.7166    0.8034 H   0  0  0  0  0  0  0  0  0  0  0  0
   -2.7728   -2.7096    0.3954 C   0  0  0  0  0  0  0  0  0  0  0  0
   -3.4267   -2.0426    0.9524 H   0  0  0  0  0  0  0  0  0  0  0  0
   -3.0538   -2.7186   -0.6556 H   0  0  0  0  0  0  0  0  0  0  0  0
   -1.3498   -2.2206    0.5184 C   0  0  0  0  0  0  0  0  0  0  0  0
   -0.4997   -2.9426    1.0194 O   0  0  0  0  0  0  0  0  0  0  0  0
   -1.1198   -0.9926    0.0674 N   0  0  0  0  0  0  0  0  0  0  0  0
   -1.8978   -0.4486   -0.2716 H   0  0  0  0  0  0  0  0  0  0  0  0
    0.1693   -0.2866    0.0854 C   0  0  1  0  0  0  0  0  0  0  0  0
    0.8425   -0.7905    0.7811 H   0  0  0  0  0  0  0  0  0  0  0  0
    0.7993   -0.3404   -1.3233 C   0  0  0  0  0  0  0  0  0  0  0  0
    0.9395    0.6803   -1.6835 H   0  0  0  0  0  0  0  0  0  0  0  0
    1.7846   -0.8060   -1.2506 H   0  0  0  0  0  0  0  0  0  0  0  0
   -0.0400   -1.0910   -2.3690 C   0  0  0  0  0  0  0  0  0  0  0  0
   -1.2715   -0.8632   -2.4244 O   0  5  0  0  0  0  0  0  0  0  0  0
    0.5613   -1.9087   -3.0983 O   0  0  0  0  0  0  0  0  0  0  0  0
   -0.0374    1.1645    0.5781 C   0  0  0  0  0  0  0  0  0  0  0  0
   -0.9816    1.8416    0.1544 O   0  0  0  0  0  0  0  0  0  0  0  0
    0.8235    1.6462    1.4801 N   0  0  0  0  0  0  0  0  0  0  0  0
    1.6183    1.0435    1.7020 H   0  0  0  0  0  0  0  0  0  0  0  0
    0.7895    2.9929    2.0404 C   0  0  0  0  0  0  0  0  0  0  0  0
   -0.2344    3.2522    2.3130 H   0  0  0  0  0  0  0  0  0  0  0  0
    1.4265    3.0377    2.9233 H   0  0  0  0  0  0  0  0  0  0  0  0
    1.1511    3.7014    1.2950 H   0  0  0  0  0  0  0  0  0  0  0  0
  5  6  2  0  0  0  0
  5  7  1  0  0  0  0
  2  3  1  0  0  0  0
  2  4  1  0  0  0  0
  2  5  1  0  0  0  0
  1  2  1  0  0  0  0
 17 18  2  0  0  0  0
 17 19  1  0  0  0  0
 14 15  1  0  0  0  0
 14 16  2  0  0  0  0
 11 12  1  0  0  0  0
 11 13  1  0  0  0  0
 11 14  1  0  0  0  0
  9 10  1  0  0  0  0
  9 11  1  0  0  0  0
  9 17  1  0  0  0  0
  7  8  1  0  0  0  0
  7  9  1  0  0  0  0
 21 22  1  0  0  0  0
 21 23  1  0  0  0  0
 21 24  1  0  0  0  0
 19 20  1  0  0  0  0
 19 21  1  0  0  0  0
M  CHG  1  15  -1
M  END
$$$$
default_name
  -OEChem-02102213163D

 24 23  0     1  0  0  0  0  0999 V2000
   -2.8347   -3.7166    0.8034 H   0  0  0  0  0  0  0  0  0  0  0  0
   -2.7728   -2.7096    0.3954 C   0  0  0  0  0  0  0  0  0  0  0  0
   -3.4267   -2.0426    0.9524 H   0  0  0  0  0  0  0  0  0  0  0  0
   -3.0538   -2.7186   -0.6556 H   0  0  0  0  0  0  0  0  0  0  0  0
   -1.3498   -2.2206    0.5184 C   0  0  0  0  0  0  0  0  0  0  0  0
   -0.4997   -2.9426    1.0194 O   0  0  0  0  0  0  0  0  0  0  0  0
   -1.1198   -0.9926    0.0674 N   0  0  0  0  0  0  0  0  0  0  0  0
   -1.8978   -0.4486   -0.2716 H   0  0  0  0  0  0  0  0  0  0  0  0
    0.1693   -0.2866    0.0854 C   0  0  1  0  0  0  0  0  0  0  0  0
    0.8425   -0.7905    0.7811 H   0  0  0  0  0  0  0  0  0  0  0  0
    0.7993   -0.3404   -1.3233 C   0  0  0  0  0  0  0  0  0  0  0  0
    0.9395    0.6803   -1.6835 H   0  0  0  0  0  0  0  0  0  0  0  0
    1.7846   -0.8060   -1.2506 H   0  0  0  0  0  0  0  0  0  0  0  0
   -0.0400   -1.0910   -2.3690 C   0  0  0  0  0  0  0  0  0  0  0  0
   -1.1936   -0.6719   -2.6243 O   0  5  0  0  0  0  0  0  0  0  0  0
    0.4785   -2.0993   -2.8950 O   0  0  0  0  0  0  0  0  0  0  0  0
   -0.0374    1.1645    0.5781 C   0  0  0  0  0  0  0  0  0  0  0  0
   -0.9816    1.8416    0.1544 O   0  0  0  0  0  0  0  0  0  0  0  0
    0.8235    1.6462    1.4801 N   0  0  0  0  0  0  0  0  0  0  0  0
    1.6183    1.0435    1.7020 H   0  0  0  0  0  0  0  0  0  0  0  0
    0.7895    2.9929    2.0404 C   0  0  0  0  0  0  0  0  0  0  0  0
   -0.2344    3.2522    2.3130 H   0  0  0  0  0  0  0  0  0  0  0  0
    1.4265    3.0377    2.9233 H   0  0  0  0  0  0  0  0  0  0  0  0
    1.1511    3.7014    1.2950 H   0  0  0  0  0  0  0  0  0  0  0  0
  5  6  2  0  0  0  0
  5  7  1  0  0  0  0
  2  3  1  0  0  0  0
  2  4  1  0  0  0  0
  2  5  1  0  0  0  0
  1  2  1  0  0  0  0
 17 18  2  0  0  0  0
 17 19  1  0  0  0  0
 14 15  1  0  0  0  0
 14 16  2  0  0  0  0
 11 12  1  0  0  0  0
 11 13  1  0  0  0  0
 11 14  1  0  0  0  0
  9 10  1  0  0  0  0
  9 11  1  0  0  0  0
  9 17  1  0  0  0  0
  7  8  1  0  0  0  0
  7  9  1  0  0  0  0
 21 22  1  0  0  0  0
 21 23  1  0  0  0  0
 21 24  1  0  0  0  0
 19 20  1  0  0  0  0
 19 21  1  0  0  0  0
M  CHG  1  15  -1
M  END
$$$$
default_name
  -OEChem-02102213163D

 24 23  0     1  0  0  0  0  0999 V2000
   -2.8347   -3.7166    0.8034 H   0  0  0  0  0  0  0  0  0  0  0  0
   -2.7728   -2.7096    0.3954 C   0  0  0  0  0  0  0  0  0  0  0  0
   -3.4267   -2.0426    0.9524 H   0  0  0  0  0  0  0  0  0  0  0  0
   -3.0538   -2.7186   -0.6556 H   0  0  0  0  0  0  0  0  0  0  0  0
   -1.3498   -2.2206    0.5184 C   0  0  0  0  0  0  0  0  0  0  0  0
   -0.4997   -2.9426    1.0194 O   0  0  0  0  0  0  0  0  0  0  0  0
   -1.1198   -0.9926    0.0674 N   0  0  0  0  0  0  0  0  0  0  0  0
   -1.8978   -0.4486   -0.2716 H   0  0  0  0  0  0  0  0  0  0  0  0
    0.1693   -0.2866    0.0854 C   0  0  1  0  0  0  0  0  0  0  0  0
    0.8425   -0.7905    0.7811 H   0  0  0  0  0  0  0  0  0  0  0  0
    0.7993   -0.3404   -1.3233 C   0  0  0  0  0  0  0  0  0  0  0  0
    0.9395    0.6803   -1.6835 H   0  0  0  0  0  0  0  0  0  0  0  0
    1.7846   -0.8060   -1.2506 H   0  0  0  0  0  0  0  0  0  0  0  0
   -0.0400   -1.0910   -2.3690 C   0  0  0  0  0  0  0  0  0  0  0  0
   -1.0593   -0.5290   -2.8346 O   0  5  0  0  0  0  0  0  0  0  0  0
    0.3392   -2.2401   -2.6822 O   0  0  0  0  0  0  0  0  0  0  0  0
   -0.0374    1.1645    0.5781 C   0  0  0  0  0  0  0  0  0  0  0  0
   -0.9816    1.8416    0.1544 O   0  0  0  0  0  0  0  0  0  0  0  0
    0.8235    1.6462    1.4801 N   0  0  0  0  0  0  0  0  0  0  0  0
    1.6183    1.0435    1.7020 H   0  0  0  0  0  0  0  0  0  0  0  0
    0.7895    2.9929    2.0404 C   0  0  0  0  0  0  0  0  0  0  0  0
   -0.2344    3.2522    2.3130 H   0  0  0  0  0  0  0  0  0  0  0  0
    1.4265    3.0377    2.9233 H   0  0  0  0  0  0  0  0  0  0  0  0
    1.1511    3.7014    1.2950 H   0  0  0  0  0  0  0  0  0  0  0  0
  5  6  2  0  0  0  0
  5  7  1  0  0  0  0
  2  3  1  0  0  0  0
  2  4  1  0  0  0  0
  2  5  1  0  0  0  0
  1  2  1  0  0  0  0
 17 18  2  0  0  0  0
 17 19  1  0  0  0  0
 14 15  1  0  0  0  0
 14 16  2  0  0  0  0
 11 12  1  0  0  0  0
 11 13  1  0  0  0  0
 11 14  1  0  0  0  0
  9 10  1  0  0  0  0
  9 11  1  0  0  0  0
  9 17  1  0  0  0  0
  7  8  1  0  0  0  0
  7  9  1  0  0  0  0
 21 22  1  0  0  0  0
 21 23  1  0  0  0  0
 21 24  1  0  0  0  0
 19 20  1  0  0  0  0
 19 21  1  0  0  0  0
M  CHG  1  15  -1
M  END
$$$$
default_name
  -OEChem-02102213163D

 24 23  0     1  0  0  0  0  0999 V2000
   -2.8347   -3.7166    0.8034 H   0  0  0  0  0  0  0  0  0  0  0  0
   -2.7728   -2.7096    0.3954 C   0  0  0  0  0  0  0  0  0  0  0  0
   -3.4267   -2.0426    0.9524 H   0  0  0  0  0  0  0  0  0  0  0  0
   -3.0538   -2.7186   -0.6556 H   0  0  0  0  0  0  0  0  0  0  0  0
   -1.3498   -2.2206    0.5184 C   0  0  0  0  0  0  0  0  0  0  0  0
   -0.4997   -2.9426    1.0194 O   0  0  0  0  0  0  0  0  0  0  0  0
   -1.1198   -0.9926    0.0674 N   0  0  0  0  0  0  0  0  0  0  0  0
   -1.8978   -0.4486   -0.2716 H   0  0  0  0  0  0  0  0  0  0  0  0
    0.1693   -0.2866    0.0854 C   0  0  1  0  0  0  0  0  0  0  0  0
    0.8425   -0.7905    0.7811 H   0  0  0  0  0  0  0  0  0  0  0  0
    0.7993   -0.3404   -1.3233 C   0  0  0  0  0  0  0  0  0  0  0  0
    0.9395    0.6803   -1.6835 H   0  0  0  0  0  0  0  0  0  0  0  0
    1.7846   -0.8060   -1.2506 H   0  0  0  0  0  0  0  0  0  0  0  0
   -0.0400   -1.0910   -2.3690 C   0  0  0  0  0  0  0  0  0  0  0  0
   -0.8779   -0.4444   -3.0409 O   0  5  0  0  0  0  0  0  0  0  0  0
    0.1529   -2.3214   -2.4743 O   0  0  0  0  0  0  0  0  0  0  0  0
   -0.0374    1.1645    0.5781 C   0  0  0  0  0  0  0  0  0  0  0  0
   -0.9816    1.8416    0.1544 O   0  0  0  0  0  0  0  0  0  0  0  0
    0.8235    1.6462    1.4801 N   0  0  0  0  0  0  0  0  0  0  0  0
    1.6183    1.0435    1.7020 H   0  0  0  0  0  0  0  0  0  0  0  0
    0.7895    2.9929    2.0404 C   0  0  0  0  0  0  0  0  0  0  0  0
   -0.2344    3.2522    2.3130 H   0  0  0  0  0  0  0  0  0  0  0  0
    1.4265    3.0377    2.9233 H   0  0  0  0  0  0  0  0  0  0  0  0
    1.1511    3.7014    1.2950 H   0  0  0  0  0  0  0  0  0  0  0  0
  5  6  2  0  0  0  0
  5  7  1  0  0  0  0
  2  3  1  0  0  0  0
  2  4  1  0  0  0  0
  2  5  1  0  0  0  0
  1  2  1  0  0  0  0
 17 18  2  0  0  0  0
 17 19  1  0  0  0  0
 14 15  1  0  0  0  0
 14 16  2  0  0  0  0
 11 12  1  0  0  0  0
 11 13  1  0  0  0  0
 11 14  1  0  0  0  0
  9 10  1  0  0  0  0
  9 11  1  0  0  0  0
  9 17  1  0  0  0  0
  7  8  1  0  0  0  0
  7  9  1  0  0  0  0
 21 22  1  0  0  0  0
 21 23  1  0  0  0  0
 21 24  1  0  0  0  0
 19 20  1  0  0  0  0
 19 21  1  0  0  0  0
M  CHG  1  15  -1
M  END
$$$$
default_name
  -OEChem-02102213163D

 24 23  0     1  0  0  0  0  0999 V2000
   -2.8347   -3.7166    0.8034 H   0  0  0  0  0  0  0  0  0  0  0  0
   -2.7728   -2.7096    0.3954 C   0  0  0  0  0  0  0  0  0  0  0  0
   -3.4267   -2.0426    0.9524 H   0  0  0  0  0  0  0  0  0  0  0  0
   -3.0538   -2.7186   -0.6556 H   0  0  0  0  0  0  0  0  0  0  0  0
   -1.3498   -2.2206    0.5184 C   0  0  0  0  0  0  0  0  0  0  0  0
   -0.4997   -2.9426    1.0194 O   0  0  0  0  0  0  0  0  0  0  0  0
   -1.1198   -0.9926    0.0674 N   0  0  0  0  0  0  0  0  0  0  0  0
   -1.8978   -0.4486   -0.2716 H   0  0  0  0  0  0  0  0  0  0  0  0
    0.1693   -0.2866    0.0854 C   0  0  1  0  0  0  0  0  0  0  0  0
    0.8425   -0.7905    0.7811 H   0  0  0  0  0  0  0  0  0  0  0  0
    0.7993   -0.3404   -1.3233 C   0  0  0  0  0  0  0  0  0  0  0  0
    0.9395    0.6803   -1.6835 H   0  0  0  0  0  0  0  0  0  0  0  0
    1.7846   -0.8060   -1.2506 H   0  0  0  0  0  0  0  0  0  0  0  0
   -0.0400   -1.0910   -2.3690 C   0  0  0  0  0  0  0  0  0  0  0  0
   -0.6617   -0.4238   -3.2293 O   0  5  0  0  0  0  0  0  0  0  0  0
   -0.0676   -2.3378   -2.2855 O   0  0  0  0  0  0  0  0  0  0  0  0
   -0.0374    1.1645    0.5781 C   0  0  0  0  0  0  0  0  0  0  0  0
   -0.9816    1.8416    0.1544 O   0  0  0  0  0  0  0  0  0  0  0  0
    0.8235    1.6462    1.4801 N   0  0  0  0  0  0  0  0  0  0  0  0
    1.6183    1.0435    1.7020 H   0  0  0  0  0  0  0  0  0  0  0  0
    0.7895    2.9929    2.0404 C   0  0  0  0  0  0  0  0  0  0  0  0
   -0.2344    3.2522    2.3130 H   0  0  0  0  0  0  0  0  0  0  0  0
    1.4265    3.0377    2.9233 H   0  0  0  0  0  0  0  0  0  0  0  0
    1.1511    3.7014    1.2950 H   0  0  0  0  0  0  0  0  0  0  0  0
  5  6  2  0  0  0  0
  5  7  1  0  0  0  0
  2  3  1  0  0  0  0
  2  4  1  0  0  0  0
  2  5  1  0  0  0  0
  1  2  1  0  0  0  0
 17 18  2  0  0  0  0
 17 19  1  0  0  0  0
 14 15  1  0  0  0  0
 14 16  2  0  0  0  0
 11 12  1  0  0  0  0
 11 13  1  0  0  0  0
 11 14  1  0  0  0  0
  9 10  1  0  0  0  0
  9 11  1  0  0  0  0
  9 17  1  0  0  0  0
  7  8  1  0  0  0  0
  7  9  1  0  0  0  0
 21 22  1  0  0  0  0
 21 23  1  0  0  0  0
 21 24  1  0  0  0  0
 19 20  1  0  0  0  0
 19 21  1  0  0  0  0
M  CHG  1  15  -1
M  END
$$$$
default_name
  -OEChem-02102213163D

 24 23  0     1  0  0  0  0  0999 V2000
   -2.8347   -3.7166    0.8034 H   0  0  0  0  0  0  0  0  0  0  0  0
   -2.7728   -2.7096    0.3954 C   0  0  0  0  0  0  0  0  0  0  0  0
   -3.4267   -2.0426    0.9524 H   0  0  0  0  0  0  0  0  0  0  0  0
   -3.0538   -2.7186   -0.6556 H   0  0  0  0  0  0  0  0  0  0  0  0
   -1.3498   -2.2206    0.5184 C   0  0  0  0  0  0  0  0  0  0  0  0
   -0.4997   -2.9426    1.0194 O   0  0  0  0  0  0  0  0  0  0  0  0
   -1.1198   -0.9926    0.0674 N   0  0  0  0  0  0  0  0  0  0  0  0
   -1.8978   -0.4486   -0.2716 H   0  0  0  0  0  0  0  0  0  0  0  0
    0.1693   -0.2866    0.0854 C   0  0  1  0  0  0  0  0  0  0  0  0
    0.8425   -0.7905    0.7811 H   0  0  0  0  0  0  0  0  0  0  0  0
    0.7993   -0.3404   -1.3233 C   0  0  0  0  0  0  0  0  0  0  0  0
    0.9395    0.6803   -1.6835 H   0  0  0  0  0  0  0  0  0  0  0  0
    1.7846   -0.8060   -1.2506 H   0  0  0  0  0  0  0  0  0  0  0  0
   -0.0400   -1.0910   -2.3690 C   0  0  0  0  0  0  0  0  0  0  0  0
   -0.4254   -0.4686   -3.3867 O   0  5  0  0  0  0  0  0  0  0  0  0
   -0.3074   -2.2881   -2.1288 O   0  0  0  0  0  0  0  0  0  0  0  0
   -0.0374    1.1645    0.5781 C   0  0  0  0  0  0  0  0  0  0  0  0
   -0.9816    1.8416    0.1544 O   0  0  0  0  0  0  0  0  0  0  0  0
    0.8235    1.6462    1.4801 N   0  0  0  0  0  0  0  0  0  0  0  0
    1.6183    1.0435    1.7020 H   0  0  0  0  0  0  0  0  0  0  0  0
    0.7895    2.9929    2.0404 C   0  0  0  0  0  0  0  0  0  0  0  0
   -0.2344    3.2522    2.3130 H   0  0  0  0  0  0  0  0  0  0  0  0
    1.4265    3.0377    2.9233 H   0  0  0  0  0  0  0  0  0  0  0  0
    1.1511    3.7014    1.2950 H   0  0  0  0  0  0  0  0  0  0  0  0
  5  6  2  0  0  0  0
  5  7  1  0  0  0  0
  2  3  1  0  0  0  0
  2  4  1  0  0  0  0
  2  5  1  0  0  0  0
  1  2  1  0  0  0  0
 17 18  2  0  0  0  0
 17 19  1  0  0  0  0
 14 15  1  0  0  0  0
 14 16  2  0  0  0  0
 11 12  1  0  0  0  0
 11 13  1  0  0  0  0
 11 14  1  0  0  0  0
  9 10  1  0  0  0  0
  9 11  1  0  0  0  0
  9 17  1  0  0  0  0
  7  8  1  0  0  0  0
  7  9  1  0  0  0  0
 21 22  1  0  0  0  0
 21 23  1  0  0  0  0
 21 24  1  0  0  0  0
 19 20  1  0  0  0  0
 19 21  1  0  0  0  0
M  CHG  1  15  -1
M  END
$$$$
default_name
  -OEChem-02102213163D

 24 23  0     1  0  0  0  0  0999 V2000
   -2.8347   -3.7166    0.8034 H   0  0  0  0  0  0  0  0  0  0  0  0
   -2.7728   -2.7096    0.3954 C   0  0  0  0  0  0  0  0  0  0  0  0
   -3.4267   -2.0426    0.9524 H   0  0  0  0  0  0  0  0  0  0  0  0
   -3.0538   -2.7186   -0.6556 H   0  0  0  0  0  0  0  0  0  0  0  0
   -1.3498   -2.2206    0.5184 C   0  0  0  0  0  0  0  0  0  0  0  0
   -0.4997   -2.9426    1.0194 O   0  0  0  0  0  0  0  0  0  0  0  0
   -1.1198   -0.9926    0.0674 N   0  0  0  0  0  0  0  0  0  0  0  0
   -1.8978   -0.4486   -0.2716 H   0  0  0  0  0  0  0  0  0  0  0  0
    0.1693   -0.2866    0.0854 C   0  0  1  0  0  0  0  0  0  0  0  0
    0.8425   -0.7905    0.7811 H   0  0  0  0  0  0  0  0  0  0  0  0
    0.7993   -0.3404   -1.3233 C   0  0  0  0  0  0  0  0  0  0  0  0
    0.9395    0.6803   -1.6835 H   0  0  0  0  0  0  0  0  0  0  0  0
    1.7846   -0.8060   -1.2506 H   0  0  0  0  0  0  0  0  0  0  0  0
   -0.0400   -1.0910   -2.3690 C   0  0  0  0  0  0  0  0  0  0  0  0
   -0.1851   -0.5758   -3.5027 O   0  5  0  0  0  0  0  0  0  0  0  0
   -0.5500   -2.1756   -2.0147 O   0  0  0  0  0  0  0  0  0  0  0  0
   -0.0374    1.1645    0.5781 C   0  0  0  0  0  0  0  0  0  0  0  0
   -0.9816    1.8416    0.1544 O   0  0  0  0  0  0  0  0  0  0  0  0
    0.8235    1.6462    1.4801 N   0  0  0  0  0  0  0  0  0  0  0  0
    1.6183    1.0435    1.7020 H   0  0  0  0  0  0  0  0  0  0  0  0
    0.7895    2.9929    2.0404 C   0  0  0  0  0  0  0  0  0  0  0  0
   -0.2344    3.2522    2.3130 H   0  0  0  0  0  0  0  0  0  0  0  0
    1.4265    3.0377    2.9233 H   0  0  0  0  0  0  0  0  0  0  0  0
    1.1511    3.7014    1.2950 H   0  0  0  0  0  0  0  0  0  0  0  0
  5  6  2  0  0  0  0
  5  7  1  0  0  0  0
  2  3  1  0  0  0  0
  2  4  1  0  0  0  0
  2  5  1  0  0  0  0
  1  2  1  0  0  0  0
 17 18  2  0  0  0  0
 17 19  1  0  0  0  0
 14 15  1  0  0  0  0
 14 16  2  0  0  0  0
 11 12  1  0  0  0  0
 11 13  1  0  0  0  0
 11 14  1  0  0  0  0
  9 10  1  0  0  0  0
  9 11  1  0  0  0  0
  9 17  1  0  0  0  0
  7  8  1  0  0  0  0
  7  9  1  0  0  0  0
 21 22  1  0  0  0  0
 21 23  1  0  0  0  0
 21 24  1  0  0  0  0
 19 20  1  0  0  0  0
 19 21  1  0  0  0  0
M  CHG  1  15  -1
M  END
$$$$
default_name
  -OEChem-02102213163D

 24 23  0     1  0  0  0  0  0999 V2000
   -2.8347   -3.7166    0.8034 H   0  0  0  0  0  0  0  0  0  0  0  0
   -2.7728   -2.7096    0.3954 C   0  0  0  0  0  0  0  0  0  0  0  0
   -3.4267   -2.0426    0.9524 H   0  0  0  0  0  0  0  0  0  0  0  0
   -3.0538   -2.7186   -0.6556 H   0  0  0  0  0  0  0  0  0  0  0  0
   -1.3498   -2.2206    0.5184 C   0  0  0  0  0  0  0  0  0  0  0  0
   -0.4997   -2.9426    1.0194 O   0  0  0  0  0  0  0  0  0  0  0  0
   -1.1198   -0.9926    0.0674 N   0  0  0  0  0  0  0  0  0  0  0  0
   -1.8978   -0.4486   -0.2716 H   0  0  0  0  0  0  0  0  0  0  0  0
    0.1693   -0.2866    0.0854 C   0  0  1  0  0  0  0  0  0  0  0  0
    0.8425   -0.7905    0.7811 H   0  0  0  0  0  0  0  0  0  0  0  0
    0.7993   -0.3404   -1.3233 C   0  0  0  0  0  0  0  0  0  0  0  0
    0.9395    0.6803   -1.6835 H   0  0  0  0  0  0  0  0  0  0  0  0
    1.7846   -0.8060   -1.2506 H   0  0  0  0  0  0  0  0  0  0  0  0
   -0.0400   -1.0910   -2.3690 C   0  0  0  0  0  0  0  0  0  0  0  0
    0.0428   -0.7380   -3.5691 O   0  5  0  0  0  0  0  0  0  0  0  0
   -0.7791   -2.0082   -1.9511 O   0  0  0  0  0  0  0  0  0  0  0  0
   -0.0374    1.1645    0.5781 C   0  0  0  0  0  0  0  0  0  0  0  0
   -0.9816    1.8416    0.1544 O   0  0  0  0  0  0  0  0  0  0  0  0
    0.8235    1.6462    1.4801 N   0  0  0  0  0  0  0  0  0  0  0  0
    1.6183    1.0435    1.7020 H   0  0  0  0  0  0  0  0  0  0  0  0
    0.7895    2.9929    2.0404 C   0  0  0  0  0  0  0  0  0  0  0  0
   -0.2344    3.2522    2.3130 H   0  0  0  0  0  0  0  0  0  0  0  0
    1.4265    3.0377    2.9233 H   0  0  0  0  0  0  0  0  0  0  0  0
    1.1511    3.7014    1.2950 H   0  0  0  0  0  0  0  0  0  0  0  0
  5  6  2  0  0  0  0
  5  7  1  0  0  0  0
  2  3  1  0  0  0  0
  2  4  1  0  0  0  0
  2  5  1  0  0  0  0
  1  2  1  0  0  0  0
 17 18  2  0  0  0  0
 17 19  1  0  0  0  0
 14 15  1  0  0  0  0
 14 16  2  0  0  0  0
 11 12  1  0  0  0  0
 11 13  1  0  0  0  0
 11 14  1  0  0  0  0
  9 10  1  0  0  0  0
  9 11  1  0  0  0  0
  9 17  1  0  0  0  0
  7  8  1  0  0  0  0
  7  9  1  0  0  0  0
 21 22  1  0  0  0  0
 21 23  1  0  0  0  0
 21 24  1  0  0  0  0
 19 20  1  0  0  0  0
 19 21  1  0  0  0  0
M  CHG  1  15  -1
M  END
$$$$
default_name
  -OEChem-02102213163D

 24 23  0     1  0  0  0  0  0999 V2000
   -2.8347   -3.7166    0.8034 H   0  0  0  0  0  0  0  0  0  0  0  0
   -2.7728   -2.7096    0.3954 C   0  0  0  0  0  0  0  0  0  0  0  0
   -3.4267   -2.0426    0.9524 H   0  0  0  0  0  0  0  0  0  0  0  0
   -3.0538   -2.7186   -0.6556 H   0  0  0  0  0  0  0  0  0  0  0  0
   -1.3498   -2.2206    0.5184 C   0  0  0  0  0  0  0  0  0  0  0  0
   -0.4997   -2.9426    1.0194 O   0  0  0  0  0  0  0  0  0  0  0  0
   -1.1198   -0.9926    0.0674 N   0  0  0  0  0  0  0  0  0  0  0  0
   -1.8978   -0.4486   -0.2716 H   0  0  0  0  0  0  0  0  0  0  0  0
    0.1693   -0.2866    0.0854 C   0  0  1  0  0  0  0  0  0  0  0  0
    0.8425   -0.7905    0.7811 H   0  0  0  0  0  0  0  0  0  0  0  0
    0.7993   -0.3404   -1.3233 C   0  0  0  0  0  0  0  0  0  0  0  0
    0.9395    0.6803   -1.6835 H   0  0  0  0  0  0  0  0  0  0  0  0
    1.7846   -0.8060   -1.2506 H   0  0  0  0  0  0  0  0  0  0  0  0
   -0.0400   -1.0910   -2.3690 C   0  0  0  0  0  0  0  0  0  0  0  0
    0.2427   -0.9443   -3.5815 O   0  5  0  0  0  0  0  0  0  0  0  0
   -0.9788   -1.7972   -1.9423 O   0  0  0  0  0  0  0  0  0  0  0  0
   -0.0374    1.1645    0.5781 C   0  0  0  0  0  0  0  0  0  0  0  0
   -0.9816    1.8416    0.1544 O   0  0  0  0  0  0  0  0  0  0  0  0
    0.8235    1.6462    1.4801 N   0  0  0  0  0  0  0  0  0  0  0  0
    1.6183    1.0435    1.7020 H   0  0  0  0  0  0  0  0  0  0  0  0
    0.7895    2.9929    2.0404 C   0  0  0  0  0  0  0  0  0  0  0  0
   -0.2344    3.2522    2.3130 H   0  0  0  0  0  0  0  0  0  0  0  0
    1.4265    3.0377    2.9233 H   0  0  0  0  0  0  0  0  0  0  0  0
    1.1511    3.7014    1.2950 H   0  0  0  0  0  0  0  0  0  0  0  0
  5  6  2  0  0  0  0
  5  7  1  0  0  0  0
  2  3  1  0  0  0  0
  2  4  1  0  0  0  0
  2  5  1  0  0  0  0
  1  2  1  0  0  0  0
 17 18  2  0  0  0  0
 17 19  1  0  0  0  0
 14 15  1  0  0  0  0
 14 16  2  0  0  0  0
 11 12  1  0  0  0  0
 11 13  1  0  0  0  0
 11 14  1  0  0  0  0
  9 10  1  0  0  0  0
  9 11  1  0  0  0  0
  9 17  1  0  0  0  0
  7  8  1  0  0  0  0
  7  9  1  0  0  0  0
 21 22  1  0  0  0  0
 21 23  1  0  0  0  0
 21 24  1  0  0  0  0
 19 20  1  0  0  0  0
 19 21  1  0  0  0  0
M  CHG  1  15  -1
M  END
$$$$
default_name
  -OEChem-02102213163D

 24 23  0     1  0  0  0  0  0999 V2000
   -2.8347   -3.7166    0.8034 H   0  0  0  0  0  0  0  0  0  0  0  0
   -2.7728   -2.7096    0.3954 C   0  0  0  0  0  0  0  0  0  0  0  0
   -3.4267   -2.0426    0.9524 H   0  0  0  0  0  0  0  0  0  0  0  0
   -3.0538   -2.7186   -0.6556 H   0  0  0  0  0  0  0  0  0  0  0  0
   -1.3498   -2.2206    0.5184 C   0  0  0  0  0  0  0  0  0  0  0  0
   -0.4997   -2.9426    1.0194 O   0  0  0  0  0  0  0  0  0  0  0  0
   -1.1198   -0.9926    0.0674 N   0  0  0  0  0  0  0  0  0  0  0  0
   -1.8978   -0.4486   -0.2716 H   0  0  0  0  0  0  0  0  0  0  0  0
    0.1693   -0.2866    0.0854 C   0  0  1  0  0  0  0  0  0  0  0  0
    0.8425   -0.7905    0.7811 H   0  0  0  0  0  0  0  0  0  0  0  0
    0.7993   -0.3404   -1.3233 C   0  0  0  0  0  0  0  0  0  0  0  0
    1.1838    0.6501   -1.5730 H   0  0  0  0  0  0  0  0  0  0  0  0
    1.6453   -1.0309   -1.3043 H   0  0  0  0  0  0  0  0  0  0  0  0
   -0.1703   -0.7576   -2.4400 C   0  0  0  0  0  0  0  0  0  0  0  0
    0.2625   -0.8260   -3.6146 O   0  5  0  0  0  0  0  0  0  0  0  0
   -1.3530   -0.9881   -2.1077 O   0  0  0  0  0  0  0  0  0  0  0  0
   -0.0374    1.1645    0.5781 C   0  0  0  0  0  0  0  0  0  0  0  0
   -0.9816    1.8416    0.1544 O   0  0  0  0  0  0  0  0  0  0  0  0
    0.8235    1.6462    1.4801 N   0  0  0  0  0  0  0  0  0  0  0  0
    1.6183    1.0435    1.7020 H   0  0  0  0  0  0  0  0  0  0  0  0
    0.7895    2.9929    2.0404 C   0  0  0  0  0  0  0  0  0  0  0  0
   -0.2344    3.2522    2.3130 H   0  0  0  0  0  0  0  0  0  0  0  0
    1.4265    3.0377    2.9233 H   0  0  0  0  0  0  0  0  0  0  0  0
    1.1511    3.7014    1.2950 H   0  0  0  0  0  0  0  0  0  0  0  0
  5  6  2  0  0  0  0
  5  7  1  0  0  0  0
  2  3  1  0  0  0  0
  2  4  1  0  0  0  0
  2  5  1  0  0  0  0
  1  2  1  0  0  0  0
 17 18  2  0  0  0  0
 17 19  1  0  0  0  0
 14 15  1  0  0  0  0
 14 16  2  0  0  0  0
 11 12  1  0  0  0  0
 11 13  1  0  0  0  0
 11 14  1  0  0  0  0
  9 10  1  0  0  0  0
  9 11  1  0  0  0  0
  9 17  1  0  0  0  0
  7  8  1  0  0  0  0
  7  9  1  0  0  0  0
 21 22  1  0  0  0  0
 21 23  1  0  0  0  0
 21 24  1  0  0  0  0
 19 20  1  0  0  0  0
 19 21  1  0  0  0  0
M  CHG  1  15  -1
M  END
$$$$
default_name
  -OEChem-02102213163D

 24 23  0     1  0  0  0  0  0999 V2000
   -2.8347   -3.7166    0.8034 H   0  0  0  0  0  0  0  0  0  0  0  0
   -2.7728   -2.7096    0.3954 C   0  0  0  0  0  0  0  0  0  0  0  0
   -3.4267   -2.0426    0.9524 H   0  0  0  0  0  0  0  0  0  0  0  0
   -3.0538   -2.7186   -0.6556 H   0  0  0  0  0  0  0  0  0  0  0  0
   -1.3498   -2.2206    0.5184 C   0  0  0  0  0  0  0  0  0  0  0  0
   -0.4997   -2.9426    1.0194 O   0  0  0  0  0  0  0  0  0  0  0  0
   -1.1198   -0.9926    0.0674 N   0  0  0  0  0  0  0  0  0  0  0  0
   -1.8978   -0.4486   -0.2716 H   0  0  0  0  0  0  0  0  0  0  0  0
    0.1693   -0.2866    0.0854 C   0  0  1  0  0  0  0  0  0  0  0  0
    0.8425   -0.7905    0.7811 H   0  0  0  0  0  0  0  0  0  0  0  0
    0.7993   -0.3404   -1.3233 C   0  0  0  0  0  0  0  0  0  0  0  0
    1.1838    0.6501   -1.5730 H   0  0  0  0  0  0  0  0  0  0  0  0
    1.6453   -1.0309   -1.3043 H   0  0  0  0  0  0  0  0  0  0  0  0
   -0.1703   -0.7576   -2.4400 C   0  0  0  0  0  0  0  0  0  0  0  0
    0.3045   -1.1024   -3.5478 O   0  5  0  0  0  0  0  0  0  0  0  0
   -1.3916   -0.7087   -2.1785 O   0  0  0  0  0  0  0  0  0  0  0  0
   -0.0374    1.1645    0.5781 C   0  0  0  0  0  0  0  0  0  0  0  0
   -0.9816    1.8416    0.1544 O   0  0  0  0  0  0  0  0  0  0  0  0
    0.8235    1.6462    1.4801 N   0  0  0  0  0  0  0  0  0  0  0  0
    1.6183    1.0435    1.7020 H   0  0  0  0  0  0  0  0  0  0  0  0
    0.7895    2.9929    2.0404 C   0  0  0  0  0  0  0  0  0  0  0  0
   -0.2344    3.2522    2.3130 H   0  0  0  0  0  0  0  0  0  0  0  0
    1.4265    3.0377    2.9233 H   0  0  0  0  0  0  0  0  0  0  0  0
    1.1511    3.7014    1.2950 H   0  0  0  0  0  0  0  0  0  0  0  0
  5  6  2  0  0  0  0
  5  7  1  0  0  0  0
  2  3  1  0  0  0  0
  2  4  1  0  0  0  0
  2  5  1  0  0  0  0
  1  2  1  0  0  0  0
 17 18  2  0  0  0  0
 17 19  1  0  0  0  0
 14 15  1  0  0  0  0
 14 16  2  0  0  0  0
 11 12  1  0  0  0  0
 11 13  1  0  0  0  0
 11 14  1  0  0  0  0
  9 10  1  0  0  0  0
  9 11  1  0  0  0  0
  9 17  1  0  0  0  0
  7  8  1  0  0  0  0
  7  9  1  0  0  0  0
 21 22  1  0  0  0  0
 21 23  1  0  0  0  0
 21 24  1  0  0  0  0
 19 20  1  0  0  0  0
 19 21  1  0  0  0  0
M  CHG  1  15  -1
M  END
$$$$
default_name
  -OEChem-02102213163D

 24 23  0     1  0  0  0  0  0999 V2000
   -2.8347   -3.7166    0.8034 H   0  0  0  0  0  0  0  0  0  0  0  0
   -2.7728   -2.7096    0.3954 C   0  0  0  0  0  0  0  0  0  0  0  0
   -3.4267   -2.0426    0.9524 H   0  0  0  0  0  0  0  0  0  0  0  0
   -3.0538   -2.7186   -0.6556 H   0  0  0  0  0  0  0  0  0  0  0  0
   -1.3498   -2.2206    0.5184 C   0  0  0  0  0  0  0  0  0  0  0  0
   -0.4997   -2.9426    1.0194 O   0  0  0  0  0  0  0  0  0  0  0  0
   -1.1198   -0.9926    0.0674 N   0  0  0  0  0  0  0  0  0  0  0  0
   -1.8978   -0.4486   -0.2716 H   0  0  0  0  0  0  0  0  0  0  0  0
    0.1693   -0.2866    0.0854 C   0  0  1  0  0  0  0  0  0  0  0  0
    0.8425   -0.7905    0.7811 H   0  0  0  0  0  0  0  0  0  0  0  0
    0.7993   -0.3404   -1.3233 C   0  0  0  0  0  0  0  0  0  0  0  0
    1.1838    0.6501   -1.5730 H   0  0  0  0  0  0  0  0  0  0  0  0
    1.6453   -1.0309   -1.3043 H   0  0  0  0  0  0  0  0  0  0  0  0
   -0.1703   -0.7576   -2.4400 C   0  0  0  0  0  0  0  0  0  0  0  0
    0.2884   -1.3664   -3.4352 O   0  5  0  0  0  0  0  0  0  0  0  0
   -1.3713   -0.4432   -2.2953 O   0  0  0  0  0  0  0  0  0  0  0  0
   -0.0374    1.1645    0.5781 C   0  0  0  0  0  0  0  0  0  0  0  0
   -0.9816    1.8416    0.1544 O   0  0  0  0  0  0  0  0  0  0  0  0
    0.8235    1.6462    1.4801 N   0  0  0  0  0  0  0  0  0  0  0  0
    1.6183    1.0435    1.7020 H   0  0  0  0  0  0  0  0  0  0  0  0
    0.7895    2.9929    2.0404 C   0  0  0  0  0  0  0  0  0  0  0  0
   -0.2344    3.2522    2.3130 H   0  0  0  0  0  0  0  0  0  0  0  0
    1.4265    3.0377    2.9233 H   0  0  0  0  0  0  0  0  0  0  0  0
    1.1511    3.7014    1.2950 H   0  0  0  0  0  0  0  0  0  0  0  0
  5  6  2  0  0  0  0
  5  7  1  0  0  0  0
  2  3  1  0  0  0  0
  2  4  1  0  0  0  0
  2  5  1  0  0  0  0
  1  2  1  0  0  0  0
 17 18  2  0  0  0  0
 17 19  1  0  0  0  0
 14 15  1  0  0  0  0
 14 16  2  0  0  0  0
 11 12  1  0  0  0  0
 11 13  1  0  0  0  0
 11 14  1  0  0  0  0
  9 10  1  0  0  0  0
  9 11  1  0  0  0  0
  9 17  1  0  0  0  0
  7  8  1  0  0  0  0
  7  9  1  0  0  0  0
 21 22  1  0  0  0  0
 21 23  1  0  0  0  0
 21 24  1  0  0  0  0
 19 20  1  0  0  0  0
 19 21  1  0  0  0  0
M  CHG  1  15  -1
M  END
$$$$
default_name
  -OEChem-02102213163D

 24 23  0     1  0  0  0  0  0999 V2000
   -2.8347   -3.7166    0.8034 H   0  0  0  0  0  0  0  0  0  0  0  0
   -2.7728   -2.7096    0.3954 C   0  0  0  0  0  0  0  0  0  0  0  0
   -3.4267   -2.0426    0.9524 H   0  0  0  0  0  0  0  0  0  0  0  0
   -3.0538   -2.7186   -0.6556 H   0  0  0  0  0  0  0  0  0  0  0  0
   -1.3498   -2.2206    0.5184 C   0  0  0  0  0  0  0  0  0  0  0  0
   -0.4997   -2.9426    1.0194 O   0  0  0  0  0  0  0  0  0  0  0  0
   -1.1198   -0.9926    0.0674 N   0  0  0  0  0  0  0  0  0  0  0  0
   -1.8978   -0.4486   -0.2716 H   0  0  0  0  0  0  0  0  0  0  0  0
    0.1693   -0.2866    0.0854 C   0  0  1  0  0  0  0  0  0  0  0  0
    0.8425   -0.7905    0.7811 H   0  0  0  0  0  0  0  0  0  0  0  0
    0.7993   -0.3404   -1.3233 C   0  0  0  0  0  0  0  0  0  0  0  0
    1.1838    0.6501   -1.5730 H   0  0  0  0  0  0  0  0  0  0  0  0
    1.6453   -1.0309   -1.3043 H   0  0  0  0  0  0  0  0  0  0  0  0
   -0.1703   -0.7576   -2.4400 C   0  0  0  0  0  0  0  0  0  0  0  0
    0.2153   -1.6001   -3.2845 O   0  5  0  0  0  0  0  0  0  0  0  0
   -1.2937   -0.2097   -2.4500 O   0  0  0  0  0  0  0  0  0  0  0  0
   -0.0374    1.1645    0.5781 C   0  0  0  0  0  0  0  0  0  0  0  0
   -0.9816    1.8416    0.1544 O   0  0  0  0  0  0  0  0  0  0  0  0
    0.8235    1.6462    1.4801 N   0  0  0  0  0  0  0  0  0  0  0  0
    1.6183    1.0435    1.7020 H   0  0  0  0  0  0  0  0  0  0  0  0
    0.7895    2.9929    2.0404 C   0  0  0  0  0  0  0  0  0  0  0  0
   -0.2344    3.2522    2.3130 H   0  0  0  0  0  0  0  0  0  0  0  0
    1.4265    3.0377    2.9233 H   0  0  0  0  0  0  0  0  0  0  0  0
    1.1511    3.7014    1.2950 H   0  0  0  0  0  0  0  0  0  0  0  0
  5  6  2  0  0  0  0
  5  7  1  0  0  0  0
  2  3  1  0  0  0  0
  2  4  1  0  0  0  0
  2  5  1  0  0  0  0
  1  2  1  0  0  0  0
 17 18  2  0  0  0  0
 17 19  1  0  0  0  0
 14 15  1  0  0  0  0
 14 16  2  0  0  0  0
 11 12  1  0  0  0  0
 11 13  1  0  0  0  0
 11 14  1  0  0  0  0
  9 10  1  0  0  0  0
  9 11  1  0  0  0  0
  9 17  1  0  0  0  0
  7  8  1  0  0  0  0
  7  9  1  0  0  0  0
 21 22  1  0  0  0  0
 21 23  1  0  0  0  0
 21 24  1  0  0  0  0
 19 20  1  0  0  0  0
 19 21  1  0  0  0  0
M  CHG  1  15  -1
M  END
$$$$
default_name
  -OEChem-02102213163D

 24 23  0     1  0  0  0  0  0999 V2000
   -2.8347   -3.7166    0.8034 H   0  0  0  0  0  0  0  0  0  0  0  0
   -2.7728   -2.7096    0.3954 C   0  0  0  0  0  0  0  0  0  0  0  0
   -3.4267   -2.0426    0.9524 H   0  0  0  0  0  0  0  0  0  0  0  0
   -3.0538   -2.7186   -0.6556 H   0  0  0  0  0  0  0  0  0  0  0  0
   -1.3498   -2.2206    0.5184 C   0  0  0  0  0  0  0  0  0  0  0  0
   -0.4997   -2.9426    1.0194 O   0  0  0  0  0  0  0  0  0  0  0  0
   -1.1198   -0.9926    0.0674 N   0  0  0  0  0  0  0  0  0  0  0  0
   -1.8978   -0.4486   -0.2716 H   0  0  0  0  0  0  0  0  0  0  0  0
    0.1693   -0.2866    0.0854 C   0  0  1  0  0  0  0  0  0  0  0  0
    0.8425   -0.7905    0.7811 H   0  0  0  0  0  0  0  0  0  0  0  0
    0.7993   -0.3404   -1.3233 C   0  0  0  0  0  0  0  0  0  0  0  0
    1.1838    0.6501   -1.5730 H   0  0  0  0  0  0  0  0  0  0  0  0
    1.6453   -1.0309   -1.3043 H   0  0  0  0  0  0  0  0  0  0  0  0
   -0.1703   -0.7576   -2.4400 C   0  0  0  0  0  0  0  0  0  0  0  0
    0.0902   -1.7873   -3.1059 O   0  5  0  0  0  0  0  0  0  0  0  0
   -1.1638   -0.0239   -2.6321 O   0  0  0  0  0  0  0  0  0  0  0  0
   -0.0374    1.1645    0.5781 C   0  0  0  0  0  0  0  0  0  0  0  0
   -0.9816    1.8416    0.1544 O   0  0  0  0  0  0  0  0  0  0  0  0
    0.8235    1.6462    1.4801 N   0  0  0  0  0  0  0  0  0  0  0  0
    1.6183    1.0435    1.7020 H   0  0  0  0  0  0  0  0  0  0  0  0
    0.7895    2.9929    2.0404 C   0  0  0  0  0  0  0  0  0  0  0  0
   -0.2344    3.2522    2.3130 H   0  0  0  0  0  0  0  0  0  0  0  0
    1.4265    3.0377    2.9233 H   0  0  0  0  0  0  0  0  0  0  0  0
    1.1511    3.7014    1.2950 H   0  0  0  0  0  0  0  0  0  0  0  0
  5  6  2  0  0  0  0
  5  7  1  0  0  0  0
  2  3  1  0  0  0  0
  2  4  1  0  0  0  0
  2  5  1  0  0  0  0
  1  2  1  0  0  0  0
 17 18  2  0  0  0  0
 17 19  1  0  0  0  0
 14 15  1  0  0  0  0
 14 16  2  0  0  0  0
 11 12  1  0  0  0  0
 11 13  1  0  0  0  0
 11 14  1  0  0  0  0
  9 10  1  0  0  0  0
  9 11  1  0  0  0  0
  9 17  1  0  0  0  0
  7  8  1  0  0  0  0
  7  9  1  0  0  0  0
 21 22  1  0  0  0  0
 21 23  1  0  0  0  0
 21 24  1  0  0  0  0
 19 20  1  0  0  0  0
 19 21  1  0  0  0  0
M  CHG  1  15  -1
M  END
$$$$
default_name
  -OEChem-02102213163D

 24 23  0     1  0  0  0  0  0999 V2000
   -2.8347   -3.7166    0.8034 H   0  0  0  0  0  0  0  0  0  0  0  0
   -2.7728   -2.7096    0.3954 C   0  0  0  0  0  0  0  0  0  0  0  0
   -3.4267   -2.0426    0.9524 H   0  0  0  0  0  0  0  0  0  0  0  0
   -3.0538   -2.7186   -0.6556 H   0  0  0  0  0  0  0  0  0  0  0  0
   -1.3498   -2.2206    0.5184 C   0  0  0  0  0  0  0  0  0  0  0  0
   -0.4997   -2.9426    1.0194 O   0  0  0  0  0  0  0  0  0  0  0  0
   -1.1198   -0.9926    0.0674 N   0  0  0  0  0  0  0  0  0  0  0  0
   -1.8978   -0.4486   -0.2716 H   0  0  0  0  0  0  0  0  0  0  0  0
    0.1693   -0.2866    0.0854 C   0  0  1  0  0  0  0  0  0  0  0  0
    0.8425   -0.7905    0.7811 H   0  0  0  0  0  0  0  0  0  0  0  0
    0.7993   -0.3404   -1.3233 C   0  0  0  0  0  0  0  0  0  0  0  0
    1.1838    0.6501   -1.5730 H   0  0  0  0  0  0  0  0  0  0  0  0
    1.6453   -1.0309   -1.3043 H   0  0  0  0  0  0  0  0  0  0  0  0
   -0.1703   -0.7576   -2.4400 C   0  0  0  0  0  0  0  0  0  0  0  0
   -0.0785   -1.9155   -2.9115 O   0  5  0  0  0  0  0  0  0  0  0  0
   -0.9907    0.1013   -2.8292 O   0  0  0  0  0  0  0  0  0  0  0  0
   -0.0374    1.1645    0.5781 C   0  0  0  0  0  0  0  0  0  0  0  0
   -0.9816    1.8416    0.1544 O   0  0  0  0  0  0  0  0  0  0  0  0
    0.8235    1.6462    1.4801 N   0  0  0  0  0  0  0  0  0  0  0  0
    1.6183    1.0435    1.7020 H   0  0  0  0  0  0  0  0  0  0  0  0
    0.7895    2.9929    2.0404 C   0  0  0  0  0  0  0  0  0  0  0  0
   -0.2344    3.2522    2.3130 H   0  0  0  0  0  0  0  0  0  0  0  0
    1.4265    3.0377    2.9233 H   0  0  0  0  0  0  0  0  0  0  0  0
    1.1511    3.7014    1.2950 H   0  0  0  0  0  0  0  0  0  0  0  0
  5  6  2  0  0  0  0
  5  7  1  0  0  0  0
  2  3  1  0  0  0  0
  2  4  1  0  0  0  0
  2  5  1  0  0  0  0
  1  2  1  0  0  0  0
 17 18  2  0  0  0  0
 17 19  1  0  0  0  0
 14 15  1  0  0  0  0
 14 16  2  0  0  0  0
 11 12  1  0  0  0  0
 11 13  1  0  0  0  0
 11 14  1  0  0  0  0
  9 10  1  0  0  0  0
  9 11  1  0  0  0  0
  9 17  1  0  0  0  0
  7  8  1  0  0  0  0
  7  9  1  0  0  0  0
 21 22  1  0  0  0  0
 21 23  1  0  0  0  0
 21 24  1  0  0  0  0
 19 20  1  0  0  0  0
 19 21  1  0  0  0  0
M  CHG  1  15  -1
M  END
$$$$
default_name
  -OEChem-02102213163D

 24 23  0     1  0  0  0  0  0999 V2000
   -2.8347   -3.7166    0.8034 H   0  0  0  0  0  0  0  0  0  0  0  0
   -2.7728   -2.7096    0.3954 C   0  0  0  0  0  0  0  0  0  0  0  0
   -3.4267   -2.0426    0.9524 H   0  0  0  0  0  0  0  0  0  0  0  0
   -3.0538   -2.7186   -0.6556 H   0  0  0  0  0  0  0  0  0  0  0  0
   -1.3498   -2.2206    0.5184 C   0  0  0  0  0  0  0  0  0  0  0  0
   -0.4997   -2.9426    1.0194 O   0  0  0  0  0  0  0  0  0  0  0  0
   -1.1198   -0.9926    0.0674 N   0  0  0  0  0  0  0  0  0  0  0  0
   -1.8978   -0.4486   -0.2716 H   0  0  0  0  0  0  0  0  0  0  0  0
    0.1693   -0.2866    0.0854 C   0  0  1  0  0  0  0  0  0  0  0  0
    0.8425   -0.7905    0.7811 H   0  0  0  0  0  0  0  0  0  0  0  0
    0.7993   -0.3404   -1.3233 C   0  0  0  0  0  0  0  0  0  0  0  0
    1.1838    0.6501   -1.5730 H   0  0  0  0  0  0  0  0  0  0  0  0
    1.6453   -1.0309   -1.3043 H   0  0  0  0  0  0  0  0  0  0  0  0
   -0.1703   -0.7576   -2.4400 C   0  0  0  0  0  0  0  0  0  0  0  0
   -0.2792   -1.9759   -2.7147 O   0  5  0  0  0  0  0  0  0  0  0  0
   -0.7860    0.1575   -3.0279 O   0  0  0  0  0  0  0  0  0  0  0  0
   -0.0374    1.1645    0.5781 C   0  0  0  0  0  0  0  0  0  0  0  0
   -0.9816    1.8416    0.1544 O   0  0  0  0  0  0  0  0  0  0  0  0
    0.8235    1.6462    1.4801 N   0  0  0  0  0  0  0  0  0  0  0  0
    1.6183    1.0435    1.7020 H   0  0  0  0  0  0  0  0  0  0  0  0
    0.7895    2.9929    2.0404 C   0  0  0  0  0  0  0  0  0  0  0  0
   -0.2344    3.2522    2.3130 H   0  0  0  0  0  0  0  0  0  0  0  0
    1.4265    3.0377    2.9233 H   0  0  0  0  0  0  0  0  0  0  0  0
    1.1511    3.7014    1.2950 H   0  0  0  0  0  0  0  0  0  0  0  0
  5  6  2  0  0  0  0
  5  7  1  0  0  0  0
  2  3  1  0  0  0  0
  2  4  1  0  0  0  0
  2  5  1  0  0  0  0
  1  2  1  0  0  0  0
 17 18  2  0  0  0  0
 17 19  1  0  0  0  0
 14 15  1  0  0  0  0
 14 16  2  0  0  0  0
 11 12  1  0  0  0  0
 11 13  1  0  0  0  0
 11 14  1  0  0  0  0
  9 10  1  0  0  0  0
  9 11  1  0  0  0  0
  9 17  1  0  0  0  0
  7  8  1  0  0  0  0
  7  9  1  0  0  0  0
 21 22  1  0  0  0  0
 21 23  1  0  0  0  0
 21 24  1  0  0  0  0
 19 20  1  0  0  0  0
 19 21  1  0  0  0  0
M  CHG  1  15  -1
M  END
$$$$
default_name
  -OEChem-02102213163D

 24 23  0     1  0  0  0  0  0999 V2000
   -2.8347   -3.7166    0.8034 H   0  0  0  0  0  0  0  0  0  0  0  0
   -2.7728   -2.7096    0.3954 C   0  0  0  0  0  0  0  0  0  0  0  0
   -3.4267   -2.0426    0.9524 H   0  0  0  0  0  0  0  0  0  0  0  0
   -3.0538   -2.7186   -0.6556 H   0  0  0  0  0  0  0  0  0  0  0  0
   -1.3498   -2.2206    0.5184 C   0  0  0  0  0  0  0  0  0  0  0  0
   -0.4997   -2.9426    1.0194 O   0  0  0  0  0  0  0  0  0  0  0  0
   -1.1198   -0.9926    0.0674 N   0  0  0  0  0  0  0  0  0  0  0  0
   -1.8978   -0.4486   -0.2716 H   0  0  0  0  0  0  0  0  0  0  0  0
    0.1693   -0.2866    0.0854 C   0  0  1  0  0  0  0  0  0  0  0  0
    0.8425   -0.7905    0.7811 H   0  0  0  0  0  0  0  0  0  0  0  0
    0.7993   -0.3404   -1.3233 C   0  0  0  0  0  0  0  0  0  0  0  0
    1.1838    0.6501   -1.5730 H   0  0  0  0  0  0  0  0  0  0  0  0
    1.6453   -1.0309   -1.3043 H   0  0  0  0  0  0  0  0  0  0  0  0
   -0.1703   -0.7576   -2.4400 C   0  0  0  0  0  0  0  0  0  0  0  0
   -0.4982   -1.9643   -2.5289 O   0  5  0  0  0  0  0  0  0  0  0  0
   -0.5638    0.1409   -3.2147 O   0  0  0  0  0  0  0  0  0  0  0  0
   -0.0374    1.1645    0.5781 C   0  0  0  0  0  0  0  0  0  0  0  0
   -0.9816    1.8416    0.1544 O   0  0  0  0  0  0  0  0  0  0  0  0
    0.8235    1.6462    1.4801 N   0  0  0  0  0  0  0  0  0  0  0  0
    1.6183    1.0435    1.7020 H   0  0  0  0  0  0  0  0  0  0  0  0
    0.7895    2.9929    2.0404 C   0  0  0  0  0  0  0  0  0  0  0  0
   -0.2344    3.2522    2.3130 H   0  0  0  0  0  0  0  0  0  0  0  0
    1.4265    3.0377    2.9233 H   0  0  0  0  0  0  0  0  0  0  0  0
    1.1511    3.7014    1.2950 H   0  0  0  0  0  0  0  0  0  0  0  0
  5  6  2  0  0  0  0
  5  7  1  0  0  0  0
  2  3  1  0  0  0  0
  2  4  1  0  0  0  0
  2  5  1  0  0  0  0
  1  2  1  0  0  0  0
 17 18  2  0  0  0  0
 17 19  1  0  0  0  0
 14 15  1  0  0  0  0
 14 16  2  0  0  0  0
 11 12  1  0  0  0  0
 11 13  1  0  0  0  0
 11 14  1  0  0  0  0
  9 10  1  0  0  0  0
  9 11  1  0  0  0  0
  9 17  1  0  0  0  0
  7  8  1  0  0  0  0
  7  9  1  0  0  0  0
 21 22  1  0  0  0  0
 21 23  1  0  0  0  0
 21 24  1  0  0  0  0
 19 20  1  0  0  0  0
 19 21  1  0  0  0  0
M  CHG  1  15  -1
M  END
$$$$
default_name
  -OEChem-02102213163D

 24 23  0     1  0  0  0  0  0999 V2000
   -2.8347   -3.7166    0.8034 H   0  0  0  0  0  0  0  0  0  0  0  0
   -2.7728   -2.7096    0.3954 C   0  0  0  0  0  0  0  0  0  0  0  0
   -3.4267   -2.0426    0.9524 H   0  0  0  0  0  0  0  0  0  0  0  0
   -3.0538   -2.7186   -0.6556 H   0  0  0  0  0  0  0  0  0  0  0  0
   -1.3498   -2.2206    0.5184 C   0  0  0  0  0  0  0  0  0  0  0  0
   -0.4997   -2.9426    1.0194 O   0  0  0  0  0  0  0  0  0  0  0  0
   -1.1198   -0.9926    0.0674 N   0  0  0  0  0  0  0  0  0  0  0  0
   -1.8978   -0.4486   -0.2716 H   0  0  0  0  0  0  0  0  0  0  0  0
    0.1693   -0.2866    0.0854 C   0  0  1  0  0  0  0  0  0  0  0  0
    0.8425   -0.7905    0.7811 H   0  0  0  0  0  0  0  0  0  0  0  0
    0.7993   -0.3404   -1.3233 C   0  0  0  0  0  0  0  0  0  0  0  0
    1.1838    0.6501   -1.5730 H   0  0  0  0  0  0  0  0  0  0  0  0
    1.6453   -1.0309   -1.3043 H   0  0  0  0  0  0  0  0  0  0  0  0
   -0.1703   -0.7576   -2.4400 C   0  0  0  0  0  0  0  0  0  0  0  0
   -0.7206   -1.8816   -2.3666 O   0  5  0  0  0  0  0  0  0  0  0  0
   -0.3392    0.0525   -3.3767 O   0  0  0  0  0  0  0  0  0  0  0  0
   -0.0374    1.1645    0.5781 C   0  0  0  0  0  0  0  0  0  0  0  0
   -0.9816    1.8416    0.1544 O   0  0  0  0  0  0  0  0  0  0  0  0
    0.8235    1.6462    1.4801 N   0  0  0  0  0  0  0  0  0  0  0  0
    1.6183    1.0435    1.7020 H   0  0  0  0  0  0  0  0  0  0  0  0
    0.7895    2.9929    2.0404 C   0  0  0  0  0  0  0  0  0  0  0  0
   -0.2344    3.2522    2.3130 H   0  0  0  0  0  0  0  0  0  0  0  0
    1.4265    3.0377    2.9233 H   0  0  0  0  0  0  0  0  0  0  0  0
    1.1511    3.7014    1.2950 H   0  0  0  0  0  0  0  0  0  0  0  0
  5  6  2  0  0  0  0
  5  7  1  0  0  0  0
  2  3  1  0  0  0  0
  2  4  1  0  0  0  0
  2  5  1  0  0  0  0
  1  2  1  0  0  0  0
 17 18  2  0  0  0  0
 17 19  1  0  0  0  0
 14 15  1  0  0  0  0
 14 16  2  0  0  0  0
 11 12  1  0  0  0  0
 11 13  1  0  0  0  0
 11 14  1  0  0  0  0
  9 10  1  0  0  0  0
  9 11  1  0  0  0  0
  9 17  1  0  0  0  0
  7  8  1  0  0  0  0
  7  9  1  0  0  0  0
 21 22  1  0  0  0  0
 21 23  1  0  0  0  0
 21 24  1  0  0  0  0
 19 20  1  0  0  0  0
 19 21  1  0  0  0  0
M  CHG  1  15  -1
M  END
$$$$
default_name
  -OEChem-02102213163D

 24 23  0     1  0  0  0  0  0999 V2000
   -2.8347   -3.7166    0.8034 H   0  0  0  0  0  0  0  0  0  0  0  0
   -2.7728   -2.7096    0.3954 C   0  0  0  0  0  0  0  0  0  0  0  0
   -3.4267   -2.0426    0.9524 H   0  0  0  0  0  0  0  0  0  0  0  0
   -3.0538   -2.7186   -0.6556 H   0  0  0  0  0  0  0  0  0  0  0  0
   -1.3498   -2.2206    0.5184 C   0  0  0  0  0  0  0  0  0  0  0  0
   -0.4997   -2.9426    1.0194 O   0  0  0  0  0  0  0  0  0  0  0  0
   -1.1198   -0.9926    0.0674 N   0  0  0  0  0  0  0  0  0  0  0  0
   -1.8978   -0.4486   -0.2716 H   0  0  0  0  0  0  0  0  0  0  0  0
    0.1693   -0.2866    0.0854 C   0  0  1  0  0  0  0  0  0  0  0  0
    0.8425   -0.7905    0.7811 H   0  0  0  0  0  0  0  0  0  0  0  0
    0.7993   -0.3404   -1.3233 C   0  0  0  0  0  0  0  0  0  0  0  0
    1.1838    0.6501   -1.5730 H   0  0  0  0  0  0  0  0  0  0  0  0
    1.6453   -1.0309   -1.3043 H   0  0  0  0  0  0  0  0  0  0  0  0
   -0.1703   -0.7576   -2.4400 C   0  0  0  0  0  0  0  0  0  0  0  0
   -0.9313   -1.7333   -2.2391 O   0  5  0  0  0  0  0  0  0  0  0  0
   -0.1274   -0.1015   -3.5030 O   0  0  0  0  0  0  0  0  0  0  0  0
   -0.0374    1.1645    0.5781 C   0  0  0  0  0  0  0  0  0  0  0  0
   -0.9816    1.8416    0.1544 O   0  0  0  0  0  0  0  0  0  0  0  0
    0.8235    1.6462    1.4801 N   0  0  0  0  0  0  0  0  0  0  0  0
    1.6183    1.0435    1.7020 H   0  0  0  0  0  0  0  0  0  0  0  0
    0.7895    2.9929    2.0404 C   0  0  0  0  0  0  0  0  0  0  0  0
   -0.2344    3.2522    2.3130 H   0  0  0  0  0  0  0  0  0  0  0  0
    1.4265    3.0377    2.9233 H   0  0  0  0  0  0  0  0  0  0  0  0
    1.1511    3.7014    1.2950 H   0  0  0  0  0  0  0  0  0  0  0  0
  5  6  2  0  0  0  0
  5  7  1  0  0  0  0
  2  3  1  0  0  0  0
  2  4  1  0  0  0  0
  2  5  1  0  0  0  0
  1  2  1  0  0  0  0
 17 18  2  0  0  0  0
 17 19  1  0  0  0  0
 14 15  1  0  0  0  0
 14 16  2  0  0  0  0
 11 12  1  0  0  0  0
 11 13  1  0  0  0  0
 11 14  1  0  0  0  0
  9 10  1  0  0  0  0
  9 11  1  0  0  0  0
  9 17  1  0  0  0  0
  7  8  1  0  0  0  0
  7  9  1  0  0  0  0
 21 22  1  0  0  0  0
 21 23  1  0  0  0  0
 21 24  1  0  0  0  0
 19 20  1  0  0  0  0
 19 21  1  0  0  0  0
M  CHG  1  15  -1
M  END
$$$$
default_name
  -OEChem-02102213163D

 24 23  0     1  0  0  0  0  0999 V2000
   -2.8347   -3.7166    0.8034 H   0  0  0  0  0  0  0  0  0  0  0  0
   -2.7728   -2.7096    0.3954 C   0  0  0  0  0  0  0  0  0  0  0  0
   -3.4267   -2.0426    0.9524 H   0  0  0  0  0  0  0  0  0  0  0  0
   -3.0538   -2.7186   -0.6556 H   0  0  0  0  0  0  0  0  0  0  0  0
   -1.3498   -2.2206    0.5184 C   0  0  0  0  0  0  0  0  0  0  0  0
   -0.4997   -2.9426    1.0194 O   0  0  0  0  0  0  0  0  0  0  0  0
   -1.1198   -0.9926    0.0674 N   0  0  0  0  0  0  0  0  0  0  0  0
   -1.8978   -0.4486   -0.2716 H   0  0  0  0  0  0  0  0  0  0  0  0
    0.1693   -0.2866    0.0854 C   0  0  1  0  0  0  0  0  0  0  0  0
    0.8425   -0.7905    0.7811 H   0  0  0  0  0  0  0  0  0  0  0  0
    0.7993   -0.3404   -1.3233 C   0  0  0  0  0  0  0  0  0  0  0  0
    1.1838    0.6501   -1.5730 H   0  0  0  0  0  0  0  0  0  0  0  0
    1.6453   -1.0309   -1.3043 H   0  0  0  0  0  0  0  0  0  0  0  0
   -0.1703   -0.7576   -2.4400 C   0  0  0  0  0  0  0  0  0  0  0  0
   -1.1160   -1.5297   -2.1549 O   0  5  0  0  0  0  0  0  0  0  0  0
    0.0570   -0.3108   -3.5850 O   0  0  0  0  0  0  0  0  0  0  0  0
   -0.0374    1.1645    0.5781 C   0  0  0  0  0  0  0  0  0  0  0  0
   -0.9816    1.8416    0.1544 O   0  0  0  0  0  0  0  0  0  0  0  0
    0.8235    1.6462    1.4801 N   0  0  0  0  0  0  0  0  0  0  0  0
    1.6183    1.0435    1.7020 H   0  0  0  0  0  0  0  0  0  0  0  0
    0.7895    2.9929    2.0404 C   0  0  0  0  0  0  0  0  0  0  0  0
   -0.2344    3.2522    2.3130 H   0  0  0  0  0  0  0  0  0  0  0  0
    1.4265    3.0377    2.9233 H   0  0  0  0  0  0  0  0  0  0  0  0
    1.1511    3.7014    1.2950 H   0  0  0  0  0  0  0  0  0  0  0  0
  5  6  2  0  0  0  0
  5  7  1  0  0  0  0
  2  3  1  0  0  0  0
  2  4  1  0  0  0  0
  2  5  1  0  0  0  0
  1  2  1  0  0  0  0
 17 18  2  0  0  0  0
 17 19  1  0  0  0  0
 14 15  1  0  0  0  0
 14 16  2  0  0  0  0
 11 12  1  0  0  0  0
 11 13  1  0  0  0  0
 11 14  1  0  0  0  0
  9 10  1  0  0  0  0
  9 11  1  0  0  0  0
  9 17  1  0  0  0  0
  7  8  1  0  0  0  0
  7  9  1  0  0  0  0
 21 22  1  0  0  0  0
 21 23  1  0  0  0  0
 21 24  1  0  0  0  0
 19 20  1  0  0  0  0
 19 21  1  0  0  0  0
M  CHG  1  15  -1
M  END
$$$$
default_name
  -OEChem-02102213163D

 24 23  0     1  0  0  0  0  0999 V2000
   -2.8347   -3.7166    0.8034 H   0  0  0  0  0  0  0  0  0  0  0  0
   -2.7728   -2.7096    0.3954 C   0  0  0  0  0  0  0  0  0  0  0  0
   -3.4267   -2.0426    0.9524 H   0  0  0  0  0  0  0  0  0  0  0  0
   -3.0538   -2.7186   -0.6556 H   0  0  0  0  0  0  0  0  0  0  0  0
   -1.3498   -2.2206    0.5184 C   0  0  0  0  0  0  0  0  0  0  0  0
   -0.4997   -2.9426    1.0194 O   0  0  0  0  0  0  0  0  0  0  0  0
   -1.1198   -0.9926    0.0674 N   0  0  0  0  0  0  0  0  0  0  0  0
   -1.8978   -0.4486   -0.2716 H   0  0  0  0  0  0  0  0  0  0  0  0
    0.1693   -0.2866    0.0854 C   0  0  1  0  0  0  0  0  0  0  0  0
    0.8425   -0.7905    0.7811 H   0  0  0  0  0  0  0  0  0  0  0  0
    0.7993   -0.3404   -1.3233 C   0  0  0  0  0  0  0  0  0  0  0  0
    1.1838    0.6501   -1.5730 H   0  0  0  0  0  0  0  0  0  0  0  0
    1.6453   -1.0309   -1.3043 H   0  0  0  0  0  0  0  0  0  0  0  0
   -0.1703   -0.7576   -2.4400 C   0  0  0  0  0  0  0  0  0  0  0  0
   -1.2619   -1.2845   -2.1198 O   0  5  0  0  0  0  0  0  0  0  0  0
    0.2015   -0.5610   -3.6170 O   0  0  0  0  0  0  0  0  0  0  0  0
   -0.0374    1.1645    0.5781 C   0  0  0  0  0  0  0  0  0  0  0  0
   -0.9816    1.8416    0.1544 O   0  0  0  0  0  0  0  0  0  0  0  0
    0.8235    1.6462    1.4801 N   0  0  0  0  0  0  0  0  0  0  0  0
    1.6183    1.0435    1.7020 H   0  0  0  0  0  0  0  0  0  0  0  0
    0.7895    2.9929    2.0404 C   0  0  0  0  0  0  0  0  0  0  0  0
   -0.2344    3.2522    2.3130 H   0  0  0  0  0  0  0  0  0  0  0  0
    1.4265    3.0377    2.9233 H   0  0  0  0  0  0  0  0  0  0  0  0
    1.1511    3.7014    1.2950 H   0  0  0  0  0  0  0  0  0  0  0  0
  5  6  2  0  0  0  0
  5  7  1  0  0  0  0
  2  3  1  0  0  0  0
  2  4  1  0  0  0  0
  2  5  1  0  0  0  0
  1  2  1  0  0  0  0
 17 18  2  0  0  0  0
 17 19  1  0  0  0  0
 14 15  1  0  0  0  0
 14 16  2  0  0  0  0
 11 12  1  0  0  0  0
 11 13  1  0  0  0  0
 11 14  1  0  0  0  0
  9 10  1  0  0  0  0
  9 11  1  0  0  0  0
  9 17  1  0  0  0  0
  7  8  1  0  0  0  0
  7  9  1  0  0  0  0
 21 22  1  0  0  0  0
 21 23  1  0  0  0  0
 21 24  1  0  0  0  0
 19 20  1  0  0  0  0
 19 21  1  0  0  0  0
M  CHG  1  15  -1
M  END
$$$$
default_name
  -OEChem-02102213163D

 24 23  0     1  0  0  0  0  0999 V2000
   -2.8347   -3.7166    0.8034 H   0  0  0  0  0  0  0  0  0  0  0  0
   -2.7728   -2.7096    0.3954 C   0  0  0  0  0  0  0  0  0  0  0  0
   -3.4267   -2.0426    0.9524 H   0  0  0  0  0  0  0  0  0  0  0  0
   -3.0538   -2.7186   -0.6556 H   0  0  0  0  0  0  0  0  0  0  0  0
   -1.3498   -2.2206    0.5184 C   0  0  0  0  0  0  0  0  0  0  0  0
   -0.4997   -2.9426    1.0194 O   0  0  0  0  0  0  0  0  0  0  0  0
   -1.1198   -0.9926    0.0674 N   0  0  0  0  0  0  0  0  0  0  0  0
   -1.8978   -0.4486   -0.2716 H   0  0  0  0  0  0  0  0  0  0  0  0
    0.1693   -0.2866    0.0854 C   0  0  1  0  0  0  0  0  0  0  0  0
    0.8425   -0.7905    0.7811 H   0  0  0  0  0  0  0  0  0  0  0  0
    0.7993   -0.3404   -1.3233 C   0  0  0  0  0  0  0  0  0  0  0  0
    1.1838    0.6501   -1.5730 H   0  0  0  0  0  0  0  0  0  0  0  0
    1.6453   -1.0309   -1.3043 H   0  0  0  0  0  0  0  0  0  0  0  0
   -0.1703   -0.7576   -2.4400 C   0  0  0  0  0  0  0  0  0  0  0  0
   -1.3592   -1.0144   -2.1361 O   0  5  0  0  0  0  0  0  0  0  0  0
    0.2963   -0.8351   -3.5969 O   0  0  0  0  0  0  0  0  0  0  0  0
   -0.0374    1.1645    0.5781 C   0  0  0  0  0  0  0  0  0  0  0  0
   -0.9816    1.8416    0.1544 O   0  0  0  0  0  0  0  0  0  0  0  0
    0.8235    1.6462    1.4801 N   0  0  0  0  0  0  0  0  0  0  0  0
    1.6183    1.0435    1.7020 H   0  0  0  0  0  0  0  0  0  0  0  0
    0.7895    2.9929    2.0404 C   0  0  0  0  0  0  0  0  0  0  0  0
   -0.2344    3.2522    2.3130 H   0  0  0  0  0  0  0  0  0  0  0  0
    1.4265    3.0377    2.9233 H   0  0  0  0  0  0  0  0  0  0  0  0
    1.1511    3.7014    1.2950 H   0  0  0  0  0  0  0  0  0  0  0  0
  5  6  2  0  0  0  0
  5  7  1  0  0  0  0
  2  3  1  0  0  0  0
  2  4  1  0  0  0  0
  2  5  1  0  0  0  0
  1  2  1  0  0  0  0
 17 18  2  0  0  0  0
 17 19  1  0  0  0  0
 14 15  1  0  0  0  0
 14 16  2  0  0  0  0
 11 12  1  0  0  0  0
 11 13  1  0  0  0  0
 11 14  1  0  0  0  0
  9 10  1  0  0  0  0
  9 11  1  0  0  0  0
  9 17  1  0  0  0  0
  7  8  1  0  0  0  0
  7  9  1  0  0  0  0
 21 22  1  0  0  0  0
 21 23  1  0  0  0  0
 21 24  1  0  0  0  0
 19 20  1  0  0  0  0
 19 21  1  0  0  0  0
M  CHG  1  15  -1
M  END
$$$$
default_name
  -OEChem-02102213163D

 24 23  0     1  0  0  0  0  0999 V2000
   -2.8347   -3.7166    0.8034 H   0  0  0  0  0  0  0  0  0  0  0  0
   -2.7728   -2.7096    0.3954 C   0  0  0  0  0  0  0  0  0  0  0  0
   -3.4267   -2.0426    0.9524 H   0  0  0  0  0  0  0  0  0  0  0  0
   -3.0538   -2.7186   -0.6556 H   0  0  0  0  0  0  0  0  0  0  0  0
   -1.3498   -2.2206    0.5184 C   0  0  0  0  0  0  0  0  0  0  0  0
   -0.4997   -2.9426    1.0194 O   0  0  0  0  0  0  0  0  0  0  0  0
   -1.1198   -0.9926    0.0674 N   0  0  0  0  0  0  0  0  0  0  0  0
   -1.8978   -0.4486   -0.2716 H   0  0  0  0  0  0  0  0  0  0  0  0
    0.1693   -0.2866    0.0854 C   0  0  1  0  0  0  0  0  0  0  0  0
    0.8425   -0.7905    0.7811 H   0  0  0  0  0  0  0  0  0  0  0  0
    0.7993   -0.3404   -1.3233 C   0  0  0  0  0  0  0  0  0  0  0  0
    1.1838    0.6501   -1.5730 H   0  0  0  0  0  0  0  0  0  0  0  0
    1.6453   -1.0309   -1.3043 H   0  0  0  0  0  0  0  0  0  0  0  0
   -0.1703   -0.7576   -2.4400 C   0  0  0  0  0  0  0  0  0  0  0  0
   -1.4012   -0.7380   -2.2029 O   0  5  0  0  0  0  0  0  0  0  0  0
    0.3349   -1.1144   -3.5261 O   0  0  0  0  0  0  0  0  0  0  0  0
   -0.0374    1.1645    0.5781 C   0  0  0  0  0  0  0  0  0  0  0  0
   -0.9816    1.8416    0.1544 O   0  0  0  0  0  0  0  0  0  0  0  0
    0.8235    1.6462    1.4801 N   0  0  0  0  0  0  0  0  0  0  0  0
    1.6183    1.0435    1.7020 H   0  0  0  0  0  0  0  0  0  0  0  0
    0.7895    2.9929    2.0404 C   0  0  0  0  0  0  0  0  0  0  0  0
   -0.2344    3.2522    2.3130 H   0  0  0  0  0  0  0  0  0  0  0  0
    1.4265    3.0377    2.9233 H   0  0  0  0  0  0  0  0  0  0  0  0
    1.1511    3.7014    1.2950 H   0  0  0  0  0  0  0  0  0  0  0  0
  5  6  2  0  0  0  0
  5  7  1  0  0  0  0
  2  3  1  0  0  0  0
  2  4  1  0  0  0  0
  2  5  1  0  0  0  0
  1  2  1  0  0  0  0
 17 18  2  0  0  0  0
 17 19  1  0  0  0  0
 14 15  1  0  0  0  0
 14 16  2  0  0  0  0
 11 12  1  0  0  0  0
 11 13  1  0  0  0  0
 11 14  1  0  0  0  0
  9 10  1  0  0  0  0
  9 11  1  0  0  0  0
  9 17  1  0  0  0  0
  7  8  1  0  0  0  0
  7  9  1  0  0  0  0
 21 22  1  0  0  0  0
 21 23  1  0  0  0  0
 21 24  1  0  0  0  0
 19 20  1  0  0  0  0
 19 21  1  0  0  0  0
M  CHG  1  15  -1
M  END
$$$$
default_name
  -OEChem-02102213163D

 24 23  0     1  0  0  0  0  0999 V2000
   -2.8347   -3.7166    0.8034 H   0  0  0  0  0  0  0  0  0  0  0  0
   -2.7728   -2.7096    0.3954 C   0  0  0  0  0  0  0  0  0  0  0  0
   -3.4267   -2.0426    0.9524 H   0  0  0  0  0  0  0  0  0  0  0  0
   -3.0538   -2.7186   -0.6556 H   0  0  0  0  0  0  0  0  0  0  0  0
   -1.3498   -2.2206    0.5184 C   0  0  0  0  0  0  0  0  0  0  0  0
   -0.4997   -2.9426    1.0194 O   0  0  0  0  0  0  0  0  0  0  0  0
   -1.1198   -0.9926    0.0674 N   0  0  0  0  0  0  0  0  0  0  0  0
   -1.8978   -0.4486   -0.2716 H   0  0  0  0  0  0  0  0  0  0  0  0
    0.1693   -0.2866    0.0854 C   0  0  1  0  0  0  0  0  0  0  0  0
    0.8425   -0.7905    0.7811 H   0  0  0  0  0  0  0  0  0  0  0  0
    0.7993   -0.3404   -1.3233 C   0  0  0  0  0  0  0  0  0  0  0  0
    1.1838    0.6501   -1.5730 H   0  0  0  0  0  0  0  0  0  0  0  0
    1.6453   -1.0309   -1.3043 H   0  0  0  0  0  0  0  0  0  0  0  0
   -0.1703   -0.7576   -2.4400 C   0  0  0  0  0  0  0  0  0  0  0  0
   -1.3851   -0.4740   -2.3155 O   0  5  0  0  0  0  0  0  0  0  0  0
    0.3147   -1.3799   -3.4093 O   0  0  0  0  0  0  0  0  0  0  0  0
   -0.0374    1.1645    0.5781 C   0  0  0  0  0  0  0  0  0  0  0  0
   -0.9816    1.8416    0.1544 O   0  0  0  0  0  0  0  0  0  0  0  0
    0.8235    1.6462    1.4801 N   0  0  0  0  0  0  0  0  0  0  0  0
    1.6183    1.0435    1.7020 H   0  0  0  0  0  0  0  0  0  0  0  0
    0.7895    2.9929    2.0404 C   0  0  0  0  0  0  0  0  0  0  0  0
   -0.2344    3.2522    2.3130 H   0  0  0  0  0  0  0  0  0  0  0  0
    1.4265    3.0377    2.9233 H   0  0  0  0  0  0  0  0  0  0  0  0
    1.1511    3.7014    1.2950 H   0  0  0  0  0  0  0  0  0  0  0  0
  5  6  2  0  0  0  0
  5  7  1  0  0  0  0
  2  3  1  0  0  0  0
  2  4  1  0  0  0  0
  2  5  1  0  0  0  0
  1  2  1  0  0  0  0
 17 18  2  0  0  0  0
 17 19  1  0  0  0  0
 14 15  1  0  0  0  0
 14 16  2  0  0  0  0
 11 12  1  0  0  0  0
 11 13  1  0  0  0  0
 11 14  1  0  0  0  0
  9 10  1  0  0  0  0
  9 11  1  0  0  0  0
  9 17  1  0  0  0  0
  7  8  1  0  0  0  0
  7  9  1  0  0  0  0
 21 22  1  0  0  0  0
 21 23  1  0  0  0  0
 21 24  1  0  0  0  0
 19 20  1  0  0  0  0
 19 21  1  0  0  0  0
M  CHG  1  15  -1
M  END
$$$$
default_name
  -OEChem-02102213163D

 24 23  0     1  0  0  0  0  0999 V2000
   -2.8347   -3.7166    0.8034 H   0  0  0  0  0  0  0  0  0  0  0  0
   -2.7728   -2.7096    0.3954 C   0  0  0  0  0  0  0  0  0  0  0  0
   -3.4267   -2.0426    0.9524 H   0  0  0  0  0  0  0  0  0  0  0  0
   -3.0538   -2.7186   -0.6556 H   0  0  0  0  0  0  0  0  0  0  0  0
   -1.3498   -2.2206    0.5184 C   0  0  0  0  0  0  0  0  0  0  0  0
   -0.4997   -2.9426    1.0194 O   0  0  0  0  0  0  0  0  0  0  0  0
   -1.1198   -0.9926    0.0674 N   0  0  0  0  0  0  0  0  0  0  0  0
   -1.8978   -0.4486   -0.2716 H   0  0  0  0  0  0  0  0  0  0  0  0
    0.1693   -0.2866    0.0854 C   0  0  1  0  0  0  0  0  0  0  0  0
    0.8425   -0.7905    0.7811 H   0  0  0  0  0  0  0  0  0  0  0  0
    0.7993   -0.3404   -1.3233 C   0  0  0  0  0  0  0  0  0  0  0  0
    1.1838    0.6501   -1.5730 H   0  0  0  0  0  0  0  0  0  0  0  0
    1.6453   -1.0309   -1.3043 H   0  0  0  0  0  0  0  0  0  0  0  0
   -0.1703   -0.7576   -2.4400 C   0  0  0  0  0  0  0  0  0  0  0  0
   -1.3120   -0.2403   -2.4663 O   0  5  0  0  0  0  0  0  0  0  0  0
    0.2370   -1.6135   -3.2546 O   0  0  0  0  0  0  0  0  0  0  0  0
   -0.0374    1.1645    0.5781 C   0  0  0  0  0  0  0  0  0  0  0  0
   -0.9816    1.8416    0.1544 O   0  0  0  0  0  0  0  0  0  0  0  0
    0.8235    1.6462    1.4801 N   0  0  0  0  0  0  0  0  0  0  0  0
    1.6183    1.0435    1.7020 H   0  0  0  0  0  0  0  0  0  0  0  0
    0.7895    2.9929    2.0404 C   0  0  0  0  0  0  0  0  0  0  0  0
   -0.2344    3.2522    2.3130 H   0  0  0  0  0  0  0  0  0  0  0  0
    1.4265    3.0377    2.9233 H   0  0  0  0  0  0  0  0  0  0  0  0
    1.1511    3.7014    1.2950 H   0  0  0  0  0  0  0  0  0  0  0  0
  5  6  2  0  0  0  0
  5  7  1  0  0  0  0
  2  3  1  0  0  0  0
  2  4  1  0  0  0  0
  2  5  1  0  0  0  0
  1  2  1  0  0  0  0
 17 18  2  0  0  0  0
 17 19  1  0  0  0  0
 14 15  1  0  0  0  0
 14 16  2  0  0  0  0
 11 12  1  0  0  0  0
 11 13  1  0  0  0  0
 11 14  1  0  0  0  0
  9 10  1  0  0  0  0
  9 11  1  0  0  0  0
  9 17  1  0  0  0  0
  7  8  1  0  0  0  0
  7  9  1  0  0  0  0
 21 22  1  0  0  0  0
 21 23  1  0  0  0  0
 21 24  1  0  0  0  0
 19 20  1  0  0  0  0
 19 21  1  0  0  0  0
M  CHG  1  15  -1
M  END
$$$$
default_name
  -OEChem-02102213163D

 24 23  0     1  0  0  0  0  0999 V2000
   -2.8347   -3.7166    0.8034 H   0  0  0  0  0  0  0  0  0  0  0  0
   -2.7728   -2.7096    0.3954 C   0  0  0  0  0  0  0  0  0  0  0  0
   -3.4267   -2.0426    0.9524 H   0  0  0  0  0  0  0  0  0  0  0  0
   -3.0538   -2.7186   -0.6556 H   0  0  0  0  0  0  0  0  0  0  0  0
   -1.3498   -2.2206    0.5184 C   0  0  0  0  0  0  0  0  0  0  0  0
   -0.4997   -2.9426    1.0194 O   0  0  0  0  0  0  0  0  0  0  0  0
   -1.1198   -0.9926    0.0674 N   0  0  0  0  0  0  0  0  0  0  0  0
   -1.8978   -0.4486   -0.2716 H   0  0  0  0  0  0  0  0  0  0  0  0
    0.1693   -0.2866    0.0854 C   0  0  1  0  0  0  0  0  0  0  0  0
    0.8425   -0.7905    0.7811 H   0  0  0  0  0  0  0  0  0  0  0  0
    0.7993   -0.3404   -1.3233 C   0  0  0  0  0  0  0  0  0  0  0  0
    1.1838    0.6501   -1.5730 H   0  0  0  0  0  0  0  0  0  0  0  0
    1.6453   -1.0309   -1.3043 H   0  0  0  0  0  0  0  0  0  0  0  0
   -0.1703   -0.7576   -2.4400 C   0  0  0  0  0  0  0  0  0  0  0  0
   -1.1869   -0.0531   -2.6449 O   0  5  0  0  0  0  0  0  0  0  0  0
    0.1072   -1.7992   -3.0725 O   0  0  0  0  0  0  0  0  0  0  0  0
   -0.0374    1.1645    0.5781 C   0  0  0  0  0  0  0  0  0  0  0  0
   -0.9816    1.8416    0.1544 O   0  0  0  0  0  0  0  0  0  0  0  0
    0.8235    1.6462    1.4801 N   0  0  0  0  0  0  0  0  0  0  0  0
    1.6183    1.0435    1.7020 H   0  0  0  0  0  0  0  0  0  0  0  0
    0.7895    2.9929    2.0404 C   0  0  0  0  0  0  0  0  0  0  0  0
   -0.2344    3.2522    2.3130 H   0  0  0  0  0  0  0  0  0  0  0  0
    1.4265    3.0377    2.9233 H   0  0  0  0  0  0  0  0  0  0  0  0
    1.1511    3.7014    1.2950 H   0  0  0  0  0  0  0  0  0  0  0  0
  5  6  2  0  0  0  0
  5  7  1  0  0  0  0
  2  3  1  0  0  0  0
  2  4  1  0  0  0  0
  2  5  1  0  0  0  0
  1  2  1  0  0  0  0
 17 18  2  0  0  0  0
 17 19  1  0  0  0  0
 14 15  1  0  0  0  0
 14 16  2  0  0  0  0
 11 12  1  0  0  0  0
 11 13  1  0  0  0  0
 11 14  1  0  0  0  0
  9 10  1  0  0  0  0
  9 11  1  0  0  0  0
  9 17  1  0  0  0  0
  7  8  1  0  0  0  0
  7  9  1  0  0  0  0
 21 22  1  0  0  0  0
 21 23  1  0  0  0  0
 21 24  1  0  0  0  0
 19 20  1  0  0  0  0
 19 21  1  0  0  0  0
M  CHG  1  15  -1
M  END
$$$$
default_name
  -OEChem-02102213163D

 24 23  0     1  0  0  0  0  0999 V2000
   -2.8347   -3.7166    0.8034 H   0  0  0  0  0  0  0  0  0  0  0  0
   -2.7728   -2.7096    0.3954 C   0  0  0  0  0  0  0  0  0  0  0  0
   -3.4267   -2.0426    0.9524 H   0  0  0  0  0  0  0  0  0  0  0  0
   -3.0538   -2.7186   -0.6556 H   0  0  0  0  0  0  0  0  0  0  0  0
   -1.3498   -2.2206    0.5184 C   0  0  0  0  0  0  0  0  0  0  0  0
   -0.4997   -2.9426    1.0194 O   0  0  0  0  0  0  0  0  0  0  0  0
   -1.1198   -0.9926    0.0674 N   0  0  0  0  0  0  0  0  0  0  0  0
   -1.8978   -0.4486   -0.2716 H   0  0  0  0  0  0  0  0  0  0  0  0
    0.1693   -0.2866    0.0854 C   0  0  1  0  0  0  0  0  0  0  0  0
    0.8425   -0.7905    0.7811 H   0  0  0  0  0  0  0  0  0  0  0  0
    0.7993   -0.3404   -1.3233 C   0  0  0  0  0  0  0  0  0  0  0  0
    1.1838    0.6501   -1.5730 H   0  0  0  0  0  0  0  0  0  0  0  0
    1.6453   -1.0309   -1.3043 H   0  0  0  0  0  0  0  0  0  0  0  0
   -0.1703   -0.7576   -2.4400 C   0  0  0  0  0  0  0  0  0  0  0  0
   -1.0182    0.0751   -2.8392 O   0  5  0  0  0  0  0  0  0  0  0  0
   -0.0659   -1.9245   -2.8754 O   0  0  0  0  0  0  0  0  0  0  0  0
   -0.0374    1.1645    0.5781 C   0  0  0  0  0  0  0  0  0  0  0  0
   -0.9816    1.8416    0.1544 O   0  0  0  0  0  0  0  0  0  0  0  0
    0.8235    1.6462    1.4801 N   0  0  0  0  0  0  0  0  0  0  0  0
    1.6183    1.0435    1.7020 H   0  0  0  0  0  0  0  0  0  0  0  0
    0.7895    2.9929    2.0404 C   0  0  0  0  0  0  0  0  0  0  0  0
   -0.2344    3.2522    2.3130 H   0  0  0  0  0  0  0  0  0  0  0  0
    1.4265    3.0377    2.9233 H   0  0  0  0  0  0  0  0  0  0  0  0
    1.1511    3.7014    1.2950 H   0  0  0  0  0  0  0  0  0  0  0  0
  5  6  2  0  0  0  0
  5  7  1  0  0  0  0
  2  3  1  0  0  0  0
  2  4  1  0  0  0  0
  2  5  1  0  0  0  0
  1  2  1  0  0  0  0
 17 18  2  0  0  0  0
 17 19  1  0  0  0  0
 14 15  1  0  0  0  0
 14 16  2  0  0  0  0
 11 12  1  0  0  0  0
 11 13  1  0  0  0  0
 11 14  1  0  0  0  0
  9 10  1  0  0  0  0
  9 11  1  0  0  0  0
  9 17  1  0  0  0  0
  7  8  1  0  0  0  0
  7  9  1  0  0  0  0
 21 22  1  0  0  0  0
 21 23  1  0  0  0  0
 21 24  1  0  0  0  0
 19 20  1  0  0  0  0
 19 21  1  0  0  0  0
M  CHG  1  15  -1
M  END
$$$$
default_name
  -OEChem-02102213163D

 24 23  0     1  0  0  0  0  0999 V2000
   -2.8347   -3.7166    0.8034 H   0  0  0  0  0  0  0  0  0  0  0  0
   -2.7728   -2.7096    0.3954 C   0  0  0  0  0  0  0  0  0  0  0  0
   -3.4267   -2.0426    0.9524 H   0  0  0  0  0  0  0  0  0  0  0  0
   -3.0538   -2.7186   -0.6556 H   0  0  0  0  0  0  0  0  0  0  0  0
   -1.3498   -2.2206    0.5184 C   0  0  0  0  0  0  0  0  0  0  0  0
   -0.4997   -2.9426    1.0194 O   0  0  0  0  0  0  0  0  0  0  0  0
   -1.1198   -0.9926    0.0674 N   0  0  0  0  0  0  0  0  0  0  0  0
   -1.8978   -0.4486   -0.2716 H   0  0  0  0  0  0  0  0  0  0  0  0
    0.1693   -0.2866    0.0854 C   0  0  1  0  0  0  0  0  0  0  0  0
    0.8425   -0.7905    0.7811 H   0  0  0  0  0  0  0  0  0  0  0  0
    0.7993   -0.3404   -1.3233 C   0  0  0  0  0  0  0  0  0  0  0  0
    1.1838    0.6501   -1.5730 H   0  0  0  0  0  0  0  0  0  0  0  0
    1.6453   -1.0309   -1.3043 H   0  0  0  0  0  0  0  0  0  0  0  0
   -0.1703   -0.7576   -2.4400 C   0  0  0  0  0  0  0  0  0  0  0  0
   -0.8175    0.1355   -3.0360 O   0  5  0  0  0  0  0  0  0  0  0  0
   -0.2706   -1.9807   -2.6767 O   0  0  0  0  0  0  0  0  0  0  0  0
   -0.0374    1.1645    0.5781 C   0  0  0  0  0  0  0  0  0  0  0  0
   -0.9816    1.8416    0.1544 O   0  0  0  0  0  0  0  0  0  0  0  0
    0.8235    1.6462    1.4801 N   0  0  0  0  0  0  0  0  0  0  0  0
    1.6183    1.0435    1.7020 H   0  0  0  0  0  0  0  0  0  0  0  0
    0.7895    2.9929    2.0404 C   0  0  0  0  0  0  0  0  0  0  0  0
   -0.2344    3.2522    2.3130 H   0  0  0  0  0  0  0  0  0  0  0  0
    1.4265    3.0377    2.9233 H   0  0  0  0  0  0  0  0  0  0  0  0
    1.1511    3.7014    1.2950 H   0  0  0  0  0  0  0  0  0  0  0  0
  5  6  2  0  0  0  0
  5  7  1  0  0  0  0
  2  3  1  0  0  0  0
  2  4  1  0  0  0  0
  2  5  1  0  0  0  0
  1  2  1  0  0  0  0
 17 18  2  0  0  0  0
 17 19  1  0  0  0  0
 14 15  1  0  0  0  0
 14 16  2  0  0  0  0
 11 12  1  0  0  0  0
 11 13  1  0  0  0  0
 11 14  1  0  0  0  0
  9 10  1  0  0  0  0
  9 11  1  0  0  0  0
  9 17  1  0  0  0  0
  7  8  1  0  0  0  0
  7  9  1  0  0  0  0
 21 22  1  0  0  0  0
 21 23  1  0  0  0  0
 21 24  1  0  0  0  0
 19 20  1  0  0  0  0
 19 21  1  0  0  0  0
M  CHG  1  15  -1
M  END
$$$$
default_name
  -OEChem-02102213163D

 24 23  0     1  0  0  0  0  0999 V2000
   -2.8347   -3.7166    0.8034 H   0  0  0  0  0  0  0  0  0  0  0  0
   -2.7728   -2.7096    0.3954 C   0  0  0  0  0  0  0  0  0  0  0  0
   -3.4267   -2.0426    0.9524 H   0  0  0  0  0  0  0  0  0  0  0  0
   -3.0538   -2.7186   -0.6556 H   0  0  0  0  0  0  0  0  0  0  0  0
   -1.3498   -2.2206    0.5184 C   0  0  0  0  0  0  0  0  0  0  0  0
   -0.4997   -2.9426    1.0194 O   0  0  0  0  0  0  0  0  0  0  0  0
   -1.1198   -0.9926    0.0674 N   0  0  0  0  0  0  0  0  0  0  0  0
   -1.8978   -0.4486   -0.2716 H   0  0  0  0  0  0  0  0  0  0  0  0
    0.1693   -0.2866    0.0854 C   0  0  1  0  0  0  0  0  0  0  0  0
    0.8425   -0.7905    0.7811 H   0  0  0  0  0  0  0  0  0  0  0  0
    0.7993   -0.3404   -1.3233 C   0  0  0  0  0  0  0  0  0  0  0  0
    1.1838    0.6501   -1.5730 H   0  0  0  0  0  0  0  0  0  0  0  0
    1.6453   -1.0309   -1.3043 H   0  0  0  0  0  0  0  0  0  0  0  0
   -0.1703   -0.7576   -2.4400 C   0  0  0  0  0  0  0  0  0  0  0  0
   -0.5985    0.1239   -3.2219 O   0  5  0  0  0  0  0  0  0  0  0  0
   -0.4928   -1.9641   -2.4900 O   0  0  0  0  0  0  0  0  0  0  0  0
   -0.0374    1.1645    0.5781 C   0  0  0  0  0  0  0  0  0  0  0  0
   -0.9816    1.8416    0.1544 O   0  0  0  0  0  0  0  0  0  0  0  0
    0.8235    1.6462    1.4801 N   0  0  0  0  0  0  0  0  0  0  0  0
    1.6183    1.0435    1.7020 H   0  0  0  0  0  0  0  0  0  0  0  0
    0.7895    2.9929    2.0404 C   0  0  0  0  0  0  0  0  0  0  0  0
   -0.2344    3.2522    2.3130 H   0  0  0  0  0  0  0  0  0  0  0  0
    1.4265    3.0377    2.9233 H   0  0  0  0  0  0  0  0  0  0  0  0
    1.1511    3.7014    1.2950 H   0  0  0  0  0  0  0  0  0  0  0  0
  5  6  2  0  0  0  0
  5  7  1  0  0  0  0
  2  3  1  0  0  0  0
  2  4  1  0  0  0  0
  2  5  1  0  0  0  0
  1  2  1  0  0  0  0
 17 18  2  0  0  0  0
 17 19  1  0  0  0  0
 14 15  1  0  0  0  0
 14 16  2  0  0  0  0
 11 12  1  0  0  0  0
 11 13  1  0  0  0  0
 11 14  1  0  0  0  0
  9 10  1  0  0  0  0
  9 11  1  0  0  0  0
  9 17  1  0  0  0  0
  7  8  1  0  0  0  0
  7  9  1  0  0  0  0
 21 22  1  0  0  0  0
 21 23  1  0  0  0  0
 21 24  1  0  0  0  0
 19 20  1  0  0  0  0
 19 21  1  0  0  0  0
M  CHG  1  15  -1
M  END
$$$$
default_name
  -OEChem-02102213163D

 24 23  0     1  0  0  0  0  0999 V2000
   -2.8347   -3.7166    0.8034 H   0  0  0  0  0  0  0  0  0  0  0  0
   -2.7728   -2.7096    0.3954 C   0  0  0  0  0  0  0  0  0  0  0  0
   -3.4267   -2.0426    0.9524 H   0  0  0  0  0  0  0  0  0  0  0  0
   -3.0538   -2.7186   -0.6556 H   0  0  0  0  0  0  0  0  0  0  0  0
   -1.3498   -2.2206    0.5184 C   0  0  0  0  0  0  0  0  0  0  0  0
   -0.4997   -2.9426    1.0194 O   0  0  0  0  0  0  0  0  0  0  0  0
   -1.1198   -0.9926    0.0674 N   0  0  0  0  0  0  0  0  0  0  0  0
   -1.8978   -0.4486   -0.2716 H   0  0  0  0  0  0  0  0  0  0  0  0
    0.1693   -0.2866    0.0854 C   0  0  1  0  0  0  0  0  0  0  0  0
    0.8425   -0.7905    0.7811 H   0  0  0  0  0  0  0  0  0  0  0  0
    0.7993   -0.3404   -1.3233 C   0  0  0  0  0  0  0  0  0  0  0  0
    1.1838    0.6501   -1.5730 H   0  0  0  0  0  0  0  0  0  0  0  0
    1.6453   -1.0309   -1.3043 H   0  0  0  0  0  0  0  0  0  0  0  0
   -0.1703   -0.7576   -2.4400 C   0  0  0  0  0  0  0  0  0  0  0  0
   -0.3761    0.0412   -3.3841 O   0  5  0  0  0  0  0  0  0  0  0  0
   -0.7174   -1.8757   -2.3279 O   0  0  0  0  0  0  0  0  0  0  0  0
   -0.0374    1.1645    0.5781 C   0  0  0  0  0  0  0  0  0  0  0  0
   -0.9816    1.8416    0.1544 O   0  0  0  0  0  0  0  0  0  0  0  0
    0.8235    1.6462    1.4801 N   0  0  0  0  0  0  0  0  0  0  0  0
    1.6183    1.0435    1.7020 H   0  0  0  0  0  0  0  0  0  0  0  0
    0.7895    2.9929    2.0404 C   0  0  0  0  0  0  0  0  0  0  0  0
   -0.2344    3.2522    2.3130 H   0  0  0  0  0  0  0  0  0  0  0  0
    1.4265    3.0377    2.9233 H   0  0  0  0  0  0  0  0  0  0  0  0
    1.1511    3.7014    1.2950 H   0  0  0  0  0  0  0  0  0  0  0  0
  5  6  2  0  0  0  0
  5  7  1  0  0  0  0
  2  3  1  0  0  0  0
  2  4  1  0  0  0  0
  2  5  1  0  0  0  0
  1  2  1  0  0  0  0
 17 18  2  0  0  0  0
 17 19  1  0  0  0  0
 14 15  1  0  0  0  0
 14 16  2  0  0  0  0
 11 12  1  0  0  0  0
 11 13  1  0  0  0  0
 11 14  1  0  0  0  0
  9 10  1  0  0  0  0
  9 11  1  0  0  0  0
  9 17  1  0  0  0  0
  7  8  1  0  0  0  0
  7  9  1  0  0  0  0
 21 22  1  0  0  0  0
 21 23  1  0  0  0  0
 21 24  1  0  0  0  0
 19 20  1  0  0  0  0
 19 21  1  0  0  0  0
M  CHG  1  15  -1
M  END
$$$$
default_name
  -OEChem-02102213163D

 24 23  0     1  0  0  0  0  0999 V2000
   -2.8347   -3.7166    0.8034 H   0  0  0  0  0  0  0  0  0  0  0  0
   -2.7728   -2.7096    0.3954 C   0  0  0  0  0  0  0  0  0  0  0  0
   -3.4267   -2.0426    0.9524 H   0  0  0  0  0  0  0  0  0  0  0  0
   -3.0538   -2.7186   -0.6556 H   0  0  0  0  0  0  0  0  0  0  0  0
   -1.3498   -2.2206    0.5184 C   0  0  0  0  0  0  0  0  0  0  0  0
   -0.4997   -2.9426    1.0194 O   0  0  0  0  0  0  0  0  0  0  0  0
   -1.1198   -0.9926    0.0674 N   0  0  0  0  0  0  0  0  0  0  0  0
   -1.8978   -0.4486   -0.2716 H   0  0  0  0  0  0  0  0  0  0  0  0
    0.1693   -0.2866    0.0854 C   0  0  1  0  0  0  0  0  0  0  0  0
    0.8425   -0.7905    0.7811 H   0  0  0  0  0  0  0  0  0  0  0  0
    0.7993   -0.3404   -1.3233 C   0  0  0  0  0  0  0  0  0  0  0  0
    1.1838    0.6501   -1.5730 H   0  0  0  0  0  0  0  0  0  0  0  0
    1.6453   -1.0309   -1.3043 H   0  0  0  0  0  0  0  0  0  0  0  0
   -0.1703   -0.7576   -2.4400 C   0  0  0  0  0  0  0  0  0  0  0  0
   -0.1653   -0.1071   -3.5117 O   0  5  0  0  0  0  0  0  0  0  0  0
   -0.9292   -1.7216   -2.2016 O   0  0  0  0  0  0  0  0  0  0  0  0
   -0.0374    1.1645    0.5781 C   0  0  0  0  0  0  0  0  0  0  0  0
   -0.9816    1.8416    0.1544 O   0  0  0  0  0  0  0  0  0  0  0  0
    0.8235    1.6462    1.4801 N   0  0  0  0  0  0  0  0  0  0  0  0
    1.6183    1.0435    1.7020 H   0  0  0  0  0  0  0  0  0  0  0  0
    0.7895    2.9929    2.0404 C   0  0  0  0  0  0  0  0  0  0  0  0
   -0.2344    3.2522    2.3130 H   0  0  0  0  0  0  0  0  0  0  0  0
    1.4265    3.0377    2.9233 H   0  0  0  0  0  0  0  0  0  0  0  0
    1.1511    3.7014    1.2950 H   0  0  0  0  0  0  0  0  0  0  0  0
  5  6  2  0  0  0  0
  5  7  1  0  0  0  0
  2  3  1  0  0  0  0
  2  4  1  0  0  0  0
  2  5  1  0  0  0  0
  1  2  1  0  0  0  0
 17 18  2  0  0  0  0
 17 19  1  0  0  0  0
 14 15  1  0  0  0  0
 14 16  2  0  0  0  0
 11 12  1  0  0  0  0
 11 13  1  0  0  0  0
 11 14  1  0  0  0  0
  9 10  1  0  0  0  0
  9 11  1  0  0  0  0
  9 17  1  0  0  0  0
  7  8  1  0  0  0  0
  7  9  1  0  0  0  0
 21 22  1  0  0  0  0
 21 23  1  0  0  0  0
 21 24  1  0  0  0  0
 19 20  1  0  0  0  0
 19 21  1  0  0  0  0
M  CHG  1  15  -1
M  END
$$$$
default_name
  -OEChem-02102213163D

 24 23  0     1  0  0  0  0  0999 V2000
   -2.8347   -3.7166    0.8034 H   0  0  0  0  0  0  0  0  0  0  0  0
   -2.7728   -2.7096    0.3954 C   0  0  0  0  0  0  0  0  0  0  0  0
   -3.4267   -2.0426    0.9524 H   0  0  0  0  0  0  0  0  0  0  0  0
   -3.0538   -2.7186   -0.6556 H   0  0  0  0  0  0  0  0  0  0  0  0
   -1.3498   -2.2206    0.5184 C   0  0  0  0  0  0  0  0  0  0  0  0
   -0.4997   -2.9426    1.0194 O   0  0  0  0  0  0  0  0  0  0  0  0
   -1.1198   -0.9926    0.0674 N   0  0  0  0  0  0  0  0  0  0  0  0
   -1.8978   -0.4486   -0.2716 H   0  0  0  0  0  0  0  0  0  0  0  0
    0.1693   -0.2866    0.0854 C   0  0  1  0  0  0  0  0  0  0  0  0
    0.8425   -0.7905    0.7811 H   0  0  0  0  0  0  0  0  0  0  0  0
    0.7993   -0.3404   -1.3233 C   0  0  0  0  0  0  0  0  0  0  0  0
    1.1838    0.6501   -1.5730 H   0  0  0  0  0  0  0  0  0  0  0  0
    1.6453   -1.0309   -1.3043 H   0  0  0  0  0  0  0  0  0  0  0  0
   -0.1703   -0.7576   -2.4400 C   0  0  0  0  0  0  0  0  0  0  0  0
    0.0193   -0.3107   -3.5959 O   0  5  0  0  0  0  0  0  0  0  0  0
   -1.1136   -1.5124   -2.1197 O   0  0  0  0  0  0  0  0  0  0  0  0
   -0.0374    1.1645    0.5781 C   0  0  0  0  0  0  0  0  0  0  0  0
   -0.9816    1.8416    0.1544 O   0  0  0  0  0  0  0  0  0  0  0  0
    0.8235    1.6462    1.4801 N   0  0  0  0  0  0  0  0  0  0  0  0
    1.6183    1.0435    1.7020 H   0  0  0  0  0  0  0  0  0  0  0  0
    0.7895    2.9929    2.0404 C   0  0  0  0  0  0  0  0  0  0  0  0
   -0.2344    3.2522    2.3130 H   0  0  0  0  0  0  0  0  0  0  0  0
    1.4265    3.0377    2.9233 H   0  0  0  0  0  0  0  0  0  0  0  0
    1.1511    3.7014    1.2950 H   0  0  0  0  0  0  0  0  0  0  0  0
  5  6  2  0  0  0  0
  5  7  1  0  0  0  0
  2  3  1  0  0  0  0
  2  4  1  0  0  0  0
  2  5  1  0  0  0  0
  1  2  1  0  0  0  0
 17 18  2  0  0  0  0
 17 19  1  0  0  0  0
 14 15  1  0  0  0  0
 14 16  2  0  0  0  0
 11 12  1  0  0  0  0
 11 13  1  0  0  0  0
 11 14  1  0  0  0  0
  9 10  1  0  0  0  0
  9 11  1  0  0  0  0
  9 17  1  0  0  0  0
  7  8  1  0  0  0  0
  7  9  1  0  0  0  0
 21 22  1  0  0  0  0
 21 23  1  0  0  0  0
 21 24  1  0  0  0  0
 19 20  1  0  0  0  0
 19 21  1  0  0  0  0
M  CHG  1  15  -1
M  END
$$$$
default_name
  -OEChem-02102213163D

 24 23  0     1  0  0  0  0  0999 V2000
   -2.8347   -3.7166    0.8034 H   0  0  0  0  0  0  0  0  0  0  0  0
   -2.7728   -2.7096    0.3954 C   0  0  0  0  0  0  0  0  0  0  0  0
   -3.4267   -2.0426    0.9524 H   0  0  0  0  0  0  0  0  0  0  0  0
   -3.0538   -2.7186   -0.6556 H   0  0  0  0  0  0  0  0  0  0  0  0
   -1.3498   -2.2206    0.5184 C   0  0  0  0  0  0  0  0  0  0  0  0
   -0.4997   -2.9426    1.0194 O   0  0  0  0  0  0  0  0  0  0  0  0
   -1.1198   -0.9926    0.0674 N   0  0  0  0  0  0  0  0  0  0  0  0
   -1.8978   -0.4486   -0.2716 H   0  0  0  0  0  0  0  0  0  0  0  0
    0.1693   -0.2866    0.0854 C   0  0  1  0  0  0  0  0  0  0  0  0
    0.8425   -0.7905    0.7811 H   0  0  0  0  0  0  0  0  0  0  0  0
    0.7993   -0.3404   -1.3233 C   0  0  0  0  0  0  0  0  0  0  0  0
    1.1838    0.6501   -1.5730 H   0  0  0  0  0  0  0  0  0  0  0  0
    1.6453   -1.0309   -1.3043 H   0  0  0  0  0  0  0  0  0  0  0  0
   -0.1703   -0.7576   -2.4400 C   0  0  0  0  0  0  0  0  0  0  0  0
    0.1652   -0.5559   -3.6310 O   0  5  0  0  0  0  0  0  0  0  0  0
   -1.2582   -1.2622   -2.0876 O   0  0  0  0  0  0  0  0  0  0  0  0
   -0.0374    1.1645    0.5781 C   0  0  0  0  0  0  0  0  0  0  0  0
   -0.9816    1.8416    0.1544 O   0  0  0  0  0  0  0  0  0  0  0  0
    0.8235    1.6462    1.4801 N   0  0  0  0  0  0  0  0  0  0  0  0
    1.6183    1.0435    1.7020 H   0  0  0  0  0  0  0  0  0  0  0  0
    0.7895    2.9929    2.0404 C   0  0  0  0  0  0  0  0  0  0  0  0
   -0.2344    3.2522    2.3130 H   0  0  0  0  0  0  0  0  0  0  0  0
    1.4265    3.0377    2.9233 H   0  0  0  0  0  0  0  0  0  0  0  0
    1.1511    3.7014    1.2950 H   0  0  0  0  0  0  0  0  0  0  0  0
  5  6  2  0  0  0  0
  5  7  1  0  0  0  0
  2  3  1  0  0  0  0
  2  4  1  0  0  0  0
  2  5  1  0  0  0  0
  1  2  1  0  0  0  0
 17 18  2  0  0  0  0
 17 19  1  0  0  0  0
 14 15  1  0  0  0  0
 14 16  2  0  0  0  0
 11 12  1  0  0  0  0
 11 13  1  0  0  0  0
 11 14  1  0  0  0  0
  9 10  1  0  0  0  0
  9 11  1  0  0  0  0
  9 17  1  0  0  0  0
  7  8  1  0  0  0  0
  7  9  1  0  0  0  0
 21 22  1  0  0  0  0
 21 23  1  0  0  0  0
 21 24  1  0  0  0  0
 19 20  1  0  0  0  0
 19 21  1  0  0  0  0
M  CHG  1  15  -1
M  END
$$$$
default_name
  -OEChem-02102213163D

 24 23  0     1  0  0  0  0  0999 V2000
   -2.8347   -3.7166    0.8034 H   0  0  0  0  0  0  0  0  0  0  0  0
   -2.7728   -2.7096    0.3954 C   0  0  0  0  0  0  0  0  0  0  0  0
   -3.4267   -2.0426    0.9524 H   0  0  0  0  0  0  0  0  0  0  0  0
   -3.0538   -2.7186   -0.6556 H   0  0  0  0  0  0  0  0  0  0  0  0
   -1.3498   -2.2206    0.5184 C   0  0  0  0  0  0  0  0  0  0  0  0
   -0.4997   -2.9426    1.0194 O   0  0  0  0  0  0  0  0  0  0  0  0
   -1.1198   -0.9926    0.0674 N   0  0  0  0  0  0  0  0  0  0  0  0
   -1.8978   -0.4486   -0.2716 H   0  0  0  0  0  0  0  0  0  0  0  0
    0.1693   -0.2866    0.0854 C   0  0  1  0  0  0  0  0  0  0  0  0
    0.8425   -0.7905    0.7811 H   0  0  0  0  0  0  0  0  0  0  0  0
    0.7993   -0.3404   -1.3233 C   0  0  0  0  0  0  0  0  0  0  0  0
    1.4117    0.5515   -1.4674 H   0  0  0  0  0  0  0  0  0  0  0  0
    1.4581   -1.2095   -1.3812 H   0  0  0  0  0  0  0  0  0  0  0  0
   -0.2169   -0.3972   -2.4746 C   0  0  0  0  0  0  0  0  0  0  0  0
    0.2130   -0.4429   -3.6514 O   0  5  0  0  0  0  0  0  0  0  0  0
   -1.4274   -0.3748   -2.1644 O   0  0  0  0  0  0  0  0  0  0  0  0
   -0.0374    1.1645    0.5781 C   0  0  0  0  0  0  0  0  0  0  0  0
   -0.9816    1.8416    0.1544 O   0  0  0  0  0  0  0  0  0  0  0  0
    0.8235    1.6462    1.4801 N   0  0  0  0  0  0  0  0  0  0  0  0
    1.6183    1.0435    1.7020 H   0  0  0  0  0  0  0  0  0  0  0  0
    0.7895    2.9929    2.0404 C   0  0  0  0  0  0  0  0  0  0  0  0
   -0.2344    3.2522    2.3130 H   0  0  0  0  0  0  0  0  0  0  0  0
    1.4265    3.0377    2.9233 H   0  0  0  0  0  0  0  0  0  0  0  0
    1.1511    3.7014    1.2950 H   0  0  0  0  0  0  0  0  0  0  0  0
  5  6  2  0  0  0  0
  5  7  1  0  0  0  0
  2  3  1  0  0  0  0
  2  4  1  0  0  0  0
  2  5  1  0  0  0  0
  1  2  1  0  0  0  0
 17 18  2  0  0  0  0
 17 19  1  0  0  0  0
 14 15  1  0  0  0  0
 14 16  2  0  0  0  0
 11 12  1  0  0  0  0
 11 13  1  0  0  0  0
 11 14  1  0  0  0  0
  9 10  1  0  0  0  0
  9 11  1  0  0  0  0
  9 17  1  0  0  0  0
  7  8  1  0  0  0  0
  7  9  1  0  0  0  0
 21 22  1  0  0  0  0
 21 23  1  0  0  0  0
 21 24  1  0  0  0  0
 19 20  1  0  0  0  0
 19 21  1  0  0  0  0
M  CHG  1  15  -1
M  END
$$$$
default_name
  -OEChem-02102213163D

 24 23  0     1  0  0  0  0  0999 V2000
   -2.8347   -3.7166    0.8034 H   0  0  0  0  0  0  0  0  0  0  0  0
   -2.7728   -2.7096    0.3954 C   0  0  0  0  0  0  0  0  0  0  0  0
   -3.4267   -2.0426    0.9524 H   0  0  0  0  0  0  0  0  0  0  0  0
   -3.0538   -2.7186   -0.6556 H   0  0  0  0  0  0  0  0  0  0  0  0
   -1.3498   -2.2206    0.5184 C   0  0  0  0  0  0  0  0  0  0  0  0
   -0.4997   -2.9426    1.0194 O   0  0  0  0  0  0  0  0  0  0  0  0
   -1.1198   -0.9926    0.0674 N   0  0  0  0  0  0  0  0  0  0  0  0
   -1.8978   -0.4486   -0.2716 H   0  0  0  0  0  0  0  0  0  0  0  0
    0.1693   -0.2866    0.0854 C   0  0  1  0  0  0  0  0  0  0  0  0
    0.8425   -0.7905    0.7811 H   0  0  0  0  0  0  0  0  0  0  0  0
    0.7993   -0.3404   -1.3233 C   0  0  0  0  0  0  0  0  0  0  0  0
    1.4117    0.5515   -1.4674 H   0  0  0  0  0  0  0  0  0  0  0  0
    1.4581   -1.2095   -1.3812 H   0  0  0  0  0  0  0  0  0  0  0  0
   -0.2169   -0.3972   -2.4746 C   0  0  0  0  0  0  0  0  0  0  0  0
    0.1873   -0.7269   -3.6146 O   0  5  0  0  0  0  0  0  0  0  0  0
   -1.3976   -0.0884   -2.2049 O   0  0  0  0  0  0  0  0  0  0  0  0
   -0.0374    1.1645    0.5781 C   0  0  0  0  0  0  0  0  0  0  0  0
   -0.9816    1.8416    0.1544 O   0  0  0  0  0  0  0  0  0  0  0  0
    0.8235    1.6462    1.4801 N   0  0  0  0  0  0  0  0  0  0  0  0
    1.6183    1.0435    1.7020 H   0  0  0  0  0  0  0  0  0  0  0  0
    0.7895    2.9929    2.0404 C   0  0  0  0  0  0  0  0  0  0  0  0
   -0.2344    3.2522    2.3130 H   0  0  0  0  0  0  0  0  0  0  0  0
    1.4265    3.0377    2.9233 H   0  0  0  0  0  0  0  0  0  0  0  0
    1.1511    3.7014    1.2950 H   0  0  0  0  0  0  0  0  0  0  0  0
  5  6  2  0  0  0  0
  5  7  1  0  0  0  0
  2  3  1  0  0  0  0
  2  4  1  0  0  0  0
  2  5  1  0  0  0  0
  1  2  1  0  0  0  0
 17 18  2  0  0  0  0
 17 19  1  0  0  0  0
 14 15  1  0  0  0  0
 14 16  2  0  0  0  0
 11 12  1  0  0  0  0
 11 13  1  0  0  0  0
 11 14  1  0  0  0  0
  9 10  1  0  0  0  0
  9 11  1  0  0  0  0
  9 17  1  0  0  0  0
  7  8  1  0  0  0  0
  7  9  1  0  0  0  0
 21 22  1  0  0  0  0
 21 23  1  0  0  0  0
 21 24  1  0  0  0  0
 19 20  1  0  0  0  0
 19 21  1  0  0  0  0
M  CHG  1  15  -1
M  END
$$$$
default_name
  -OEChem-02102213163D

 24 23  0     1  0  0  0  0  0999 V2000
   -2.8347   -3.7166    0.8034 H   0  0  0  0  0  0  0  0  0  0  0  0
   -2.7728   -2.7096    0.3954 C   0  0  0  0  0  0  0  0  0  0  0  0
   -3.4267   -2.0426    0.9524 H   0  0  0  0  0  0  0  0  0  0  0  0
   -3.0538   -2.7186   -0.6556 H   0  0  0  0  0  0  0  0  0  0  0  0
   -1.3498   -2.2206    0.5184 C   0  0  0  0  0  0  0  0  0  0  0  0
   -0.4997   -2.9426    1.0194 O   0  0  0  0  0  0  0  0  0  0  0  0
   -1.1198   -0.9926    0.0674 N   0  0  0  0  0  0  0  0  0  0  0  0
   -1.8978   -0.4486   -0.2716 H   0  0  0  0  0  0  0  0  0  0  0  0
    0.1693   -0.2866    0.0854 C   0  0  1  0  0  0  0  0  0  0  0  0
    0.8425   -0.7905    0.7811 H   0  0  0  0  0  0  0  0  0  0  0  0
    0.7993   -0.3404   -1.3233 C   0  0  0  0  0  0  0  0  0  0  0  0
    1.4117    0.5515   -1.4674 H   0  0  0  0  0  0  0  0  0  0  0  0
    1.4581   -1.2095   -1.3812 H   0  0  0  0  0  0  0  0  0  0  0  0
   -0.2169   -0.3972   -2.4746 C   0  0  0  0  0  0  0  0  0  0  0  0
    0.1070   -0.9899   -3.5308 O   0  5  0  0  0  0  0  0  0  0  0  0
   -1.3128    0.1754   -2.2927 O   0  0  0  0  0  0  0  0  0  0  0  0
   -0.0374    1.1645    0.5781 C   0  0  0  0  0  0  0  0  0  0  0  0
   -0.9816    1.8416    0.1544 O   0  0  0  0  0  0  0  0  0  0  0  0
    0.8235    1.6462    1.4801 N   0  0  0  0  0  0  0  0  0  0  0  0
    1.6183    1.0435    1.7020 H   0  0  0  0  0  0  0  0  0  0  0  0
    0.7895    2.9929    2.0404 C   0  0  0  0  0  0  0  0  0  0  0  0
   -0.2344    3.2522    2.3130 H   0  0  0  0  0  0  0  0  0  0  0  0
    1.4265    3.0377    2.9233 H   0  0  0  0  0  0  0  0  0  0  0  0
    1.1511    3.7014    1.2950 H   0  0  0  0  0  0  0  0  0  0  0  0
  5  6  2  0  0  0  0
  5  7  1  0  0  0  0
  2  3  1  0  0  0  0
  2  4  1  0  0  0  0
  2  5  1  0  0  0  0
  1  2  1  0  0  0  0
 17 18  2  0  0  0  0
 17 19  1  0  0  0  0
 14 15  1  0  0  0  0
 14 16  2  0  0  0  0
 11 12  1  0  0  0  0
 11 13  1  0  0  0  0
 11 14  1  0  0  0  0
  9 10  1  0  0  0  0
  9 11  1  0  0  0  0
  9 17  1  0  0  0  0
  7  8  1  0  0  0  0
  7  9  1  0  0  0  0
 21 22  1  0  0  0  0
 21 23  1  0  0  0  0
 21 24  1  0  0  0  0
 19 20  1  0  0  0  0
 19 21  1  0  0  0  0
M  CHG  1  15  -1
M  END
$$$$
default_name
  -OEChem-02102213163D

 24 23  0     1  0  0  0  0  0999 V2000
   -2.8347   -3.7166    0.8034 H   0  0  0  0  0  0  0  0  0  0  0  0
   -2.7728   -2.7096    0.3954 C   0  0  0  0  0  0  0  0  0  0  0  0
   -3.4267   -2.0426    0.9524 H   0  0  0  0  0  0  0  0  0  0  0  0
   -3.0538   -2.7186   -0.6556 H   0  0  0  0  0  0  0  0  0  0  0  0
   -1.3498   -2.2206    0.5184 C   0  0  0  0  0  0  0  0  0  0  0  0
   -0.4997   -2.9426    1.0194 O   0  0  0  0  0  0  0  0  0  0  0  0
   -1.1198   -0.9926    0.0674 N   0  0  0  0  0  0  0  0  0  0  0  0
   -1.8978   -0.4486   -0.2716 H   0  0  0  0  0  0  0  0  0  0  0  0
    0.1693   -0.2866    0.0854 C   0  0  1  0  0  0  0  0  0  0  0  0
    0.8425   -0.7905    0.7811 H   0  0  0  0  0  0  0  0  0  0  0  0
    0.7993   -0.3404   -1.3233 C   0  0  0  0  0  0  0  0  0  0  0  0
    1.4117    0.5515   -1.4674 H   0  0  0  0  0  0  0  0  0  0  0  0
    1.4581   -1.2095   -1.3812 H   0  0  0  0  0  0  0  0  0  0  0  0
   -0.2169   -0.3972   -2.4746 C   0  0  0  0  0  0  0  0  0  0  0  0
   -0.0224   -1.2140   -3.4055 O   0  5  0  0  0  0  0  0  0  0  0  0
   -1.1790    0.3989   -2.4219 O   0  0  0  0  0  0  0  0  0  0  0  0
   -0.0374    1.1645    0.5781 C   0  0  0  0  0  0  0  0  0  0  0  0
   -0.9816    1.8416    0.1544 O   0  0  0  0  0  0  0  0  0  0  0  0
    0.8235    1.6462    1.4801 N   0  0  0  0  0  0  0  0  0  0  0  0
    1.6183    1.0435    1.7020 H   0  0  0  0  0  0  0  0  0  0  0  0
    0.7895    2.9929    2.0404 C   0  0  0  0  0  0  0  0  0  0  0  0
   -0.2344    3.2522    2.3130 H   0  0  0  0  0  0  0  0  0  0  0  0
    1.4265    3.0377    2.9233 H   0  0  0  0  0  0  0  0  0  0  0  0
    1.1511    3.7014    1.2950 H   0  0  0  0  0  0  0  0  0  0  0  0
  5  6  2  0  0  0  0
  5  7  1  0  0  0  0
  2  3  1  0  0  0  0
  2  4  1  0  0  0  0
  2  5  1  0  0  0  0
  1  2  1  0  0  0  0
 17 18  2  0  0  0  0
 17 19  1  0  0  0  0
 14 15  1  0  0  0  0
 14 16  2  0  0  0  0
 11 12  1  0  0  0  0
 11 13  1  0  0  0  0
 11 14  1  0  0  0  0
  9 10  1  0  0  0  0
  9 11  1  0  0  0  0
  9 17  1  0  0  0  0
  7  8  1  0  0  0  0
  7  9  1  0  0  0  0
 21 22  1  0  0  0  0
 21 23  1  0  0  0  0
 21 24  1  0  0  0  0
 19 20  1  0  0  0  0
 19 21  1  0  0  0  0
M  CHG  1  15  -1
M  END
$$$$
default_name
  -OEChem-02102213163D

 24 23  0     1  0  0  0  0  0999 V2000
   -2.8347   -3.7166    0.8034 H   0  0  0  0  0  0  0  0  0  0  0  0
   -2.7728   -2.7096    0.3954 C   0  0  0  0  0  0  0  0  0  0  0  0
   -3.4267   -2.0426    0.9524 H   0  0  0  0  0  0  0  0  0  0  0  0
   -3.0538   -2.7186   -0.6556 H   0  0  0  0  0  0  0  0  0  0  0  0
   -1.3498   -2.2206    0.5184 C   0  0  0  0  0  0  0  0  0  0  0  0
   -0.4997   -2.9426    1.0194 O   0  0  0  0  0  0  0  0  0  0  0  0
   -1.1198   -0.9926    0.0674 N   0  0  0  0  0  0  0  0  0  0  0  0
   -1.8978   -0.4486   -0.2716 H   0  0  0  0  0  0  0  0  0  0  0  0
    0.1693   -0.2866    0.0854 C   0  0  1  0  0  0  0  0  0  0  0  0
    0.8425   -0.7905    0.7811 H   0  0  0  0  0  0  0  0  0  0  0  0
    0.7993   -0.3404   -1.3233 C   0  0  0  0  0  0  0  0  0  0  0  0
    1.4117    0.5515   -1.4674 H   0  0  0  0  0  0  0  0  0  0  0  0
    1.4581   -1.2095   -1.3812 H   0  0  0  0  0  0  0  0  0  0  0  0
   -0.2169   -0.3972   -2.4746 C   0  0  0  0  0  0  0  0  0  0  0  0
   -0.1920   -1.3840   -3.2474 O   0  5  0  0  0  0  0  0  0  0  0  0
   -1.0051    0.5666   -2.5836 O   0  0  0  0  0  0  0  0  0  0  0  0
   -0.0374    1.1645    0.5781 C   0  0  0  0  0  0  0  0  0  0  0  0
   -0.9816    1.8416    0.1544 O   0  0  0  0  0  0  0  0  0  0  0  0
    0.8235    1.6462    1.4801 N   0  0  0  0  0  0  0  0  0  0  0  0
    1.6183    1.0435    1.7020 H   0  0  0  0  0  0  0  0  0  0  0  0
    0.7895    2.9929    2.0404 C   0  0  0  0  0  0  0  0  0  0  0  0
   -0.2344    3.2522    2.3130 H   0  0  0  0  0  0  0  0  0  0  0  0
    1.4265    3.0377    2.9233 H   0  0  0  0  0  0  0  0  0  0  0  0
    1.1511    3.7014    1.2950 H   0  0  0  0  0  0  0  0  0  0  0  0
  5  6  2  0  0  0  0
  5  7  1  0  0  0  0
  2  3  1  0  0  0  0
  2  4  1  0  0  0  0
  2  5  1  0  0  0  0
  1  2  1  0  0  0  0
 17 18  2  0  0  0  0
 17 19  1  0  0  0  0
 14 15  1  0  0  0  0
 14 16  2  0  0  0  0
 11 12  1  0  0  0  0
 11 13  1  0  0  0  0
 11 14  1  0  0  0  0
  9 10  1  0  0  0  0
  9 11  1  0  0  0  0
  9 17  1  0  0  0  0
  7  8  1  0  0  0  0
  7  9  1  0  0  0  0
 21 22  1  0  0  0  0
 21 23  1  0  0  0  0
 21 24  1  0  0  0  0
 19 20  1  0  0  0  0
 19 21  1  0  0  0  0
M  CHG  1  15  -1
M  END
$$$$
default_name
  -OEChem-02102213163D

 24 23  0     1  0  0  0  0  0999 V2000
   -2.8347   -3.7166    0.8034 H   0  0  0  0  0  0  0  0  0  0  0  0
   -2.7728   -2.7096    0.3954 C   0  0  0  0  0  0  0  0  0  0  0  0
   -3.4267   -2.0426    0.9524 H   0  0  0  0  0  0  0  0  0  0  0  0
   -3.0538   -2.7186   -0.6556 H   0  0  0  0  0  0  0  0  0  0  0  0
   -1.3498   -2.2206    0.5184 C   0  0  0  0  0  0  0  0  0  0  0  0
   -0.4997   -2.9426    1.0194 O   0  0  0  0  0  0  0  0  0  0  0  0
   -1.1198   -0.9926    0.0674 N   0  0  0  0  0  0  0  0  0  0  0  0
   -1.8978   -0.4486   -0.2716 H   0  0  0  0  0  0  0  0  0  0  0  0
    0.1693   -0.2866    0.0854 C   0  0  1  0  0  0  0  0  0  0  0  0
    0.8425   -0.7905    0.7811 H   0  0  0  0  0  0  0  0  0  0  0  0
    0.7993   -0.3404   -1.3233 C   0  0  0  0  0  0  0  0  0  0  0  0
    1.4117    0.5515   -1.4674 H   0  0  0  0  0  0  0  0  0  0  0  0
    1.4581   -1.2095   -1.3812 H   0  0  0  0  0  0  0  0  0  0  0  0
   -0.2169   -0.3972   -2.4746 C   0  0  0  0  0  0  0  0  0  0  0  0
   -0.3903   -1.4882   -3.0673 O   0  5  0  0  0  0  0  0  0  0  0  0
   -0.8031    0.6672   -2.7669 O   0  0  0  0  0  0  0  0  0  0  0  0
   -0.0374    1.1645    0.5781 C   0  0  0  0  0  0  0  0  0  0  0  0
   -0.9816    1.8416    0.1544 O   0  0  0  0  0  0  0  0  0  0  0  0
    0.8235    1.6462    1.4801 N   0  0  0  0  0  0  0  0  0  0  0  0
    1.6183    1.0435    1.7020 H   0  0  0  0  0  0  0  0  0  0  0  0
    0.7895    2.9929    2.0404 C   0  0  0  0  0  0  0  0  0  0  0  0
   -0.2344    3.2522    2.3130 H   0  0  0  0  0  0  0  0  0  0  0  0
    1.4265    3.0377    2.9233 H   0  0  0  0  0  0  0  0  0  0  0  0
    1.1511    3.7014    1.2950 H   0  0  0  0  0  0  0  0  0  0  0  0
  5  6  2  0  0  0  0
  5  7  1  0  0  0  0
  2  3  1  0  0  0  0
  2  4  1  0  0  0  0
  2  5  1  0  0  0  0
  1  2  1  0  0  0  0
 17 18  2  0  0  0  0
 17 19  1  0  0  0  0
 14 15  1  0  0  0  0
 14 16  2  0  0  0  0
 11 12  1  0  0  0  0
 11 13  1  0  0  0  0
 11 14  1  0  0  0  0
  9 10  1  0  0  0  0
  9 11  1  0  0  0  0
  9 17  1  0  0  0  0
  7  8  1  0  0  0  0
  7  9  1  0  0  0  0
 21 22  1  0  0  0  0
 21 23  1  0  0  0  0
 21 24  1  0  0  0  0
 19 20  1  0  0  0  0
 19 21  1  0  0  0  0
M  CHG  1  15  -1
M  END
$$$$
default_name
  -OEChem-02102213163D

 24 23  0     1  0  0  0  0  0999 V2000
   -2.8347   -3.7166    0.8034 H   0  0  0  0  0  0  0  0  0  0  0  0
   -2.7728   -2.7096    0.3954 C   0  0  0  0  0  0  0  0  0  0  0  0
   -3.4267   -2.0426    0.9524 H   0  0  0  0  0  0  0  0  0  0  0  0
   -3.0538   -2.7186   -0.6556 H   0  0  0  0  0  0  0  0  0  0  0  0
   -1.3498   -2.2206    0.5184 C   0  0  0  0  0  0  0  0  0  0  0  0
   -0.4997   -2.9426    1.0194 O   0  0  0  0  0  0  0  0  0  0  0  0
   -1.1198   -0.9926    0.0674 N   0  0  0  0  0  0  0  0  0  0  0  0
   -1.8978   -0.4486   -0.2716 H   0  0  0  0  0  0  0  0  0  0  0  0
    0.1693   -0.2866    0.0854 C   0  0  1  0  0  0  0  0  0  0  0  0
    0.8425   -0.7905    0.7811 H   0  0  0  0  0  0  0  0  0  0  0  0
    0.7993   -0.3404   -1.3233 C   0  0  0  0  0  0  0  0  0  0  0  0
    1.4117    0.5515   -1.4674 H   0  0  0  0  0  0  0  0  0  0  0  0
    1.4581   -1.2095   -1.3812 H   0  0  0  0  0  0  0  0  0  0  0  0
   -0.2169   -0.3972   -2.4746 C   0  0  0  0  0  0  0  0  0  0  0  0
   -0.6038   -1.5196   -2.8773 O   0  5  0  0  0  0  0  0  0  0  0  0
   -0.5867    0.6939   -2.9592 O   0  0  0  0  0  0  0  0  0  0  0  0
   -0.0374    1.1645    0.5781 C   0  0  0  0  0  0  0  0  0  0  0  0
   -0.9816    1.8416    0.1544 O   0  0  0  0  0  0  0  0  0  0  0  0
    0.8235    1.6462    1.4801 N   0  0  0  0  0  0  0  0  0  0  0  0
    1.6183    1.0435    1.7020 H   0  0  0  0  0  0  0  0  0  0  0  0
    0.7895    2.9929    2.0404 C   0  0  0  0  0  0  0  0  0  0  0  0
   -0.2344    3.2522    2.3130 H   0  0  0  0  0  0  0  0  0  0  0  0
    1.4265    3.0377    2.9233 H   0  0  0  0  0  0  0  0  0  0  0  0
    1.1511    3.7014    1.2950 H   0  0  0  0  0  0  0  0  0  0  0  0
  5  6  2  0  0  0  0
  5  7  1  0  0  0  0
  2  3  1  0  0  0  0
  2  4  1  0  0  0  0
  2  5  1  0  0  0  0
  1  2  1  0  0  0  0
 17 18  2  0  0  0  0
 17 19  1  0  0  0  0
 14 15  1  0  0  0  0
 14 16  2  0  0  0  0
 11 12  1  0  0  0  0
 11 13  1  0  0  0  0
 11 14  1  0  0  0  0
  9 10  1  0  0  0  0
  9 11  1  0  0  0  0
  9 17  1  0  0  0  0
  7  8  1  0  0  0  0
  7  9  1  0  0  0  0
 21 22  1  0  0  0  0
 21 23  1  0  0  0  0
 21 24  1  0  0  0  0
 19 20  1  0  0  0  0
 19 21  1  0  0  0  0
M  CHG  1  15  -1
M  END
$$$$
default_name
  -OEChem-02102213163D

 24 23  0     1  0  0  0  0  0999 V2000
   -2.8347   -3.7166    0.8034 H   0  0  0  0  0  0  0  0  0  0  0  0
   -2.7728   -2.7096    0.3954 C   0  0  0  0  0  0  0  0  0  0  0  0
   -3.4267   -2.0426    0.9524 H   0  0  0  0  0  0  0  0  0  0  0  0
   -3.0538   -2.7186   -0.6556 H   0  0  0  0  0  0  0  0  0  0  0  0
   -1.3498   -2.2206    0.5184 C   0  0  0  0  0  0  0  0  0  0  0  0
   -0.4997   -2.9426    1.0194 O   0  0  0  0  0  0  0  0  0  0  0  0
   -1.1198   -0.9926    0.0674 N   0  0  0  0  0  0  0  0  0  0  0  0
   -1.8978   -0.4486   -0.2716 H   0  0  0  0  0  0  0  0  0  0  0  0
    0.1693   -0.2866    0.0854 C   0  0  1  0  0  0  0  0  0  0  0  0
    0.8425   -0.7905    0.7811 H   0  0  0  0  0  0  0  0  0  0  0  0
    0.7993   -0.3404   -1.3233 C   0  0  0  0  0  0  0  0  0  0  0  0
    1.4117    0.5515   -1.4674 H   0  0  0  0  0  0  0  0  0  0  0  0
    1.4581   -1.2095   -1.3812 H   0  0  0  0  0  0  0  0  0  0  0  0
   -0.2169   -0.3972   -2.4746 C   0  0  0  0  0  0  0  0  0  0  0  0
   -0.8179   -1.4760   -2.6905 O   0  5  0  0  0  0  0  0  0  0  0  0
   -0.3707    0.6448   -3.1475 O   0  0  0  0  0  0  0  0  0  0  0  0
   -0.0374    1.1645    0.5781 C   0  0  0  0  0  0  0  0  0  0  0  0
   -0.9816    1.8416    0.1544 O   0  0  0  0  0  0  0  0  0  0  0  0
    0.8235    1.6462    1.4801 N   0  0  0  0  0  0  0  0  0  0  0  0
    1.6183    1.0435    1.7020 H   0  0  0  0  0  0  0  0  0  0  0  0
    0.7895    2.9929    2.0404 C   0  0  0  0  0  0  0  0  0  0  0  0
   -0.2344    3.2522    2.3130 H   0  0  0  0  0  0  0  0  0  0  0  0
    1.4265    3.0377    2.9233 H   0  0  0  0  0  0  0  0  0  0  0  0
    1.1511    3.7014    1.2950 H   0  0  0  0  0  0  0  0  0  0  0  0
  5  6  2  0  0  0  0
  5  7  1  0  0  0  0
  2  3  1  0  0  0  0
  2  4  1  0  0  0  0
  2  5  1  0  0  0  0
  1  2  1  0  0  0  0
 17 18  2  0  0  0  0
 17 19  1  0  0  0  0
 14 15  1  0  0  0  0
 14 16  2  0  0  0  0
 11 12  1  0  0  0  0
 11 13  1  0  0  0  0
 11 14  1  0  0  0  0
  9 10  1  0  0  0  0
  9 11  1  0  0  0  0
  9 17  1  0  0  0  0
  7  8  1  0  0  0  0
  7  9  1  0  0  0  0
 21 22  1  0  0  0  0
 21 23  1  0  0  0  0
 21 24  1  0  0  0  0
 19 20  1  0  0  0  0
 19 21  1  0  0  0  0
M  CHG  1  15  -1
M  END
$$$$
default_name
  -OEChem-02102213163D

 24 23  0     1  0  0  0  0  0999 V2000
   -2.8347   -3.7166    0.8034 H   0  0  0  0  0  0  0  0  0  0  0  0
   -2.7728   -2.7096    0.3954 C   0  0  0  0  0  0  0  0  0  0  0  0
   -3.4267   -2.0426    0.9524 H   0  0  0  0  0  0  0  0  0  0  0  0
   -3.0538   -2.7186   -0.6556 H   0  0  0  0  0  0  0  0  0  0  0  0
   -1.3498   -2.2206    0.5184 C   0  0  0  0  0  0  0  0  0  0  0  0
   -0.4997   -2.9426    1.0194 O   0  0  0  0  0  0  0  0  0  0  0  0
   -1.1198   -0.9926    0.0674 N   0  0  0  0  0  0  0  0  0  0  0  0
   -1.8978   -0.4486   -0.2716 H   0  0  0  0  0  0  0  0  0  0  0  0
    0.1693   -0.2866    0.0854 C   0  0  1  0  0  0  0  0  0  0  0  0
    0.8425   -0.7905    0.7811 H   0  0  0  0  0  0  0  0  0  0  0  0
    0.7993   -0.3404   -1.3233 C   0  0  0  0  0  0  0  0  0  0  0  0
    1.4117    0.5515   -1.4674 H   0  0  0  0  0  0  0  0  0  0  0  0
    1.4581   -1.2095   -1.3812 H   0  0  0  0  0  0  0  0  0  0  0  0
   -0.2169   -0.3972   -2.4746 C   0  0  0  0  0  0  0  0  0  0  0  0
   -1.0180   -1.3604   -2.5195 O   0  5  0  0  0  0  0  0  0  0  0  0
   -0.1697    0.5232   -3.3189 O   0  0  0  0  0  0  0  0  0  0  0  0
   -0.0374    1.1645    0.5781 C   0  0  0  0  0  0  0  0  0  0  0  0
   -0.9816    1.8416    0.1544 O   0  0  0  0  0  0  0  0  0  0  0  0
    0.8235    1.6462    1.4801 N   0  0  0  0  0  0  0  0  0  0  0  0
    1.6183    1.0435    1.7020 H   0  0  0  0  0  0  0  0  0  0  0  0
    0.7895    2.9929    2.0404 C   0  0  0  0  0  0  0  0  0  0  0  0
   -0.2344    3.2522    2.3130 H   0  0  0  0  0  0  0  0  0  0  0  0
    1.4265    3.0377    2.9233 H   0  0  0  0  0  0  0  0  0  0  0  0
    1.1511    3.7014    1.2950 H   0  0  0  0  0  0  0  0  0  0  0  0
  5  6  2  0  0  0  0
  5  7  1  0  0  0  0
  2  3  1  0  0  0  0
  2  4  1  0  0  0  0
  2  5  1  0  0  0  0
  1  2  1  0  0  0  0
 17 18  2  0  0  0  0
 17 19  1  0  0  0  0
 14 15  1  0  0  0  0
 14 16  2  0  0  0  0
 11 12  1  0  0  0  0
 11 13  1  0  0  0  0
 11 14  1  0  0  0  0
  9 10  1  0  0  0  0
  9 11  1  0  0  0  0
  9 17  1  0  0  0  0
  7  8  1  0  0  0  0
  7  9  1  0  0  0  0
 21 22  1  0  0  0  0
 21 23  1  0  0  0  0
 21 24  1  0  0  0  0
 19 20  1  0  0  0  0
 19 21  1  0  0  0  0
M  CHG  1  15  -1
M  END
$$$$
default_name
  -OEChem-02102213163D

 24 23  0     1  0  0  0  0  0999 V2000
   -2.8347   -3.7166    0.8034 H   0  0  0  0  0  0  0  0  0  0  0  0
   -2.7728   -2.7096    0.3954 C   0  0  0  0  0  0  0  0  0  0  0  0
   -3.4267   -2.0426    0.9524 H   0  0  0  0  0  0  0  0  0  0  0  0
   -3.0538   -2.7186   -0.6556 H   0  0  0  0  0  0  0  0  0  0  0  0
   -1.3498   -2.2206    0.5184 C   0  0  0  0  0  0  0  0  0  0  0  0
   -0.4997   -2.9426    1.0194 O   0  0  0  0  0  0  0  0  0  0  0  0
   -1.1198   -0.9926    0.0674 N   0  0  0  0  0  0  0  0  0  0  0  0
   -1.8978   -0.4486   -0.2716 H   0  0  0  0  0  0  0  0  0  0  0  0
    0.1693   -0.2866    0.0854 C   0  0  1  0  0  0  0  0  0  0  0  0
    0.8425   -0.7905    0.7811 H   0  0  0  0  0  0  0  0  0  0  0  0
    0.7993   -0.3404   -1.3233 C   0  0  0  0  0  0  0  0  0  0  0  0
    1.4117    0.5515   -1.4674 H   0  0  0  0  0  0  0  0  0  0  0  0
    1.4581   -1.2095   -1.3812 H   0  0  0  0  0  0  0  0  0  0  0  0
   -0.2169   -0.3972   -2.4746 C   0  0  0  0  0  0  0  0  0  0  0  0
   -1.1906   -1.1807   -2.3761 O   0  5  0  0  0  0  0  0  0  0  0  0
    0.0024    0.3375   -3.4617 O   0  0  0  0  0  0  0  0  0  0  0  0
   -0.0374    1.1645    0.5781 C   0  0  0  0  0  0  0  0  0  0  0  0
   -0.9816    1.8416    0.1544 O   0  0  0  0  0  0  0  0  0  0  0  0
    0.8235    1.6462    1.4801 N   0  0  0  0  0  0  0  0  0  0  0  0
    1.6183    1.0435    1.7020 H   0  0  0  0  0  0  0  0  0  0  0  0
    0.7895    2.9929    2.0404 C   0  0  0  0  0  0  0  0  0  0  0  0
   -0.2344    3.2522    2.3130 H   0  0  0  0  0  0  0  0  0  0  0  0
    1.4265    3.0377    2.9233 H   0  0  0  0  0  0  0  0  0  0  0  0
    1.1511    3.7014    1.2950 H   0  0  0  0  0  0  0  0  0  0  0  0
  5  6  2  0  0  0  0
  5  7  1  0  0  0  0
  2  3  1  0  0  0  0
  2  4  1  0  0  0  0
  2  5  1  0  0  0  0
  1  2  1  0  0  0  0
 17 18  2  0  0  0  0
 17 19  1  0  0  0  0
 14 15  1  0  0  0  0
 14 16  2  0  0  0  0
 11 12  1  0  0  0  0
 11 13  1  0  0  0  0
 11 14  1  0  0  0  0
  9 10  1  0  0  0  0
  9 11  1  0  0  0  0
  9 17  1  0  0  0  0
  7  8  1  0  0  0  0
  7  9  1  0  0  0  0
 21 22  1  0  0  0  0
 21 23  1  0  0  0  0
 21 24  1  0  0  0  0
 19 20  1  0  0  0  0
 19 21  1  0  0  0  0
M  CHG  1  15  -1
M  END
$$$$
default_name
  -OEChem-02102213163D

 24 23  0     1  0  0  0  0  0999 V2000
   -2.8347   -3.7166    0.8034 H   0  0  0  0  0  0  0  0  0  0  0  0
   -2.7728   -2.7096    0.3954 C   0  0  0  0  0  0  0  0  0  0  0  0
   -3.4267   -2.0426    0.9524 H   0  0  0  0  0  0  0  0  0  0  0  0
   -3.0538   -2.7186   -0.6556 H   0  0  0  0  0  0  0  0  0  0  0  0
   -1.3498   -2.2206    0.5184 C   0  0  0  0  0  0  0  0  0  0  0  0
   -0.4997   -2.9426    1.0194 O   0  0  0  0  0  0  0  0  0  0  0  0
   -1.1198   -0.9926    0.0674 N   0  0  0  0  0  0  0  0  0  0  0  0
   -1.8978   -0.4486   -0.2716 H   0  0  0  0  0  0  0  0  0  0  0  0
    0.1693   -0.2866    0.0854 C   0  0  1  0  0  0  0  0  0  0  0  0
    0.8425   -0.7905    0.7811 H   0  0  0  0  0  0  0  0  0  0  0  0
    0.7993   -0.3404   -1.3233 C   0  0  0  0  0  0  0  0  0  0  0  0
    1.4117    0.5515   -1.4674 H   0  0  0  0  0  0  0  0  0  0  0  0
    1.4581   -1.2095   -1.3812 H   0  0  0  0  0  0  0  0  0  0  0  0
   -0.2169   -0.3972   -2.4746 C   0  0  0  0  0  0  0  0  0  0  0  0
   -1.3238   -0.9491   -2.2699 O   0  5  0  0  0  0  0  0  0  0  0  0
    0.1341    0.1003   -3.5662 O   0  0  0  0  0  0  0  0  0  0  0  0
   -0.0374    1.1645    0.5781 C   0  0  0  0  0  0  0  0  0  0  0  0
   -0.9816    1.8416    0.1544 O   0  0  0  0  0  0  0  0  0  0  0  0
    0.8235    1.6462    1.4801 N   0  0  0  0  0  0  0  0  0  0  0  0
    1.6183    1.0435    1.7020 H   0  0  0  0  0  0  0  0  0  0  0  0
    0.7895    2.9929    2.0404 C   0  0  0  0  0  0  0  0  0  0  0  0
   -0.2344    3.2522    2.3130 H   0  0  0  0  0  0  0  0  0  0  0  0
    1.4265    3.0377    2.9233 H   0  0  0  0  0  0  0  0  0  0  0  0
    1.1511    3.7014    1.2950 H   0  0  0  0  0  0  0  0  0  0  0  0
  5  6  2  0  0  0  0
  5  7  1  0  0  0  0
  2  3  1  0  0  0  0
  2  4  1  0  0  0  0
  2  5  1  0  0  0  0
  1  2  1  0  0  0  0
 17 18  2  0  0  0  0
 17 19  1  0  0  0  0
 14 15  1  0  0  0  0
 14 16  2  0  0  0  0
 11 12  1  0  0  0  0
 11 13  1  0  0  0  0
 11 14  1  0  0  0  0
  9 10  1  0  0  0  0
  9 11  1  0  0  0  0
  9 17  1  0  0  0  0
  7  8  1  0  0  0  0
  7  9  1  0  0  0  0
 21 22  1  0  0  0  0
 21 23  1  0  0  0  0
 21 24  1  0  0  0  0
 19 20  1  0  0  0  0
 19 21  1  0  0  0  0
M  CHG  1  15  -1
M  END
$$$$
default_name
  -OEChem-02102213163D

 24 23  0     1  0  0  0  0  0999 V2000
   -2.8347   -3.7166    0.8034 H   0  0  0  0  0  0  0  0  0  0  0  0
   -2.7728   -2.7096    0.3954 C   0  0  0  0  0  0  0  0  0  0  0  0
   -3.4267   -2.0426    0.9524 H   0  0  0  0  0  0  0  0  0  0  0  0
   -3.0538   -2.7186   -0.6556 H   0  0  0  0  0  0  0  0  0  0  0  0
   -1.3498   -2.2206    0.5184 C   0  0  0  0  0  0  0  0  0  0  0  0
   -0.4997   -2.9426    1.0194 O   0  0  0  0  0  0  0  0  0  0  0  0
   -1.1198   -0.9926    0.0674 N   0  0  0  0  0  0  0  0  0  0  0  0
   -1.8978   -0.4486   -0.2716 H   0  0  0  0  0  0  0  0  0  0  0  0
    0.1693   -0.2866    0.0854 C   0  0  1  0  0  0  0  0  0  0  0  0
    0.8425   -0.7905    0.7811 H   0  0  0  0  0  0  0  0  0  0  0  0
    0.7993   -0.3404   -1.3233 C   0  0  0  0  0  0  0  0  0  0  0  0
    1.4117    0.5515   -1.4674 H   0  0  0  0  0  0  0  0  0  0  0  0
    1.4581   -1.2095   -1.3812 H   0  0  0  0  0  0  0  0  0  0  0  0
   -0.2169   -0.3972   -2.4746 C   0  0  0  0  0  0  0  0  0  0  0  0
   -1.4085   -0.6814   -2.2084 O   0  5  0  0  0  0  0  0  0  0  0  0
    0.2163   -0.1723   -3.6252 O   0  0  0  0  0  0  0  0  0  0  0  0
   -0.0374    1.1645    0.5781 C   0  0  0  0  0  0  0  0  0  0  0  0
   -0.9816    1.8416    0.1544 O   0  0  0  0  0  0  0  0  0  0  0  0
    0.8235    1.6462    1.4801 N   0  0  0  0  0  0  0  0  0  0  0  0
    1.6183    1.0435    1.7020 H   0  0  0  0  0  0  0  0  0  0  0  0
    0.7895    2.9929    2.0404 C   0  0  0  0  0  0  0  0  0  0  0  0
   -0.2344    3.2522    2.3130 H   0  0  0  0  0  0  0  0  0  0  0  0
    1.4265    3.0377    2.9233 H   0  0  0  0  0  0  0  0  0  0  0  0
    1.1511    3.7014    1.2950 H   0  0  0  0  0  0  0  0  0  0  0  0
  5  6  2  0  0  0  0
  5  7  1  0  0  0  0
  2  3  1  0  0  0  0
  2  4  1  0  0  0  0
  2  5  1  0  0  0  0
  1  2  1  0  0  0  0
 17 18  2  0  0  0  0
 17 19  1  0  0  0  0
 14 15  1  0  0  0  0
 14 16  2  0  0  0  0
 11 12  1  0  0  0  0
 11 13  1  0  0  0  0
 11 14  1  0  0  0  0
  9 10  1  0  0  0  0
  9 11  1  0  0  0  0
  9 17  1  0  0  0  0
  7  8  1  0  0  0  0
  7  9  1  0  0  0  0
 21 22  1  0  0  0  0
 21 23  1  0  0  0  0
 21 24  1  0  0  0  0
 19 20  1  0  0  0  0
 19 21  1  0  0  0  0
M  CHG  1  15  -1
M  END
$$$$
default_name
  -OEChem-02102213163D

 24 23  0     1  0  0  0  0  0999 V2000
   -2.8347   -3.7166    0.8034 H   0  0  0  0  0  0  0  0  0  0  0  0
   -2.7728   -2.7096    0.3954 C   0  0  0  0  0  0  0  0  0  0  0  0
   -3.4267   -2.0426    0.9524 H   0  0  0  0  0  0  0  0  0  0  0  0
   -3.0538   -2.7186   -0.6556 H   0  0  0  0  0  0  0  0  0  0  0  0
   -1.3498   -2.2206    0.5184 C   0  0  0  0  0  0  0  0  0  0  0  0
   -0.4997   -2.9426    1.0194 O   0  0  0  0  0  0  0  0  0  0  0  0
   -1.1198   -0.9926    0.0674 N   0  0  0  0  0  0  0  0  0  0  0  0
   -1.8978   -0.4486   -0.2716 H   0  0  0  0  0  0  0  0  0  0  0  0
    0.1693   -0.2866    0.0854 C   0  0  1  0  0  0  0  0  0  0  0  0
    0.8425   -0.7905    0.7811 H   0  0  0  0  0  0  0  0  0  0  0  0
    0.7993   -0.3404   -1.3233 C   0  0  0  0  0  0  0  0  0  0  0  0
    1.4117    0.5515   -1.4674 H   0  0  0  0  0  0  0  0  0  0  0  0
    1.4581   -1.2095   -1.3812 H   0  0  0  0  0  0  0  0  0  0  0  0
   -0.2169   -0.3972   -2.4746 C   0  0  0  0  0  0  0  0  0  0  0  0
   -1.4391   -0.3958   -2.1955 O   0  5  0  0  0  0  0  0  0  0  0  0
    0.2433   -0.4616   -3.6348 O   0  0  0  0  0  0  0  0  0  0  0  0
   -0.0374    1.1645    0.5781 C   0  0  0  0  0  0  0  0  0  0  0  0
   -0.9816    1.8416    0.1544 O   0  0  0  0  0  0  0  0  0  0  0  0
    0.8235    1.6462    1.4801 N   0  0  0  0  0  0  0  0  0  0  0  0
    1.6183    1.0435    1.7020 H   0  0  0  0  0  0  0  0  0  0  0  0
    0.7895    2.9929    2.0404 C   0  0  0  0  0  0  0  0  0  0  0  0
   -0.2344    3.2522    2.3130 H   0  0  0  0  0  0  0  0  0  0  0  0
    1.4265    3.0377    2.9233 H   0  0  0  0  0  0  0  0  0  0  0  0
    1.1511    3.7014    1.2950 H   0  0  0  0  0  0  0  0  0  0  0  0
  5  6  2  0  0  0  0
  5  7  1  0  0  0  0
  2  3  1  0  0  0  0
  2  4  1  0  0  0  0
  2  5  1  0  0  0  0
  1  2  1  0  0  0  0
 17 18  2  0  0  0  0
 17 19  1  0  0  0  0
 14 15  1  0  0  0  0
 14 16  2  0  0  0  0
 11 12  1  0  0  0  0
 11 13  1  0  0  0  0
 11 14  1  0  0  0  0
  9 10  1  0  0  0  0
  9 11  1  0  0  0  0
  9 17  1  0  0  0  0
  7  8  1  0  0  0  0
  7  9  1  0  0  0  0
 21 22  1  0  0  0  0
 21 23  1  0  0  0  0
 21 24  1  0  0  0  0
 19 20  1  0  0  0  0
 19 21  1  0  0  0  0
M  CHG  1  15  -1
M  END
$$$$
default_name
  -OEChem-02102213163D

 24 23  0     1  0  0  0  0  0999 V2000
   -2.8347   -3.7166    0.8034 H   0  0  0  0  0  0  0  0  0  0  0  0
   -2.7728   -2.7096    0.3954 C   0  0  0  0  0  0  0  0  0  0  0  0
   -3.4267   -2.0426    0.9524 H   0  0  0  0  0  0  0  0  0  0  0  0
   -3.0538   -2.7186   -0.6556 H   0  0  0  0  0  0  0  0  0  0  0  0
   -1.3498   -2.2206    0.5184 C   0  0  0  0  0  0  0  0  0  0  0  0
   -0.4997   -2.9426    1.0194 O   0  0  0  0  0  0  0  0  0  0  0  0
   -1.1198   -0.9926    0.0674 N   0  0  0  0  0  0  0  0  0  0  0  0
   -1.8978   -0.4486   -0.2716 H   0  0  0  0  0  0  0  0  0  0  0  0
    0.1693   -0.2866    0.0854 C   0  0  1  0  0  0  0  0  0  0  0  0
    0.8425   -0.7905    0.7811 H   0  0  0  0  0  0  0  0  0  0  0  0
    0.7993   -0.3404   -1.3233 C   0  0  0  0  0  0  0  0  0  0  0  0
    1.4117    0.5515   -1.4674 H   0  0  0  0  0  0  0  0  0  0  0  0
    1.4581   -1.2095   -1.3812 H   0  0  0  0  0  0  0  0  0  0  0  0
   -0.2169   -0.3972   -2.4746 C   0  0  0  0  0  0  0  0  0  0  0  0
   -1.4133   -0.1119   -2.2322 O   0  5  0  0  0  0  0  0  0  0  0  0
    0.2135   -0.7479   -3.5944 O   0  0  0  0  0  0  0  0  0  0  0  0
   -0.0374    1.1645    0.5781 C   0  0  0  0  0  0  0  0  0  0  0  0
   -0.9816    1.8416    0.1544 O   0  0  0  0  0  0  0  0  0  0  0  0
    0.8235    1.6462    1.4801 N   0  0  0  0  0  0  0  0  0  0  0  0
    1.6183    1.0435    1.7020 H   0  0  0  0  0  0  0  0  0  0  0  0
    0.7895    2.9929    2.0404 C   0  0  0  0  0  0  0  0  0  0  0  0
   -0.2344    3.2522    2.3130 H   0  0  0  0  0  0  0  0  0  0  0  0
    1.4265    3.0377    2.9233 H   0  0  0  0  0  0  0  0  0  0  0  0
    1.1511    3.7014    1.2950 H   0  0  0  0  0  0  0  0  0  0  0  0
  5  6  2  0  0  0  0
  5  7  1  0  0  0  0
  2  3  1  0  0  0  0
  2  4  1  0  0  0  0
  2  5  1  0  0  0  0
  1  2  1  0  0  0  0
 17 18  2  0  0  0  0
 17 19  1  0  0  0  0
 14 15  1  0  0  0  0
 14 16  2  0  0  0  0
 11 12  1  0  0  0  0
 11 13  1  0  0  0  0
 11 14  1  0  0  0  0
  9 10  1  0  0  0  0
  9 11  1  0  0  0  0
  9 17  1  0  0  0  0
  7  8  1  0  0  0  0
  7  9  1  0  0  0  0
 21 22  1  0  0  0  0
 21 23  1  0  0  0  0
 21 24  1  0  0  0  0
 19 20  1  0  0  0  0
 19 21  1  0  0  0  0
M  CHG  1  15  -1
M  END
$$$$
default_name
  -OEChem-02102213163D

 24 23  0     1  0  0  0  0  0999 V2000
   -2.8347   -3.7166    0.8034 H   0  0  0  0  0  0  0  0  0  0  0  0
   -2.7728   -2.7096    0.3954 C   0  0  0  0  0  0  0  0  0  0  0  0
   -3.4267   -2.0426    0.9524 H   0  0  0  0  0  0  0  0  0  0  0  0
   -3.0538   -2.7186   -0.6556 H   0  0  0  0  0  0  0  0  0  0  0  0
   -1.3498   -2.2206    0.5184 C   0  0  0  0  0  0  0  0  0  0  0  0
   -0.4997   -2.9426    1.0194 O   0  0  0  0  0  0  0  0  0  0  0  0
   -1.1198   -0.9926    0.0674 N   0  0  0  0  0  0  0  0  0  0  0  0
   -1.8978   -0.4486   -0.2716 H   0  0  0  0  0  0  0  0  0  0  0  0
    0.1693   -0.2866    0.0854 C   0  0  1  0  0  0  0  0  0  0  0  0
    0.8425   -0.7905    0.7811 H   0  0  0  0  0  0  0  0  0  0  0  0
    0.7993   -0.3404   -1.3233 C   0  0  0  0  0  0  0  0  0  0  0  0
    1.4117    0.5515   -1.4674 H   0  0  0  0  0  0  0  0  0  0  0  0
    1.4581   -1.2095   -1.3812 H   0  0  0  0  0  0  0  0  0  0  0  0
   -0.2169   -0.3972   -2.4746 C   0  0  0  0  0  0  0  0  0  0  0  0
   -1.3330    0.1512   -2.3161 O   0  5  0  0  0  0  0  0  0  0  0  0
    0.1288   -1.0118   -3.5065 O   0  0  0  0  0  0  0  0  0  0  0  0
   -0.0374    1.1645    0.5781 C   0  0  0  0  0  0  0  0  0  0  0  0
   -0.9816    1.8416    0.1544 O   0  0  0  0  0  0  0  0  0  0  0  0
    0.8235    1.6462    1.4801 N   0  0  0  0  0  0  0  0  0  0  0  0
    1.6183    1.0435    1.7020 H   0  0  0  0  0  0  0  0  0  0  0  0
    0.7895    2.9929    2.0404 C   0  0  0  0  0  0  0  0  0  0  0  0
   -0.2344    3.2522    2.3130 H   0  0  0  0  0  0  0  0  0  0  0  0
    1.4265    3.0377    2.9233 H   0  0  0  0  0  0  0  0  0  0  0  0
    1.1511    3.7014    1.2950 H   0  0  0  0  0  0  0  0  0  0  0  0
  5  6  2  0  0  0  0
  5  7  1  0  0  0  0
  2  3  1  0  0  0  0
  2  4  1  0  0  0  0
  2  5  1  0  0  0  0
  1  2  1  0  0  0  0
 17 18  2  0  0  0  0
 17 19  1  0  0  0  0
 14 15  1  0  0  0  0
 14 16  2  0  0  0  0
 11 12  1  0  0  0  0
 11 13  1  0  0  0  0
 11 14  1  0  0  0  0
  9 10  1  0  0  0  0
  9 11  1  0  0  0  0
  9 17  1  0  0  0  0
  7  8  1  0  0  0  0
  7  9  1  0  0  0  0
 21 22  1  0  0  0  0
 21 23  1  0  0  0  0
 21 24  1  0  0  0  0
 19 20  1  0  0  0  0
 19 21  1  0  0  0  0
M  CHG  1  15  -1
M  END
$$$$
default_name
  -OEChem-02102213163D

 24 23  0     1  0  0  0  0  0999 V2000
   -2.8347   -3.7166    0.8034 H   0  0  0  0  0  0  0  0  0  0  0  0
   -2.7728   -2.7096    0.3954 C   0  0  0  0  0  0  0  0  0  0  0  0
   -3.4267   -2.0426    0.9524 H   0  0  0  0  0  0  0  0  0  0  0  0
   -3.0538   -2.7186   -0.6556 H   0  0  0  0  0  0  0  0  0  0  0  0
   -1.3498   -2.2206    0.5184 C   0  0  0  0  0  0  0  0  0  0  0  0
   -0.4997   -2.9426    1.0194 O   0  0  0  0  0  0  0  0  0  0  0  0
   -1.1198   -0.9926    0.0674 N   0  0  0  0  0  0  0  0  0  0  0  0
   -1.8978   -0.4486   -0.2716 H   0  0  0  0  0  0  0  0  0  0  0  0
    0.1693   -0.2866    0.0854 C   0  0  1  0  0  0  0  0  0  0  0  0
    0.8425   -0.7905    0.7811 H   0  0  0  0  0  0  0  0  0  0  0  0
    0.7993   -0.3404   -1.3233 C   0  0  0  0  0  0  0  0  0  0  0  0
    1.4117    0.5515   -1.4674 H   0  0  0  0  0  0  0  0  0  0  0  0
    1.4581   -1.2095   -1.3812 H   0  0  0  0  0  0  0  0  0  0  0  0
   -0.2169   -0.3972   -2.4746 C   0  0  0  0  0  0  0  0  0  0  0  0
   -1.2037    0.3753   -2.4413 O   0  5  0  0  0  0  0  0  0  0  0  0
   -0.0051   -1.2352   -3.3774 O   0  0  0  0  0  0  0  0  0  0  0  0
   -0.0374    1.1645    0.5781 C   0  0  0  0  0  0  0  0  0  0  0  0
   -0.9816    1.8416    0.1544 O   0  0  0  0  0  0  0  0  0  0  0  0
    0.8235    1.6462    1.4801 N   0  0  0  0  0  0  0  0  0  0  0  0
    1.6183    1.0435    1.7020 H   0  0  0  0  0  0  0  0  0  0  0  0
    0.7895    2.9929    2.0404 C   0  0  0  0  0  0  0  0  0  0  0  0
   -0.2344    3.2522    2.3130 H   0  0  0  0  0  0  0  0  0  0  0  0
    1.4265    3.0377    2.9233 H   0  0  0  0  0  0  0  0  0  0  0  0
    1.1511    3.7014    1.2950 H   0  0  0  0  0  0  0  0  0  0  0  0
  5  6  2  0  0  0  0
  5  7  1  0  0  0  0
  2  3  1  0  0  0  0
  2  4  1  0  0  0  0
  2  5  1  0  0  0  0
  1  2  1  0  0  0  0
 17 18  2  0  0  0  0
 17 19  1  0  0  0  0
 14 15  1  0  0  0  0
 14 16  2  0  0  0  0
 11 12  1  0  0  0  0
 11 13  1  0  0  0  0
 11 14  1  0  0  0  0
  9 10  1  0  0  0  0
  9 11  1  0  0  0  0
  9 17  1  0  0  0  0
  7  8  1  0  0  0  0
  7  9  1  0  0  0  0
 21 22  1  0  0  0  0
 21 23  1  0  0  0  0
 21 24  1  0  0  0  0
 19 20  1  0  0  0  0
 19 21  1  0  0  0  0
M  CHG  1  15  -1
M  END
$$$$
default_name
  -OEChem-02102213163D

 24 23  0     1  0  0  0  0  0999 V2000
   -2.8347   -3.7166    0.8034 H   0  0  0  0  0  0  0  0  0  0  0  0
   -2.7728   -2.7096    0.3954 C   0  0  0  0  0  0  0  0  0  0  0  0
   -3.4267   -2.0426    0.9524 H   0  0  0  0  0  0  0  0  0  0  0  0
   -3.0538   -2.7186   -0.6556 H   0  0  0  0  0  0  0  0  0  0  0  0
   -1.3498   -2.2206    0.5184 C   0  0  0  0  0  0  0  0  0  0  0  0
   -0.4997   -2.9426    1.0194 O   0  0  0  0  0  0  0  0  0  0  0  0
   -1.1198   -0.9926    0.0674 N   0  0  0  0  0  0  0  0  0  0  0  0
   -1.8978   -0.4486   -0.2716 H   0  0  0  0  0  0  0  0  0  0  0  0
    0.1693   -0.2866    0.0854 C   0  0  1  0  0  0  0  0  0  0  0  0
    0.8425   -0.7905    0.7811 H   0  0  0  0  0  0  0  0  0  0  0  0
    0.7993   -0.3404   -1.3233 C   0  0  0  0  0  0  0  0  0  0  0  0
    1.4117    0.5515   -1.4674 H   0  0  0  0  0  0  0  0  0  0  0  0
    1.4581   -1.2095   -1.3812 H   0  0  0  0  0  0  0  0  0  0  0  0
   -0.2169   -0.3972   -2.4746 C   0  0  0  0  0  0  0  0  0  0  0  0
   -1.0341    0.5453   -2.5994 O   0  5  0  0  0  0  0  0  0  0  0  0
   -0.1790   -1.4030   -3.2156 O   0  0  0  0  0  0  0  0  0  0  0  0
   -0.0374    1.1645    0.5781 C   0  0  0  0  0  0  0  0  0  0  0  0
   -0.9816    1.8416    0.1544 O   0  0  0  0  0  0  0  0  0  0  0  0
    0.8235    1.6462    1.4801 N   0  0  0  0  0  0  0  0  0  0  0  0
    1.6183    1.0435    1.7020 H   0  0  0  0  0  0  0  0  0  0  0  0
    0.7895    2.9929    2.0404 C   0  0  0  0  0  0  0  0  0  0  0  0
   -0.2344    3.2522    2.3130 H   0  0  0  0  0  0  0  0  0  0  0  0
    1.4265    3.0377    2.9233 H   0  0  0  0  0  0  0  0  0  0  0  0
    1.1511    3.7014    1.2950 H   0  0  0  0  0  0  0  0  0  0  0  0
  5  6  2  0  0  0  0
  5  7  1  0  0  0  0
  2  3  1  0  0  0  0
  2  4  1  0  0  0  0
  2  5  1  0  0  0  0
  1  2  1  0  0  0  0
 17 18  2  0  0  0  0
 17 19  1  0  0  0  0
 14 15  1  0  0  0  0
 14 16  2  0  0  0  0
 11 12  1  0  0  0  0
 11 13  1  0  0  0  0
 11 14  1  0  0  0  0
  9 10  1  0  0  0  0
  9 11  1  0  0  0  0
  9 17  1  0  0  0  0
  7  8  1  0  0  0  0
  7  9  1  0  0  0  0
 21 22  1  0  0  0  0
 21 23  1  0  0  0  0
 21 24  1  0  0  0  0
 19 20  1  0  0  0  0
 19 21  1  0  0  0  0
M  CHG  1  15  -1
M  END
$$$$
default_name
  -OEChem-02102213163D

 24 23  0     1  0  0  0  0  0999 V2000
   -2.8347   -3.7166    0.8034 H   0  0  0  0  0  0  0  0  0  0  0  0
   -2.7728   -2.7096    0.3954 C   0  0  0  0  0  0  0  0  0  0  0  0
   -3.4267   -2.0426    0.9524 H   0  0  0  0  0  0  0  0  0  0  0  0
   -3.0538   -2.7186   -0.6556 H   0  0  0  0  0  0  0  0  0  0  0  0
   -1.3498   -2.2206    0.5184 C   0  0  0  0  0  0  0  0  0  0  0  0
   -0.4997   -2.9426    1.0194 O   0  0  0  0  0  0  0  0  0  0  0  0
   -1.1198   -0.9926    0.0674 N   0  0  0  0  0  0  0  0  0  0  0  0
   -1.8978   -0.4486   -0.2716 H   0  0  0  0  0  0  0  0  0  0  0  0
    0.1693   -0.2866    0.0854 C   0  0  1  0  0  0  0  0  0  0  0  0
    0.8425   -0.7905    0.7811 H   0  0  0  0  0  0  0  0  0  0  0  0
    0.7993   -0.3404   -1.3233 C   0  0  0  0  0  0  0  0  0  0  0  0
    1.4117    0.5515   -1.4674 H   0  0  0  0  0  0  0  0  0  0  0  0
    1.4581   -1.2095   -1.3812 H   0  0  0  0  0  0  0  0  0  0  0  0
   -0.2169   -0.3972   -2.4746 C   0  0  0  0  0  0  0  0  0  0  0  0
   -0.8358    0.6495   -2.7796 O   0  5  0  0  0  0  0  0  0  0  0  0
   -0.3810   -1.5036   -3.0323 O   0  0  0  0  0  0  0  0  0  0  0  0
   -0.0374    1.1645    0.5781 C   0  0  0  0  0  0  0  0  0  0  0  0
   -0.9816    1.8416    0.1544 O   0  0  0  0  0  0  0  0  0  0  0  0
    0.8235    1.6462    1.4801 N   0  0  0  0  0  0  0  0  0  0  0  0
    1.6183    1.0435    1.7020 H   0  0  0  0  0  0  0  0  0  0  0  0
    0.7895    2.9929    2.0404 C   0  0  0  0  0  0  0  0  0  0  0  0
   -0.2344    3.2522    2.3130 H   0  0  0  0  0  0  0  0  0  0  0  0
    1.4265    3.0377    2.9233 H   0  0  0  0  0  0  0  0  0  0  0  0
    1.1511    3.7014    1.2950 H   0  0  0  0  0  0  0  0  0  0  0  0
  5  6  2  0  0  0  0
  5  7  1  0  0  0  0
  2  3  1  0  0  0  0
  2  4  1  0  0  0  0
  2  5  1  0  0  0  0
  1  2  1  0  0  0  0
 17 18  2  0  0  0  0
 17 19  1  0  0  0  0
 14 15  1  0  0  0  0
 14 16  2  0  0  0  0
 11 12  1  0  0  0  0
 11 13  1  0  0  0  0
 11 14  1  0  0  0  0
  9 10  1  0  0  0  0
  9 11  1  0  0  0  0
  9 17  1  0  0  0  0
  7  8  1  0  0  0  0
  7  9  1  0  0  0  0
 21 22  1  0  0  0  0
 21 23  1  0  0  0  0
 21 24  1  0  0  0  0
 19 20  1  0  0  0  0
 19 21  1  0  0  0  0
M  CHG  1  15  -1
M  END
$$$$
default_name
  -OEChem-02102213163D

 24 23  0     1  0  0  0  0  0999 V2000
   -2.8347   -3.7166    0.8034 H   0  0  0  0  0  0  0  0  0  0  0  0
   -2.7728   -2.7096    0.3954 C   0  0  0  0  0  0  0  0  0  0  0  0
   -3.4267   -2.0426    0.9524 H   0  0  0  0  0  0  0  0  0  0  0  0
   -3.0538   -2.7186   -0.6556 H   0  0  0  0  0  0  0  0  0  0  0  0
   -1.3498   -2.2206    0.5184 C   0  0  0  0  0  0  0  0  0  0  0  0
   -0.4997   -2.9426    1.0194 O   0  0  0  0  0  0  0  0  0  0  0  0
   -1.1198   -0.9926    0.0674 N   0  0  0  0  0  0  0  0  0  0  0  0
   -1.8978   -0.4486   -0.2716 H   0  0  0  0  0  0  0  0  0  0  0  0
    0.1693   -0.2866    0.0854 C   0  0  1  0  0  0  0  0  0  0  0  0
    0.8425   -0.7905    0.7811 H   0  0  0  0  0  0  0  0  0  0  0  0
    0.7993   -0.3404   -1.3233 C   0  0  0  0  0  0  0  0  0  0  0  0
    1.4117    0.5515   -1.4674 H   0  0  0  0  0  0  0  0  0  0  0  0
    1.4581   -1.2095   -1.3812 H   0  0  0  0  0  0  0  0  0  0  0  0
   -0.2169   -0.3972   -2.4746 C   0  0  0  0  0  0  0  0  0  0  0  0
   -0.6223    0.6809   -2.9695 O   0  5  0  0  0  0  0  0  0  0  0  0
   -0.5974   -1.5303   -2.8400 O   0  0  0  0  0  0  0  0  0  0  0  0
   -0.0374    1.1645    0.5781 C   0  0  0  0  0  0  0  0  0  0  0  0
   -0.9816    1.8416    0.1544 O   0  0  0  0  0  0  0  0  0  0  0  0
    0.8235    1.6462    1.4801 N   0  0  0  0  0  0  0  0  0  0  0  0
    1.6183    1.0435    1.7020 H   0  0  0  0  0  0  0  0  0  0  0  0
    0.7895    2.9929    2.0404 C   0  0  0  0  0  0  0  0  0  0  0  0
   -0.2344    3.2522    2.3130 H   0  0  0  0  0  0  0  0  0  0  0  0
    1.4265    3.0377    2.9233 H   0  0  0  0  0  0  0  0  0  0  0  0
    1.1511    3.7014    1.2950 H   0  0  0  0  0  0  0  0  0  0  0  0
  5  6  2  0  0  0  0
  5  7  1  0  0  0  0
  2  3  1  0  0  0  0
  2  4  1  0  0  0  0
  2  5  1  0  0  0  0
  1  2  1  0  0  0  0
 17 18  2  0  0  0  0
 17 19  1  0  0  0  0
 14 15  1  0  0  0  0
 14 16  2  0  0  0  0
 11 12  1  0  0  0  0
 11 13  1  0  0  0  0
 11 14  1  0  0  0  0
  9 10  1  0  0  0  0
  9 11  1  0  0  0  0
  9 17  1  0  0  0  0
  7  8  1  0  0  0  0
  7  9  1  0  0  0  0
 21 22  1  0  0  0  0
 21 23  1  0  0  0  0
 21 24  1  0  0  0  0
 19 20  1  0  0  0  0
 19 21  1  0  0  0  0
M  CHG  1  15  -1
M  END
$$$$
default_name
  -OEChem-02102213163D

 24 23  0     1  0  0  0  0  0999 V2000
   -2.8347   -3.7166    0.8034 H   0  0  0  0  0  0  0  0  0  0  0  0
   -2.7728   -2.7096    0.3954 C   0  0  0  0  0  0  0  0  0  0  0  0
   -3.4267   -2.0426    0.9524 H   0  0  0  0  0  0  0  0  0  0  0  0
   -3.0538   -2.7186   -0.6556 H   0  0  0  0  0  0  0  0  0  0  0  0
   -1.3498   -2.2206    0.5184 C   0  0  0  0  0  0  0  0  0  0  0  0
   -0.4997   -2.9426    1.0194 O   0  0  0  0  0  0  0  0  0  0  0  0
   -1.1198   -0.9926    0.0674 N   0  0  0  0  0  0  0  0  0  0  0  0
   -1.8978   -0.4486   -0.2716 H   0  0  0  0  0  0  0  0  0  0  0  0
    0.1693   -0.2866    0.0854 C   0  0  1  0  0  0  0  0  0  0  0  0
    0.8425   -0.7905    0.7811 H   0  0  0  0  0  0  0  0  0  0  0  0
    0.7993   -0.3404   -1.3233 C   0  0  0  0  0  0  0  0  0  0  0  0
    1.4117    0.5515   -1.4674 H   0  0  0  0  0  0  0  0  0  0  0  0
    1.4581   -1.2095   -1.3812 H   0  0  0  0  0  0  0  0  0  0  0  0
   -0.2169   -0.3972   -2.4746 C   0  0  0  0  0  0  0  0  0  0  0  0
   -0.4082    0.6373   -3.1564 O   0  5  0  0  0  0  0  0  0  0  0  0
   -0.8134   -1.4811   -2.6518 O   0  0  0  0  0  0  0  0  0  0  0  0
   -0.0374    1.1645    0.5781 C   0  0  0  0  0  0  0  0  0  0  0  0
   -0.9816    1.8416    0.1544 O   0  0  0  0  0  0  0  0  0  0  0  0
    0.8235    1.6462    1.4801 N   0  0  0  0  0  0  0  0  0  0  0  0
    1.6183    1.0435    1.7020 H   0  0  0  0  0  0  0  0  0  0  0  0
    0.7895    2.9929    2.0404 C   0  0  0  0  0  0  0  0  0  0  0  0
   -0.2344    3.2522    2.3130 H   0  0  0  0  0  0  0  0  0  0  0  0
    1.4265    3.0377    2.9233 H   0  0  0  0  0  0  0  0  0  0  0  0
    1.1511    3.7014    1.2950 H   0  0  0  0  0  0  0  0  0  0  0  0
  5  6  2  0  0  0  0
  5  7  1  0  0  0  0
  2  3  1  0  0  0  0
  2  4  1  0  0  0  0
  2  5  1  0  0  0  0
  1  2  1  0  0  0  0
 17 18  2  0  0  0  0
 17 19  1  0  0  0  0
 14 15  1  0  0  0  0
 14 16  2  0  0  0  0
 11 12  1  0  0  0  0
 11 13  1  0  0  0  0
 11 14  1  0  0  0  0
  9 10  1  0  0  0  0
  9 11  1  0  0  0  0
  9 17  1  0  0  0  0
  7  8  1  0  0  0  0
  7  9  1  0  0  0  0
 21 22  1  0  0  0  0
 21 23  1  0  0  0  0
 21 24  1  0  0  0  0
 19 20  1  0  0  0  0
 19 21  1  0  0  0  0
M  CHG  1  15  -1
M  END
$$$$
default_name
  -OEChem-02102213163D

 24 23  0     1  0  0  0  0  0999 V2000
   -2.8347   -3.7166    0.8034 H   0  0  0  0  0  0  0  0  0  0  0  0
   -2.7728   -2.7096    0.3954 C   0  0  0  0  0  0  0  0  0  0  0  0
   -3.4267   -2.0426    0.9524 H   0  0  0  0  0  0  0  0  0  0  0  0
   -3.0538   -2.7186   -0.6556 H   0  0  0  0  0  0  0  0  0  0  0  0
   -1.3498   -2.2206    0.5184 C   0  0  0  0  0  0  0  0  0  0  0  0
   -0.4997   -2.9426    1.0194 O   0  0  0  0  0  0  0  0  0  0  0  0
   -1.1198   -0.9926    0.0674 N   0  0  0  0  0  0  0  0  0  0  0  0
   -1.8978   -0.4486   -0.2716 H   0  0  0  0  0  0  0  0  0  0  0  0
    0.1693   -0.2866    0.0854 C   0  0  1  0  0  0  0  0  0  0  0  0
    0.8425   -0.7905    0.7811 H   0  0  0  0  0  0  0  0  0  0  0  0
    0.7993   -0.3404   -1.3233 C   0  0  0  0  0  0  0  0  0  0  0  0
    1.4117    0.5515   -1.4674 H   0  0  0  0  0  0  0  0  0  0  0  0
    1.4581   -1.2095   -1.3812 H   0  0  0  0  0  0  0  0  0  0  0  0
   -0.2169   -0.3972   -2.4746 C   0  0  0  0  0  0  0  0  0  0  0  0
   -0.2081    0.5217   -3.3273 O   0  5  0  0  0  0  0  0  0  0  0  0
   -1.0144   -1.3596   -2.4804 O   0  0  0  0  0  0  0  0  0  0  0  0
   -0.0374    1.1645    0.5781 C   0  0  0  0  0  0  0  0  0  0  0  0
   -0.9816    1.8416    0.1544 O   0  0  0  0  0  0  0  0  0  0  0  0
    0.8235    1.6462    1.4801 N   0  0  0  0  0  0  0  0  0  0  0  0
    1.6183    1.0435    1.7020 H   0  0  0  0  0  0  0  0  0  0  0  0
    0.7895    2.9929    2.0404 C   0  0  0  0  0  0  0  0  0  0  0  0
   -0.2344    3.2522    2.3130 H   0  0  0  0  0  0  0  0  0  0  0  0
    1.4265    3.0377    2.9233 H   0  0  0  0  0  0  0  0  0  0  0  0
    1.1511    3.7014    1.2950 H   0  0  0  0  0  0  0  0  0  0  0  0
  5  6  2  0  0  0  0
  5  7  1  0  0  0  0
  2  3  1  0  0  0  0
  2  4  1  0  0  0  0
  2  5  1  0  0  0  0
  1  2  1  0  0  0  0
 17 18  2  0  0  0  0
 17 19  1  0  0  0  0
 14 15  1  0  0  0  0
 14 16  2  0  0  0  0
 11 12  1  0  0  0  0
 11 13  1  0  0  0  0
 11 14  1  0  0  0  0
  9 10  1  0  0  0  0
  9 11  1  0  0  0  0
  9 17  1  0  0  0  0
  7  8  1  0  0  0  0
  7  9  1  0  0  0  0
 21 22  1  0  0  0  0
 21 23  1  0  0  0  0
 21 24  1  0  0  0  0
 19 20  1  0  0  0  0
 19 21  1  0  0  0  0
M  CHG  1  15  -1
M  END
$$$$
default_name
  -OEChem-02102213163D

 24 23  0     1  0  0  0  0  0999 V2000
   -2.8347   -3.7166    0.8034 H   0  0  0  0  0  0  0  0  0  0  0  0
   -2.7728   -2.7096    0.3954 C   0  0  0  0  0  0  0  0  0  0  0  0
   -3.4267   -2.0426    0.9524 H   0  0  0  0  0  0  0  0  0  0  0  0
   -3.0538   -2.7186   -0.6556 H   0  0  0  0  0  0  0  0  0  0  0  0
   -1.3498   -2.2206    0.5184 C   0  0  0  0  0  0  0  0  0  0  0  0
   -0.4997   -2.9426    1.0194 O   0  0  0  0  0  0  0  0  0  0  0  0
   -1.1198   -0.9926    0.0674 N   0  0  0  0  0  0  0  0  0  0  0  0
   -1.8978   -0.4486   -0.2716 H   0  0  0  0  0  0  0  0  0  0  0  0
    0.1693   -0.2866    0.0854 C   0  0  1  0  0  0  0  0  0  0  0  0
    0.8425   -0.7905    0.7811 H   0  0  0  0  0  0  0  0  0  0  0  0
    0.7993   -0.3404   -1.3233 C   0  0  0  0  0  0  0  0  0  0  0  0
    1.4117    0.5515   -1.4674 H   0  0  0  0  0  0  0  0  0  0  0  0
    1.4581   -1.2095   -1.3812 H   0  0  0  0  0  0  0  0  0  0  0  0
   -0.2169   -0.3972   -2.4746 C   0  0  0  0  0  0  0  0  0  0  0  0
   -0.0355    0.3420   -3.4708 O   0  5  0  0  0  0  0  0  0  0  0  0
   -1.1865   -1.1739   -2.3376 O   0  0  0  0  0  0  0  0  0  0  0  0
   -0.0374    1.1645    0.5781 C   0  0  0  0  0  0  0  0  0  0  0  0
   -0.9816    1.8416    0.1544 O   0  0  0  0  0  0  0  0  0  0  0  0
    0.8235    1.6462    1.4801 N   0  0  0  0  0  0  0  0  0  0  0  0
    1.6183    1.0435    1.7020 H   0  0  0  0  0  0  0  0  0  0  0  0
    0.7895    2.9929    2.0404 C   0  0  0  0  0  0  0  0  0  0  0  0
   -0.2344    3.2522    2.3130 H   0  0  0  0  0  0  0  0  0  0  0  0
    1.4265    3.0377    2.9233 H   0  0  0  0  0  0  0  0  0  0  0  0
    1.1511    3.7014    1.2950 H   0  0  0  0  0  0  0  0  0  0  0  0
  5  6  2  0  0  0  0
  5  7  1  0  0  0  0
  2  3  1  0  0  0  0
  2  4  1  0  0  0  0
  2  5  1  0  0  0  0
  1  2  1  0  0  0  0
 17 18  2  0  0  0  0
 17 19  1  0  0  0  0
 14 15  1  0  0  0  0
 14 16  2  0  0  0  0
 11 12  1  0  0  0  0
 11 13  1  0  0  0  0
 11 14  1  0  0  0  0
  9 10  1  0  0  0  0
  9 11  1  0  0  0  0
  9 17  1  0  0  0  0
  7  8  1  0  0  0  0
  7  9  1  0  0  0  0
 21 22  1  0  0  0  0
 21 23  1  0  0  0  0
 21 24  1  0  0  0  0
 19 20  1  0  0  0  0
 19 21  1  0  0  0  0
M  CHG  1  15  -1
M  END
$$$$
default_name
  -OEChem-02102213163D

 24 23  0     1  0  0  0  0  0999 V2000
   -2.8347   -3.7166    0.8034 H   0  0  0  0  0  0  0  0  0  0  0  0
   -2.7728   -2.7096    0.3954 C   0  0  0  0  0  0  0  0  0  0  0  0
   -3.4267   -2.0426    0.9524 H   0  0  0  0  0  0  0  0  0  0  0  0
   -3.0538   -2.7186   -0.6556 H   0  0  0  0  0  0  0  0  0  0  0  0
   -1.3498   -2.2206    0.5184 C   0  0  0  0  0  0  0  0  0  0  0  0
   -0.4997   -2.9426    1.0194 O   0  0  0  0  0  0  0  0  0  0  0  0
   -1.1198   -0.9926    0.0674 N   0  0  0  0  0  0  0  0  0  0  0  0
   -1.8978   -0.4486   -0.2716 H   0  0  0  0  0  0  0  0  0  0  0  0
    0.1693   -0.2866    0.0854 C   0  0  1  0  0  0  0  0  0  0  0  0
    0.8425   -0.7905    0.7811 H   0  0  0  0  0  0  0  0  0  0  0  0
    0.7993   -0.3404   -1.3233 C   0  0  0  0  0  0  0  0  0  0  0  0
    1.4117    0.5515   -1.4674 H   0  0  0  0  0  0  0  0  0  0  0  0
    1.4581   -1.2095   -1.3812 H   0  0  0  0  0  0  0  0  0  0  0  0
   -0.2169   -0.3972   -2.4746 C   0  0  0  0  0  0  0  0  0  0  0  0
    0.0977    0.1104   -3.5769 O   0  5  0  0  0  0  0  0  0  0  0  0
   -1.3182   -0.9366   -2.2331 O   0  0  0  0  0  0  0  0  0  0  0  0
   -0.0374    1.1645    0.5781 C   0  0  0  0  0  0  0  0  0  0  0  0
   -0.9816    1.8416    0.1544 O   0  0  0  0  0  0  0  0  0  0  0  0
    0.8235    1.6462    1.4801 N   0  0  0  0  0  0  0  0  0  0  0  0
    1.6183    1.0435    1.7020 H   0  0  0  0  0  0  0  0  0  0  0  0
    0.7895    2.9929    2.0404 C   0  0  0  0  0  0  0  0  0  0  0  0
   -0.2344    3.2522    2.3130 H   0  0  0  0  0  0  0  0  0  0  0  0
    1.4265    3.0377    2.9233 H   0  0  0  0  0  0  0  0  0  0  0  0
    1.1511    3.7014    1.2950 H   0  0  0  0  0  0  0  0  0  0  0  0
  5  6  2  0  0  0  0
  5  7  1  0  0  0  0
  2  3  1  0  0  0  0
  2  4  1  0  0  0  0
  2  5  1  0  0  0  0
  1  2  1  0  0  0  0
 17 18  2  0  0  0  0
 17 19  1  0  0  0  0
 14 15  1  0  0  0  0
 14 16  2  0  0  0  0
 11 12  1  0  0  0  0
 11 13  1  0  0  0  0
 11 14  1  0  0  0  0
  9 10  1  0  0  0  0
  9 11  1  0  0  0  0
  9 17  1  0  0  0  0
  7  8  1  0  0  0  0
  7  9  1  0  0  0  0
 21 22  1  0  0  0  0
 21 23  1  0  0  0  0
 21 24  1  0  0  0  0
 19 20  1  0  0  0  0
 19 21  1  0  0  0  0
M  CHG  1  15  -1
M  END
$$$$
default_name
  -OEChem-02102213163D

 24 23  0     1  0  0  0  0  0999 V2000
   -2.8347   -3.7166    0.8034 H   0  0  0  0  0  0  0  0  0  0  0  0
   -2.7728   -2.7096    0.3954 C   0  0  0  0  0  0  0  0  0  0  0  0
   -3.4267   -2.0426    0.9524 H   0  0  0  0  0  0  0  0  0  0  0  0
   -3.0538   -2.7186   -0.6556 H   0  0  0  0  0  0  0  0  0  0  0  0
   -1.3498   -2.2206    0.5184 C   0  0  0  0  0  0  0  0  0  0  0  0
   -0.4997   -2.9426    1.0194 O   0  0  0  0  0  0  0  0  0  0  0  0
   -1.1198   -0.9926    0.0674 N   0  0  0  0  0  0  0  0  0  0  0  0
   -1.8978   -0.4486   -0.2716 H   0  0  0  0  0  0  0  0  0  0  0  0
    0.1693   -0.2866    0.0854 C   0  0  1  0  0  0  0  0  0  0  0  0
    0.8425   -0.7905    0.7811 H   0  0  0  0  0  0  0  0  0  0  0  0
    0.7993   -0.3404   -1.3233 C   0  0  0  0  0  0  0  0  0  0  0  0
    1.4117    0.5515   -1.4674 H   0  0  0  0  0  0  0  0  0  0  0  0
    1.4581   -1.2095   -1.3812 H   0  0  0  0  0  0  0  0  0  0  0  0
   -0.2169   -0.3972   -2.4746 C   0  0  0  0  0  0  0  0  0  0  0  0
    0.1824   -0.1573   -3.6385 O   0  5  0  0  0  0  0  0  0  0  0  0
   -1.4003   -0.6641   -2.1740 O   0  0  0  0  0  0  0  0  0  0  0  0
   -0.0374    1.1645    0.5781 C   0  0  0  0  0  0  0  0  0  0  0  0
   -0.9816    1.8416    0.1544 O   0  0  0  0  0  0  0  0  0  0  0  0
    0.8235    1.6462    1.4801 N   0  0  0  0  0  0  0  0  0  0  0  0
    1.6183    1.0435    1.7020 H   0  0  0  0  0  0  0  0  0  0  0  0
    0.7895    2.9929    2.0404 C   0  0  0  0  0  0  0  0  0  0  0  0
   -0.2344    3.2522    2.3130 H   0  0  0  0  0  0  0  0  0  0  0  0
    1.4265    3.0377    2.9233 H   0  0  0  0  0  0  0  0  0  0  0  0
    1.1511    3.7014    1.2950 H   0  0  0  0  0  0  0  0  0  0  0  0
  5  6  2  0  0  0  0
  5  7  1  0  0  0  0
  2  3  1  0  0  0  0
  2  4  1  0  0  0  0
  2  5  1  0  0  0  0
  1  2  1  0  0  0  0
 17 18  2  0  0  0  0
 17 19  1  0  0  0  0
 14 15  1  0  0  0  0
 14 16  2  0  0  0  0
 11 12  1  0  0  0  0
 11 13  1  0  0  0  0
 11 14  1  0  0  0  0
  9 10  1  0  0  0  0
  9 11  1  0  0  0  0
  9 17  1  0  0  0  0
  7  8  1  0  0  0  0
  7  9  1  0  0  0  0
 21 22  1  0  0  0  0
 21 23  1  0  0  0  0
 21 24  1  0  0  0  0
 19 20  1  0  0  0  0
 19 21  1  0  0  0  0
M  CHG  1  15  -1
M  END
$$$$
default_name
  -OEChem-02102213163D

 24 23  0     1  0  0  0  0  0999 V2000
   -2.8347   -3.7166    0.8034 H   0  0  0  0  0  0  0  0  0  0  0  0
   -2.7728   -2.7096    0.3954 C   0  0  0  0  0  0  0  0  0  0  0  0
   -3.4267   -2.0426    0.9524 H   0  0  0  0  0  0  0  0  0  0  0  0
   -3.0538   -2.7186   -0.6556 H   0  0  0  0  0  0  0  0  0  0  0  0
   -1.3498   -2.2206    0.5184 C   0  0  0  0  0  0  0  0  0  0  0  0
   -0.4997   -2.9426    1.0194 O   0  0  0  0  0  0  0  0  0  0  0  0
   -1.1198   -0.9926    0.0674 N   0  0  0  0  0  0  0  0  0  0  0  0
   -1.8978   -0.4486   -0.2716 H   0  0  0  0  0  0  0  0  0  0  0  0
    0.1693   -0.2866    0.0854 C   0  0  1  0  0  0  0  0  0  0  0  0
    0.8425   -0.7905    0.7811 H   0  0  0  0  0  0  0  0  0  0  0  0
    0.7993   -0.3404   -1.3233 C   0  0  0  0  0  0  0  0  0  0  0  0
    1.6076    0.3913   -1.3736 H   0  0  0  0  0  0  0  0  0  0  0  0
    1.2359   -1.3298   -1.4760 H   0  0  0  0  0  0  0  0  0  0  0  0
   -0.1764   -0.0345   -2.4703 C   0  0  0  0  0  0  0  0  0  0  0  0
    0.2560   -0.0573   -3.6468 O   0  5  0  0  0  0  0  0  0  0  0  0
   -1.3541    0.2412   -2.1551 O   0  0  0  0  0  0  0  0  0  0  0  0
   -0.0374    1.1645    0.5781 C   0  0  0  0  0  0  0  0  0  0  0  0
   -0.9816    1.8416    0.1544 O   0  0  0  0  0  0  0  0  0  0  0  0
    0.8235    1.6462    1.4801 N   0  0  0  0  0  0  0  0  0  0  0  0
    1.6183    1.0435    1.7020 H   0  0  0  0  0  0  0  0  0  0  0  0
    0.7895    2.9929    2.0404 C   0  0  0  0  0  0  0  0  0  0  0  0
   -0.2344    3.2522    2.3130 H   0  0  0  0  0  0  0  0  0  0  0  0
    1.4265    3.0377    2.9233 H   0  0  0  0  0  0  0  0  0  0  0  0
    1.1511    3.7014    1.2950 H   0  0  0  0  0  0  0  0  0  0  0  0
  5  6  2  0  0  0  0
  5  7  1  0  0  0  0
  2  3  1  0  0  0  0
  2  4  1  0  0  0  0
  2  5  1  0  0  0  0
  1  2  1  0  0  0  0
 17 18  2  0  0  0  0
 17 19  1  0  0  0  0
 14 15  1  0  0  0  0
 14 16  2  0  0  0  0
 11 12  1  0  0  0  0
 11 13  1  0  0  0  0
 11 14  1  0  0  0  0
  9 10  1  0  0  0  0
  9 11  1  0  0  0  0
  9 17  1  0  0  0  0
  7  8  1  0  0  0  0
  7  9  1  0  0  0  0
 21 22  1  0  0  0  0
 21 23  1  0  0  0  0
 21 24  1  0  0  0  0
 19 20  1  0  0  0  0
 19 21  1  0  0  0  0
M  CHG  1  15  -1
M  END
$$$$
default_name
  -OEChem-02102213163D

 24 23  0     1  0  0  0  0  0999 V2000
   -2.8347   -3.7166    0.8034 H   0  0  0  0  0  0  0  0  0  0  0  0
   -2.7728   -2.7096    0.3954 C   0  0  0  0  0  0  0  0  0  0  0  0
   -3.4267   -2.0426    0.9524 H   0  0  0  0  0  0  0  0  0  0  0  0
   -3.0538   -2.7186   -0.6556 H   0  0  0  0  0  0  0  0  0  0  0  0
   -1.3498   -2.2206    0.5184 C   0  0  0  0  0  0  0  0  0  0  0  0
   -0.4997   -2.9426    1.0194 O   0  0  0  0  0  0  0  0  0  0  0  0
   -1.1198   -0.9926    0.0674 N   0  0  0  0  0  0  0  0  0  0  0  0
   -1.8978   -0.4486   -0.2716 H   0  0  0  0  0  0  0  0  0  0  0  0
    0.1693   -0.2866    0.0854 C   0  0  1  0  0  0  0  0  0  0  0  0
    0.8425   -0.7905    0.7811 H   0  0  0  0  0  0  0  0  0  0  0  0
    0.7993   -0.3404   -1.3233 C   0  0  0  0  0  0  0  0  0  0  0  0
    1.6076    0.3913   -1.3736 H   0  0  0  0  0  0  0  0  0  0  0  0
    1.2359   -1.3298   -1.4760 H   0  0  0  0  0  0  0  0  0  0  0  0
   -0.1764   -0.0345   -2.4703 C   0  0  0  0  0  0  0  0  0  0  0  0
    0.1633   -0.3294   -3.6405 O   0  5  0  0  0  0  0  0  0  0  0  0
   -1.2567    0.5149   -2.1649 O   0  0  0  0  0  0  0  0  0  0  0  0
   -0.0374    1.1645    0.5781 C   0  0  0  0  0  0  0  0  0  0  0  0
   -0.9816    1.8416    0.1544 O   0  0  0  0  0  0  0  0  0  0  0  0
    0.8235    1.6462    1.4801 N   0  0  0  0  0  0  0  0  0  0  0  0
    1.6183    1.0435    1.7020 H   0  0  0  0  0  0  0  0  0  0  0  0
    0.7895    2.9929    2.0404 C   0  0  0  0  0  0  0  0  0  0  0  0
   -0.2344    3.2522    2.3130 H   0  0  0  0  0  0  0  0  0  0  0  0
    1.4265    3.0377    2.9233 H   0  0  0  0  0  0  0  0  0  0  0  0
    1.1511    3.7014    1.2950 H   0  0  0  0  0  0  0  0  0  0  0  0
  5  6  2  0  0  0  0
  5  7  1  0  0  0  0
  2  3  1  0  0  0  0
  2  4  1  0  0  0  0
  2  5  1  0  0  0  0
  1  2  1  0  0  0  0
 17 18  2  0  0  0  0
 17 19  1  0  0  0  0
 14 15  1  0  0  0  0
 14 16  2  0  0  0  0
 11 12  1  0  0  0  0
 11 13  1  0  0  0  0
 11 14  1  0  0  0  0
  9 10  1  0  0  0  0
  9 11  1  0  0  0  0
  9 17  1  0  0  0  0
  7  8  1  0  0  0  0
  7  9  1  0  0  0  0
 21 22  1  0  0  0  0
 21 23  1  0  0  0  0
 21 24  1  0  0  0  0
 19 20  1  0  0  0  0
 19 21  1  0  0  0  0
M  CHG  1  15  -1
M  END
$$$$
default_name
  -OEChem-02102213163D

 24 23  0     1  0  0  0  0  0999 V2000
   -2.8347   -3.7166    0.8034 H   0  0  0  0  0  0  0  0  0  0  0  0
   -2.7728   -2.7096    0.3954 C   0  0  0  0  0  0  0  0  0  0  0  0
   -3.4267   -2.0426    0.9524 H   0  0  0  0  0  0  0  0  0  0  0  0
   -3.0538   -2.7186   -0.6556 H   0  0  0  0  0  0  0  0  0  0  0  0
   -1.3498   -2.2206    0.5184 C   0  0  0  0  0  0  0  0  0  0  0  0
   -0.4997   -2.9426    1.0194 O   0  0  0  0  0  0  0  0  0  0  0  0
   -1.1198   -0.9926    0.0674 N   0  0  0  0  0  0  0  0  0  0  0  0
   -1.8978   -0.4486   -0.2716 H   0  0  0  0  0  0  0  0  0  0  0  0
    0.1693   -0.2866    0.0854 C   0  0  1  0  0  0  0  0  0  0  0  0
    0.8425   -0.7905    0.7811 H   0  0  0  0  0  0  0  0  0  0  0  0
    0.7993   -0.3404   -1.3233 C   0  0  0  0  0  0  0  0  0  0  0  0
    1.6076    0.3913   -1.3736 H   0  0  0  0  0  0  0  0  0  0  0  0
    1.2359   -1.3298   -1.4760 H   0  0  0  0  0  0  0  0  0  0  0  0
   -0.1764   -0.0345   -2.4703 C   0  0  0  0  0  0  0  0  0  0  0  0
    0.0215   -0.5732   -3.5849 O   0  5  0  0  0  0  0  0  0  0  0  0
   -1.1103    0.7590   -2.2244 O   0  0  0  0  0  0  0  0  0  0  0  0
   -0.0374    1.1645    0.5781 C   0  0  0  0  0  0  0  0  0  0  0  0
   -0.9816    1.8416    0.1544 O   0  0  0  0  0  0  0  0  0  0  0  0
    0.8235    1.6462    1.4801 N   0  0  0  0  0  0  0  0  0  0  0  0
    1.6183    1.0435    1.7020 H   0  0  0  0  0  0  0  0  0  0  0  0
    0.7895    2.9929    2.0404 C   0  0  0  0  0  0  0  0  0  0  0  0
   -0.2344    3.2522    2.3130 H   0  0  0  0  0  0  0  0  0  0  0  0
    1.4265    3.0377    2.9233 H   0  0  0  0  0  0  0  0  0  0  0  0
    1.1511    3.7014    1.2950 H   0  0  0  0  0  0  0  0  0  0  0  0
  5  6  2  0  0  0  0
  5  7  1  0  0  0  0
  2  3  1  0  0  0  0
  2  4  1  0  0  0  0
  2  5  1  0  0  0  0
  1  2  1  0  0  0  0
 17 18  2  0  0  0  0
 17 19  1  0  0  0  0
 14 15  1  0  0  0  0
 14 16  2  0  0  0  0
 11 12  1  0  0  0  0
 11 13  1  0  0  0  0
 11 14  1  0  0  0  0
  9 10  1  0  0  0  0
  9 11  1  0  0  0  0
  9 17  1  0  0  0  0
  7  8  1  0  0  0  0
  7  9  1  0  0  0  0
 21 22  1  0  0  0  0
 21 23  1  0  0  0  0
 21 24  1  0  0  0  0
 19 20  1  0  0  0  0
 19 21  1  0  0  0  0
M  CHG  1  15  -1
M  END
$$$$
default_name
  -OEChem-02102213163D

 24 23  0     1  0  0  0  0  0999 V2000
   -2.8347   -3.7166    0.8034 H   0  0  0  0  0  0  0  0  0  0  0  0
   -2.7728   -2.7096    0.3954 C   0  0  0  0  0  0  0  0  0  0  0  0
   -3.4267   -2.0426    0.9524 H   0  0  0  0  0  0  0  0  0  0  0  0
   -3.0538   -2.7186   -0.6556 H   0  0  0  0  0  0  0  0  0  0  0  0
   -1.3498   -2.2206    0.5184 C   0  0  0  0  0  0  0  0  0  0  0  0
   -0.4997   -2.9426    1.0194 O   0  0  0  0  0  0  0  0  0  0  0  0
   -1.1198   -0.9926    0.0674 N   0  0  0  0  0  0  0  0  0  0  0  0
   -1.8978   -0.4486   -0.2716 H   0  0  0  0  0  0  0  0  0  0  0  0
    0.1693   -0.2866    0.0854 C   0  0  1  0  0  0  0  0  0  0  0  0
    0.8425   -0.7905    0.7811 H   0  0  0  0  0  0  0  0  0  0  0  0
    0.7993   -0.3404   -1.3233 C   0  0  0  0  0  0  0  0  0  0  0  0
    1.6076    0.3913   -1.3736 H   0  0  0  0  0  0  0  0  0  0  0  0
    1.2359   -1.3298   -1.4760 H   0  0  0  0  0  0  0  0  0  0  0  0
   -0.1764   -0.0345   -2.4703 C   0  0  0  0  0  0  0  0  0  0  0  0
   -0.1597   -0.7722   -3.4838 O   0  5  0  0  0  0  0  0  0  0  0  0
   -0.9248    0.9566   -2.3295 O   0  0  0  0  0  0  0  0  0  0  0  0
   -0.0374    1.1645    0.5781 C   0  0  0  0  0  0  0  0  0  0  0  0
   -0.9816    1.8416    0.1544 O   0  0  0  0  0  0  0  0  0  0  0  0
    0.8235    1.6462    1.4801 N   0  0  0  0  0  0  0  0  0  0  0  0
    1.6183    1.0435    1.7020 H   0  0  0  0  0  0  0  0  0  0  0  0
    0.7895    2.9929    2.0404 C   0  0  0  0  0  0  0  0  0  0  0  0
   -0.2344    3.2522    2.3130 H   0  0  0  0  0  0  0  0  0  0  0  0
    1.4265    3.0377    2.9233 H   0  0  0  0  0  0  0  0  0  0  0  0
    1.1511    3.7014    1.2950 H   0  0  0  0  0  0  0  0  0  0  0  0
  5  6  2  0  0  0  0
  5  7  1  0  0  0  0
  2  3  1  0  0  0  0
  2  4  1  0  0  0  0
  2  5  1  0  0  0  0
  1  2  1  0  0  0  0
 17 18  2  0  0  0  0
 17 19  1  0  0  0  0
 14 15  1  0  0  0  0
 14 16  2  0  0  0  0
 11 12  1  0  0  0  0
 11 13  1  0  0  0  0
 11 14  1  0  0  0  0
  9 10  1  0  0  0  0
  9 11  1  0  0  0  0
  9 17  1  0  0  0  0
  7  8  1  0  0  0  0
  7  9  1  0  0  0  0
 21 22  1  0  0  0  0
 21 23  1  0  0  0  0
 21 24  1  0  0  0  0
 19 20  1  0  0  0  0
 19 21  1  0  0  0  0
M  CHG  1  15  -1
M  END
$$$$
default_name
  -OEChem-02102213163D

 24 23  0     1  0  0  0  0  0999 V2000
   -2.8347   -3.7166    0.8034 H   0  0  0  0  0  0  0  0  0  0  0  0
   -2.7728   -2.7096    0.3954 C   0  0  0  0  0  0  0  0  0  0  0  0
   -3.4267   -2.0426    0.9524 H   0  0  0  0  0  0  0  0  0  0  0  0
   -3.0538   -2.7186   -0.6556 H   0  0  0  0  0  0  0  0  0  0  0  0
   -1.3498   -2.2206    0.5184 C   0  0  0  0  0  0  0  0  0  0  0  0
   -0.4997   -2.9426    1.0194 O   0  0  0  0  0  0  0  0  0  0  0  0
   -1.1198   -0.9926    0.0674 N   0  0  0  0  0  0  0  0  0  0  0  0
   -1.8978   -0.4486   -0.2716 H   0  0  0  0  0  0  0  0  0  0  0  0
    0.1693   -0.2866    0.0854 C   0  0  1  0  0  0  0  0  0  0  0  0
    0.8425   -0.7905    0.7811 H   0  0  0  0  0  0  0  0  0  0  0  0
    0.7993   -0.3404   -1.3233 C   0  0  0  0  0  0  0  0  0  0  0  0
    1.6076    0.3913   -1.3736 H   0  0  0  0  0  0  0  0  0  0  0  0
    1.2359   -1.3298   -1.4760 H   0  0  0  0  0  0  0  0  0  0  0  0
   -0.1764   -0.0345   -2.4703 C   0  0  0  0  0  0  0  0  0  0  0  0
   -0.3680   -0.9128   -3.3441 O   0  5  0  0  0  0  0  0  0  0  0  0
   -0.7128    1.0944   -2.4730 O   0  0  0  0  0  0  0  0  0  0  0  0
   -0.0374    1.1645    0.5781 C   0  0  0  0  0  0  0  0  0  0  0  0
   -0.9816    1.8416    0.1544 O   0  0  0  0  0  0  0  0  0  0  0  0
    0.8235    1.6462    1.4801 N   0  0  0  0  0  0  0  0  0  0  0  0
    1.6183    1.0435    1.7020 H   0  0  0  0  0  0  0  0  0  0  0  0
    0.7895    2.9929    2.0404 C   0  0  0  0  0  0  0  0  0  0  0  0
   -0.2344    3.2522    2.3130 H   0  0  0  0  0  0  0  0  0  0  0  0
    1.4265    3.0377    2.9233 H   0  0  0  0  0  0  0  0  0  0  0  0
    1.1511    3.7014    1.2950 H   0  0  0  0  0  0  0  0  0  0  0  0
  5  6  2  0  0  0  0
  5  7  1  0  0  0  0
  2  3  1  0  0  0  0
  2  4  1  0  0  0  0
  2  5  1  0  0  0  0
  1  2  1  0  0  0  0
 17 18  2  0  0  0  0
 17 19  1  0  0  0  0
 14 15  1  0  0  0  0
 14 16  2  0  0  0  0
 11 12  1  0  0  0  0
 11 13  1  0  0  0  0
 11 14  1  0  0  0  0
  9 10  1  0  0  0  0
  9 11  1  0  0  0  0
  9 17  1  0  0  0  0
  7  8  1  0  0  0  0
  7  9  1  0  0  0  0
 21 22  1  0  0  0  0
 21 23  1  0  0  0  0
 21 24  1  0  0  0  0
 19 20  1  0  0  0  0
 19 21  1  0  0  0  0
M  CHG  1  15  -1
M  END
$$$$
default_name
  -OEChem-02102213163D

 24 23  0     1  0  0  0  0  0999 V2000
   -2.8347   -3.7166    0.8034 H   0  0  0  0  0  0  0  0  0  0  0  0
   -2.7728   -2.7096    0.3954 C   0  0  0  0  0  0  0  0  0  0  0  0
   -3.4267   -2.0426    0.9524 H   0  0  0  0  0  0  0  0  0  0  0  0
   -3.0538   -2.7186   -0.6556 H   0  0  0  0  0  0  0  0  0  0  0  0
   -1.3498   -2.2206    0.5184 C   0  0  0  0  0  0  0  0  0  0  0  0
   -0.4997   -2.9426    1.0194 O   0  0  0  0  0  0  0  0  0  0  0  0
   -1.1198   -0.9926    0.0674 N   0  0  0  0  0  0  0  0  0  0  0  0
   -1.8978   -0.4486   -0.2716 H   0  0  0  0  0  0  0  0  0  0  0  0
    0.1693   -0.2866    0.0854 C   0  0  1  0  0  0  0  0  0  0  0  0
    0.8425   -0.7905    0.7811 H   0  0  0  0  0  0  0  0  0  0  0  0
    0.7993   -0.3404   -1.3233 C   0  0  0  0  0  0  0  0  0  0  0  0
    1.6076    0.3913   -1.3736 H   0  0  0  0  0  0  0  0  0  0  0  0
    1.2359   -1.3298   -1.4760 H   0  0  0  0  0  0  0  0  0  0  0  0
   -0.1764   -0.0345   -2.4703 C   0  0  0  0  0  0  0  0  0  0  0  0
   -0.5891   -0.9854   -3.1754 O   0  5  0  0  0  0  0  0  0  0  0  0
   -0.4889    1.1630   -2.6453 O   0  0  0  0  0  0  0  0  0  0  0  0
   -0.0374    1.1645    0.5781 C   0  0  0  0  0  0  0  0  0  0  0  0
   -0.9816    1.8416    0.1544 O   0  0  0  0  0  0  0  0  0  0  0  0
    0.8235    1.6462    1.4801 N   0  0  0  0  0  0  0  0  0  0  0  0
    1.6183    1.0435    1.7020 H   0  0  0  0  0  0  0  0  0  0  0  0
    0.7895    2.9929    2.0404 C   0  0  0  0  0  0  0  0  0  0  0  0
   -0.2344    3.2522    2.3130 H   0  0  0  0  0  0  0  0  0  0  0  0
    1.4265    3.0377    2.9233 H   0  0  0  0  0  0  0  0  0  0  0  0
    1.1511    3.7014    1.2950 H   0  0  0  0  0  0  0  0  0  0  0  0
  5  6  2  0  0  0  0
  5  7  1  0  0  0  0
  2  3  1  0  0  0  0
  2  4  1  0  0  0  0
  2  5  1  0  0  0  0
  1  2  1  0  0  0  0
 17 18  2  0  0  0  0
 17 19  1  0  0  0  0
 14 15  1  0  0  0  0
 14 16  2  0  0  0  0
 11 12  1  0  0  0  0
 11 13  1  0  0  0  0
 11 14  1  0  0  0  0
  9 10  1  0  0  0  0
  9 11  1  0  0  0  0
  9 17  1  0  0  0  0
  7  8  1  0  0  0  0
  7  9  1  0  0  0  0
 21 22  1  0  0  0  0
 21 23  1  0  0  0  0
 21 24  1  0  0  0  0
 19 20  1  0  0  0  0
 19 21  1  0  0  0  0
M  CHG  1  15  -1
M  END
$$$$
default_name
  -OEChem-02102213163D

 24 23  0     1  0  0  0  0  0999 V2000
   -2.8347   -3.7166    0.8034 H   0  0  0  0  0  0  0  0  0  0  0  0
   -2.7728   -2.7096    0.3954 C   0  0  0  0  0  0  0  0  0  0  0  0
   -3.4267   -2.0426    0.9524 H   0  0  0  0  0  0  0  0  0  0  0  0
   -3.0538   -2.7186   -0.6556 H   0  0  0  0  0  0  0  0  0  0  0  0
   -1.3498   -2.2206    0.5184 C   0  0  0  0  0  0  0  0  0  0  0  0
   -0.4997   -2.9426    1.0194 O   0  0  0  0  0  0  0  0  0  0  0  0
   -1.1198   -0.9926    0.0674 N   0  0  0  0  0  0  0  0  0  0  0  0
   -1.8978   -0.4486   -0.2716 H   0  0  0  0  0  0  0  0  0  0  0  0
    0.1693   -0.2866    0.0854 C   0  0  1  0  0  0  0  0  0  0  0  0
    0.8425   -0.7905    0.7811 H   0  0  0  0  0  0  0  0  0  0  0  0
    0.7993   -0.3404   -1.3233 C   0  0  0  0  0  0  0  0  0  0  0  0
    1.6076    0.3913   -1.3736 H   0  0  0  0  0  0  0  0  0  0  0  0
    1.2359   -1.3298   -1.4760 H   0  0  0  0  0  0  0  0  0  0  0  0
   -0.1764   -0.0345   -2.4703 C   0  0  0  0  0  0  0  0  0  0  0  0
   -0.8081   -0.9851   -2.9891 O   0  5  0  0  0  0  0  0  0  0  0  0
   -0.2682    1.1576   -2.8344 O   0  0  0  0  0  0  0  0  0  0  0  0
   -0.0374    1.1645    0.5781 C   0  0  0  0  0  0  0  0  0  0  0  0
   -0.9816    1.8416    0.1544 O   0  0  0  0  0  0  0  0  0  0  0  0
    0.8235    1.6462    1.4801 N   0  0  0  0  0  0  0  0  0  0  0  0
    1.6183    1.0435    1.7020 H   0  0  0  0  0  0  0  0  0  0  0  0
    0.7895    2.9929    2.0404 C   0  0  0  0  0  0  0  0  0  0  0  0
   -0.2344    3.2522    2.3130 H   0  0  0  0  0  0  0  0  0  0  0  0
    1.4265    3.0377    2.9233 H   0  0  0  0  0  0  0  0  0  0  0  0
    1.1511    3.7014    1.2950 H   0  0  0  0  0  0  0  0  0  0  0  0
  5  6  2  0  0  0  0
  5  7  1  0  0  0  0
  2  3  1  0  0  0  0
  2  4  1  0  0  0  0
  2  5  1  0  0  0  0
  1  2  1  0  0  0  0
 17 18  2  0  0  0  0
 17 19  1  0  0  0  0
 14 15  1  0  0  0  0
 14 16  2  0  0  0  0
 11 12  1  0  0  0  0
 11 13  1  0  0  0  0
 11 14  1  0  0  0  0
  9 10  1  0  0  0  0
  9 11  1  0  0  0  0
  9 17  1  0  0  0  0
  7  8  1  0  0  0  0
  7  9  1  0  0  0  0
 21 22  1  0  0  0  0
 21 23  1  0  0  0  0
 21 24  1  0  0  0  0
 19 20  1  0  0  0  0
 19 21  1  0  0  0  0
M  CHG  1  15  -1
M  END
$$$$
default_name
  -OEChem-02102213163D

 24 23  0     1  0  0  0  0  0999 V2000
   -2.8347   -3.7166    0.8034 H   0  0  0  0  0  0  0  0  0  0  0  0
   -2.7728   -2.7096    0.3954 C   0  0  0  0  0  0  0  0  0  0  0  0
   -3.4267   -2.0426    0.9524 H   0  0  0  0  0  0  0  0  0  0  0  0
   -3.0538   -2.7186   -0.6556 H   0  0  0  0  0  0  0  0  0  0  0  0
   -1.3498   -2.2206    0.5184 C   0  0  0  0  0  0  0  0  0  0  0  0
   -0.4997   -2.9426    1.0194 O   0  0  0  0  0  0  0  0  0  0  0  0
   -1.1198   -0.9926    0.0674 N   0  0  0  0  0  0  0  0  0  0  0  0
   -1.8978   -0.4486   -0.2716 H   0  0  0  0  0  0  0  0  0  0  0  0
    0.1693   -0.2866    0.0854 C   0  0  1  0  0  0  0  0  0  0  0  0
    0.8425   -0.7905    0.7811 H   0  0  0  0  0  0  0  0  0  0  0  0
    0.7993   -0.3404   -1.3233 C   0  0  0  0  0  0  0  0  0  0  0  0
    1.6076    0.3913   -1.3736 H   0  0  0  0  0  0  0  0  0  0  0  0
    1.2359   -1.3298   -1.4760 H   0  0  0  0  0  0  0  0  0  0  0  0
   -0.1764   -0.0345   -2.4703 C   0  0  0  0  0  0  0  0  0  0  0  0
   -1.0099   -0.9118   -2.7979 O   0  5  0  0  0  0  0  0  0  0  0  0
   -0.0658    1.0788   -3.0277 O   0  0  0  0  0  0  0  0  0  0  0  0
   -0.0374    1.1645    0.5781 C   0  0  0  0  0  0  0  0  0  0  0  0
   -0.9816    1.8416    0.1544 O   0  0  0  0  0  0  0  0  0  0  0  0
    0.8235    1.6462    1.4801 N   0  0  0  0  0  0  0  0  0  0  0  0
    1.6183    1.0435    1.7020 H   0  0  0  0  0  0  0  0  0  0  0  0
    0.7895    2.9929    2.0404 C   0  0  0  0  0  0  0  0  0  0  0  0
   -0.2344    3.2522    2.3130 H   0  0  0  0  0  0  0  0  0  0  0  0
    1.4265    3.0377    2.9233 H   0  0  0  0  0  0  0  0  0  0  0  0
    1.1511    3.7014    1.2950 H   0  0  0  0  0  0  0  0  0  0  0  0
  5  6  2  0  0  0  0
  5  7  1  0  0  0  0
  2  3  1  0  0  0  0
  2  4  1  0  0  0  0
  2  5  1  0  0  0  0
  1  2  1  0  0  0  0
 17 18  2  0  0  0  0
 17 19  1  0  0  0  0
 14 15  1  0  0  0  0
 14 16  2  0  0  0  0
 11 12  1  0  0  0  0
 11 13  1  0  0  0  0
 11 14  1  0  0  0  0
  9 10  1  0  0  0  0
  9 11  1  0  0  0  0
  9 17  1  0  0  0  0
  7  8  1  0  0  0  0
  7  9  1  0  0  0  0
 21 22  1  0  0  0  0
 21 23  1  0  0  0  0
 21 24  1  0  0  0  0
 19 20  1  0  0  0  0
 19 21  1  0  0  0  0
M  CHG  1  15  -1
M  END
$$$$
default_name
  -OEChem-02102213163D

 24 23  0     1  0  0  0  0  0999 V2000
   -2.8347   -3.7166    0.8034 H   0  0  0  0  0  0  0  0  0  0  0  0
   -2.7728   -2.7096    0.3954 C   0  0  0  0  0  0  0  0  0  0  0  0
   -3.4267   -2.0426    0.9524 H   0  0  0  0  0  0  0  0  0  0  0  0
   -3.0538   -2.7186   -0.6556 H   0  0  0  0  0  0  0  0  0  0  0  0
   -1.3498   -2.2206    0.5184 C   0  0  0  0  0  0  0  0  0  0  0  0
   -0.4997   -2.9426    1.0194 O   0  0  0  0  0  0  0  0  0  0  0  0
   -1.1198   -0.9926    0.0674 N   0  0  0  0  0  0  0  0  0  0  0  0
   -1.8978   -0.4486   -0.2716 H   0  0  0  0  0  0  0  0  0  0  0  0
    0.1693   -0.2866    0.0854 C   0  0  1  0  0  0  0  0  0  0  0  0
    0.8425   -0.7905    0.7811 H   0  0  0  0  0  0  0  0  0  0  0  0
    0.7993   -0.3404   -1.3233 C   0  0  0  0  0  0  0  0  0  0  0  0
    1.6076    0.3913   -1.3736 H   0  0  0  0  0  0  0  0  0  0  0  0
    1.2359   -1.3298   -1.4760 H   0  0  0  0  0  0  0  0  0  0  0  0
   -0.1764   -0.0345   -2.4703 C   0  0  0  0  0  0  0  0  0  0  0  0
   -1.1808   -0.7707   -2.6148 O   0  5  0  0  0  0  0  0  0  0  0  0
    0.1046    0.9317   -3.2118 O   0  0  0  0  0  0  0  0  0  0  0  0
   -0.0374    1.1645    0.5781 C   0  0  0  0  0  0  0  0  0  0  0  0
   -0.9816    1.8416    0.1544 O   0  0  0  0  0  0  0  0  0  0  0  0
    0.8235    1.6462    1.4801 N   0  0  0  0  0  0  0  0  0  0  0  0
    1.6183    1.0435    1.7020 H   0  0  0  0  0  0  0  0  0  0  0  0
    0.7895    2.9929    2.0404 C   0  0  0  0  0  0  0  0  0  0  0  0
   -0.2344    3.2522    2.3130 H   0  0  0  0  0  0  0  0  0  0  0  0
    1.4265    3.0377    2.9233 H   0  0  0  0  0  0  0  0  0  0  0  0
    1.1511    3.7014    1.2950 H   0  0  0  0  0  0  0  0  0  0  0  0
  5  6  2  0  0  0  0
  5  7  1  0  0  0  0
  2  3  1  0  0  0  0
  2  4  1  0  0  0  0
  2  5  1  0  0  0  0
  1  2  1  0  0  0  0
 17 18  2  0  0  0  0
 17 19  1  0  0  0  0
 14 15  1  0  0  0  0
 14 16  2  0  0  0  0
 11 12  1  0  0  0  0
 11 13  1  0  0  0  0
 11 14  1  0  0  0  0
  9 10  1  0  0  0  0
  9 11  1  0  0  0  0
  9 17  1  0  0  0  0
  7  8  1  0  0  0  0
  7  9  1  0  0  0  0
 21 22  1  0  0  0  0
 21 23  1  0  0  0  0
 21 24  1  0  0  0  0
 19 20  1  0  0  0  0
 19 21  1  0  0  0  0
M  CHG  1  15  -1
M  END
$$$$
default_name
  -OEChem-02102213163D

 24 23  0     1  0  0  0  0  0999 V2000
   -2.8347   -3.7166    0.8034 H   0  0  0  0  0  0  0  0  0  0  0  0
   -2.7728   -2.7096    0.3954 C   0  0  0  0  0  0  0  0  0  0  0  0
   -3.4267   -2.0426    0.9524 H   0  0  0  0  0  0  0  0  0  0  0  0
   -3.0538   -2.7186   -0.6556 H   0  0  0  0  0  0  0  0  0  0  0  0
   -1.3498   -2.2206    0.5184 C   0  0  0  0  0  0  0  0  0  0  0  0
   -0.4997   -2.9426    1.0194 O   0  0  0  0  0  0  0  0  0  0  0  0
   -1.1198   -0.9926    0.0674 N   0  0  0  0  0  0  0  0  0  0  0  0
   -1.8978   -0.4486   -0.2716 H   0  0  0  0  0  0  0  0  0  0  0  0
    0.1693   -0.2866    0.0854 C   0  0  1  0  0  0  0  0  0  0  0  0
    0.8425   -0.7905    0.7811 H   0  0  0  0  0  0  0  0  0  0  0  0
    0.7993   -0.3404   -1.3233 C   0  0  0  0  0  0  0  0  0  0  0  0
    1.6076    0.3913   -1.3736 H   0  0  0  0  0  0  0  0  0  0  0  0
    1.2359   -1.3298   -1.4760 H   0  0  0  0  0  0  0  0  0  0  0  0
   -0.1764   -0.0345   -2.4703 C   0  0  0  0  0  0  0  0  0  0  0  0
   -1.3092   -0.5712   -2.4524 O   0  5  0  0  0  0  0  0  0  0  0  0
    0.2312    0.7265   -3.3742 O   0  0  0  0  0  0  0  0  0  0  0  0
   -0.0374    1.1645    0.5781 C   0  0  0  0  0  0  0  0  0  0  0  0
   -0.9816    1.8416    0.1544 O   0  0  0  0  0  0  0  0  0  0  0  0
    0.8235    1.6462    1.4801 N   0  0  0  0  0  0  0  0  0  0  0  0
    1.6183    1.0435    1.7020 H   0  0  0  0  0  0  0  0  0  0  0  0
    0.7895    2.9929    2.0404 C   0  0  0  0  0  0  0  0  0  0  0  0
   -0.2344    3.2522    2.3130 H   0  0  0  0  0  0  0  0  0  0  0  0
    1.4265    3.0377    2.9233 H   0  0  0  0  0  0  0  0  0  0  0  0
    1.1511    3.7014    1.2950 H   0  0  0  0  0  0  0  0  0  0  0  0
  5  6  2  0  0  0  0
  5  7  1  0  0  0  0
  2  3  1  0  0  0  0
  2  4  1  0  0  0  0
  2  5  1  0  0  0  0
  1  2  1  0  0  0  0
 17 18  2  0  0  0  0
 17 19  1  0  0  0  0
 14 15  1  0  0  0  0
 14 16  2  0  0  0  0
 11 12  1  0  0  0  0
 11 13  1  0  0  0  0
 11 14  1  0  0  0  0
  9 10  1  0  0  0  0
  9 11  1  0  0  0  0
  9 17  1  0  0  0  0
  7  8  1  0  0  0  0
  7  9  1  0  0  0  0
 21 22  1  0  0  0  0
 21 23  1  0  0  0  0
 21 24  1  0  0  0  0
 19 20  1  0  0  0  0
 19 21  1  0  0  0  0
M  CHG  1  15  -1
M  END
$$$$
default_name
  -OEChem-02102213163D

 24 23  0     1  0  0  0  0  0999 V2000
   -2.8347   -3.7166    0.8034 H   0  0  0  0  0  0  0  0  0  0  0  0
   -2.7728   -2.7096    0.3954 C   0  0  0  0  0  0  0  0  0  0  0  0
   -3.4267   -2.0426    0.9524 H   0  0  0  0  0  0  0  0  0  0  0  0
   -3.0538   -2.7186   -0.6556 H   0  0  0  0  0  0  0  0  0  0  0  0
   -1.3498   -2.2206    0.5184 C   0  0  0  0  0  0  0  0  0  0  0  0
   -0.4997   -2.9426    1.0194 O   0  0  0  0  0  0  0  0  0  0  0  0
   -1.1198   -0.9926    0.0674 N   0  0  0  0  0  0  0  0  0  0  0  0
   -1.8978   -0.4486   -0.2716 H   0  0  0  0  0  0  0  0  0  0  0  0
    0.1693   -0.2866    0.0854 C   0  0  1  0  0  0  0  0  0  0  0  0
    0.8425   -0.7905    0.7811 H   0  0  0  0  0  0  0  0  0  0  0  0
    0.7993   -0.3404   -1.3233 C   0  0  0  0  0  0  0  0  0  0  0  0
    1.6076    0.3913   -1.3736 H   0  0  0  0  0  0  0  0  0  0  0  0
    1.2359   -1.3298   -1.4760 H   0  0  0  0  0  0  0  0  0  0  0  0
   -0.1764   -0.0345   -2.4703 C   0  0  0  0  0  0  0  0  0  0  0  0
   -1.3864   -0.3271   -2.3217 O   0  5  0  0  0  0  0  0  0  0  0  0
    0.3055    0.4771   -3.5039 O   0  0  0  0  0  0  0  0  0  0  0  0
   -0.0374    1.1645    0.5781 C   0  0  0  0  0  0  0  0  0  0  0  0
   -0.9816    1.8416    0.1544 O   0  0  0  0  0  0  0  0  0  0  0  0
    0.8235    1.6462    1.4801 N   0  0  0  0  0  0  0  0  0  0  0  0
    1.6183    1.0435    1.7020 H   0  0  0  0  0  0  0  0  0  0  0  0
    0.7895    2.9929    2.0404 C   0  0  0  0  0  0  0  0  0  0  0  0
   -0.2344    3.2522    2.3130 H   0  0  0  0  0  0  0  0  0  0  0  0
    1.4265    3.0377    2.9233 H   0  0  0  0  0  0  0  0  0  0  0  0
    1.1511    3.7014    1.2950 H   0  0  0  0  0  0  0  0  0  0  0  0
  5  6  2  0  0  0  0
  5  7  1  0  0  0  0
  2  3  1  0  0  0  0
  2  4  1  0  0  0  0
  2  5  1  0  0  0  0
  1  2  1  0  0  0  0
 17 18  2  0  0  0  0
 17 19  1  0  0  0  0
 14 15  1  0  0  0  0
 14 16  2  0  0  0  0
 11 12  1  0  0  0  0
 11 13  1  0  0  0  0
 11 14  1  0  0  0  0
  9 10  1  0  0  0  0
  9 11  1  0  0  0  0
  9 17  1  0  0  0  0
  7  8  1  0  0  0  0
  7  9  1  0  0  0  0
 21 22  1  0  0  0  0
 21 23  1  0  0  0  0
 21 24  1  0  0  0  0
 19 20  1  0  0  0  0
 19 21  1  0  0  0  0
M  CHG  1  15  -1
M  END
$$$$
default_name
  -OEChem-02102213163D

 24 23  0     1  0  0  0  0  0999 V2000
   -2.8347   -3.7166    0.8034 H   0  0  0  0  0  0  0  0  0  0  0  0
   -2.7728   -2.7096    0.3954 C   0  0  0  0  0  0  0  0  0  0  0  0
   -3.4267   -2.0426    0.9524 H   0  0  0  0  0  0  0  0  0  0  0  0
   -3.0538   -2.7186   -0.6556 H   0  0  0  0  0  0  0  0  0  0  0  0
   -1.3498   -2.2206    0.5184 C   0  0  0  0  0  0  0  0  0  0  0  0
   -0.4997   -2.9426    1.0194 O   0  0  0  0  0  0  0  0  0  0  0  0
   -1.1198   -0.9926    0.0674 N   0  0  0  0  0  0  0  0  0  0  0  0
   -1.8978   -0.4486   -0.2716 H   0  0  0  0  0  0  0  0  0  0  0  0
    0.1693   -0.2866    0.0854 C   0  0  1  0  0  0  0  0  0  0  0  0
    0.8425   -0.7905    0.7811 H   0  0  0  0  0  0  0  0  0  0  0  0
    0.7993   -0.3404   -1.3233 C   0  0  0  0  0  0  0  0  0  0  0  0
    1.6076    0.3913   -1.3736 H   0  0  0  0  0  0  0  0  0  0  0  0
    1.2359   -1.3298   -1.4760 H   0  0  0  0  0  0  0  0  0  0  0  0
   -0.1764   -0.0345   -2.4703 C   0  0  0  0  0  0  0  0  0  0  0  0
   -1.4070   -0.0549   -2.2316 O   0  5  0  0  0  0  0  0  0  0  0  0
    0.3224    0.2006   -3.5920 O   0  0  0  0  0  0  0  0  0  0  0  0
   -0.0374    1.1645    0.5781 C   0  0  0  0  0  0  0  0  0  0  0  0
   -0.9816    1.8416    0.1544 O   0  0  0  0  0  0  0  0  0  0  0  0
    0.8235    1.6462    1.4801 N   0  0  0  0  0  0  0  0  0  0  0  0
    1.6183    1.0435    1.7020 H   0  0  0  0  0  0  0  0  0  0  0  0
    0.7895    2.9929    2.0404 C   0  0  0  0  0  0  0  0  0  0  0  0
   -0.2344    3.2522    2.3130 H   0  0  0  0  0  0  0  0  0  0  0  0
    1.4265    3.0377    2.9233 H   0  0  0  0  0  0  0  0  0  0  0  0
    1.1511    3.7014    1.2950 H   0  0  0  0  0  0  0  0  0  0  0  0
  5  6  2  0  0  0  0
  5  7  1  0  0  0  0
  2  3  1  0  0  0  0
  2  4  1  0  0  0  0
  2  5  1  0  0  0  0
  1  2  1  0  0  0  0
 17 18  2  0  0  0  0
 17 19  1  0  0  0  0
 14 15  1  0  0  0  0
 14 16  2  0  0  0  0
 11 12  1  0  0  0  0
 11 13  1  0  0  0  0
 11 14  1  0  0  0  0
  9 10  1  0  0  0  0
  9 11  1  0  0  0  0
  9 17  1  0  0  0  0
  7  8  1  0  0  0  0
  7  9  1  0  0  0  0
 21 22  1  0  0  0  0
 21 23  1  0  0  0  0
 21 24  1  0  0  0  0
 19 20  1  0  0  0  0
 19 21  1  0  0  0  0
M  CHG  1  15  -1
M  END
$$$$
default_name
  -OEChem-02102213163D

 24 23  0     1  0  0  0  0  0999 V2000
   -2.8347   -3.7166    0.8034 H   0  0  0  0  0  0  0  0  0  0  0  0
   -2.7728   -2.7096    0.3954 C   0  0  0  0  0  0  0  0  0  0  0  0
   -3.4267   -2.0426    0.9524 H   0  0  0  0  0  0  0  0  0  0  0  0
   -3.0538   -2.7186   -0.6556 H   0  0  0  0  0  0  0  0  0  0  0  0
   -1.3498   -2.2206    0.5184 C   0  0  0  0  0  0  0  0  0  0  0  0
   -0.4997   -2.9426    1.0194 O   0  0  0  0  0  0  0  0  0  0  0  0
   -1.1198   -0.9926    0.0674 N   0  0  0  0  0  0  0  0  0  0  0  0
   -1.8978   -0.4486   -0.2716 H   0  0  0  0  0  0  0  0  0  0  0  0
    0.1693   -0.2866    0.0854 C   0  0  1  0  0  0  0  0  0  0  0  0
    0.8425   -0.7905    0.7811 H   0  0  0  0  0  0  0  0  0  0  0  0
    0.7993   -0.3404   -1.3233 C   0  0  0  0  0  0  0  0  0  0  0  0
    1.6076    0.3913   -1.3736 H   0  0  0  0  0  0  0  0  0  0  0  0
    1.2359   -1.3298   -1.4760 H   0  0  0  0  0  0  0  0  0  0  0  0
   -0.1764   -0.0345   -2.4703 C   0  0  0  0  0  0  0  0  0  0  0  0
   -1.3696    0.2269   -2.1882 O   0  5  0  0  0  0  0  0  0  0  0  0
    0.2807   -0.0843   -3.6325 O   0  0  0  0  0  0  0  0  0  0  0  0
   -0.0374    1.1645    0.5781 C   0  0  0  0  0  0  0  0  0  0  0  0
   -0.9816    1.8416    0.1544 O   0  0  0  0  0  0  0  0  0  0  0  0
    0.8235    1.6462    1.4801 N   0  0  0  0  0  0  0  0  0  0  0  0
    1.6183    1.0435    1.7020 H   0  0  0  0  0  0  0  0  0  0  0  0
    0.7895    2.9929    2.0404 C   0  0  0  0  0  0  0  0  0  0  0  0
   -0.2344    3.2522    2.3130 H   0  0  0  0  0  0  0  0  0  0  0  0
    1.4265    3.0377    2.9233 H   0  0  0  0  0  0  0  0  0  0  0  0
    1.1511    3.7014    1.2950 H   0  0  0  0  0  0  0  0  0  0  0  0
  5  6  2  0  0  0  0
  5  7  1  0  0  0  0
  2  3  1  0  0  0  0
  2  4  1  0  0  0  0
  2  5  1  0  0  0  0
  1  2  1  0  0  0  0
 17 18  2  0  0  0  0
 17 19  1  0  0  0  0
 14 15  1  0  0  0  0
 14 16  2  0  0  0  0
 11 12  1  0  0  0  0
 11 13  1  0  0  0  0
 11 14  1  0  0  0  0
  9 10  1  0  0  0  0
  9 11  1  0  0  0  0
  9 17  1  0  0  0  0
  7  8  1  0  0  0  0
  7  9  1  0  0  0  0
 21 22  1  0  0  0  0
 21 23  1  0  0  0  0
 21 24  1  0  0  0  0
 19 20  1  0  0  0  0
 19 21  1  0  0  0  0
M  CHG  1  15  -1
M  END
$$$$
default_name
  -OEChem-02102213163D

 24 23  0     1  0  0  0  0  0999 V2000
   -2.8347   -3.7166    0.8034 H   0  0  0  0  0  0  0  0  0  0  0  0
   -2.7728   -2.7096    0.3954 C   0  0  0  0  0  0  0  0  0  0  0  0
   -3.4267   -2.0426    0.9524 H   0  0  0  0  0  0  0  0  0  0  0  0
   -3.0538   -2.7186   -0.6556 H   0  0  0  0  0  0  0  0  0  0  0  0
   -1.3498   -2.2206    0.5184 C   0  0  0  0  0  0  0  0  0  0  0  0
   -0.4997   -2.9426    1.0194 O   0  0  0  0  0  0  0  0  0  0  0  0
   -1.1198   -0.9926    0.0674 N   0  0  0  0  0  0  0  0  0  0  0  0
   -1.8978   -0.4486   -0.2716 H   0  0  0  0  0  0  0  0  0  0  0  0
    0.1693   -0.2866    0.0854 C   0  0  1  0  0  0  0  0  0  0  0  0
    0.8425   -0.7905    0.7811 H   0  0  0  0  0  0  0  0  0  0  0  0
    0.7993   -0.3404   -1.3233 C   0  0  0  0  0  0  0  0  0  0  0  0
    1.6076    0.3913   -1.3736 H   0  0  0  0  0  0  0  0  0  0  0  0
    1.2359   -1.3298   -1.4760 H   0  0  0  0  0  0  0  0  0  0  0  0
   -0.1764   -0.0345   -2.4703 C   0  0  0  0  0  0  0  0  0  0  0  0
   -1.2769    0.4989   -2.1945 O   0  5  0  0  0  0  0  0  0  0  0  0
    0.1834   -0.3581   -3.6227 O   0  0  0  0  0  0  0  0  0  0  0  0
   -0.0374    1.1645    0.5781 C   0  0  0  0  0  0  0  0  0  0  0  0
   -0.9816    1.8416    0.1544 O   0  0  0  0  0  0  0  0  0  0  0  0
    0.8235    1.6462    1.4801 N   0  0  0  0  0  0  0  0  0  0  0  0
    1.6183    1.0435    1.7020 H   0  0  0  0  0  0  0  0  0  0  0  0
    0.7895    2.9929    2.0404 C   0  0  0  0  0  0  0  0  0  0  0  0
   -0.2344    3.2522    2.3130 H   0  0  0  0  0  0  0  0  0  0  0  0
    1.4265    3.0377    2.9233 H   0  0  0  0  0  0  0  0  0  0  0  0
    1.1511    3.7014    1.2950 H   0  0  0  0  0  0  0  0  0  0  0  0
  5  6  2  0  0  0  0
  5  7  1  0  0  0  0
  2  3  1  0  0  0  0
  2  4  1  0  0  0  0
  2  5  1  0  0  0  0
  1  2  1  0  0  0  0
 17 18  2  0  0  0  0
 17 19  1  0  0  0  0
 14 15  1  0  0  0  0
 14 16  2  0  0  0  0
 11 12  1  0  0  0  0
 11 13  1  0  0  0  0
 11 14  1  0  0  0  0
  9 10  1  0  0  0  0
  9 11  1  0  0  0  0
  9 17  1  0  0  0  0
  7  8  1  0  0  0  0
  7  9  1  0  0  0  0
 21 22  1  0  0  0  0
 21 23  1  0  0  0  0
 21 24  1  0  0  0  0
 19 20  1  0  0  0  0
 19 21  1  0  0  0  0
M  CHG  1  15  -1
M  END
$$$$
default_name
  -OEChem-02102213163D

 24 23  0     1  0  0  0  0  0999 V2000
   -2.8347   -3.7166    0.8034 H   0  0  0  0  0  0  0  0  0  0  0  0
   -2.7728   -2.7096    0.3954 C   0  0  0  0  0  0  0  0  0  0  0  0
   -3.4267   -2.0426    0.9524 H   0  0  0  0  0  0  0  0  0  0  0  0
   -3.0538   -2.7186   -0.6556 H   0  0  0  0  0  0  0  0  0  0  0  0
   -1.3498   -2.2206    0.5184 C   0  0  0  0  0  0  0  0  0  0  0  0
   -0.4997   -2.9426    1.0194 O   0  0  0  0  0  0  0  0  0  0  0  0
   -1.1198   -0.9926    0.0674 N   0  0  0  0  0  0  0  0  0  0  0  0
   -1.8978   -0.4486   -0.2716 H   0  0  0  0  0  0  0  0  0  0  0  0
    0.1693   -0.2866    0.0854 C   0  0  1  0  0  0  0  0  0  0  0  0
    0.8425   -0.7905    0.7811 H   0  0  0  0  0  0  0  0  0  0  0  0
    0.7993   -0.3404   -1.3233 C   0  0  0  0  0  0  0  0  0  0  0  0
    1.6076    0.3913   -1.3736 H   0  0  0  0  0  0  0  0  0  0  0  0
    1.2359   -1.3298   -1.4760 H   0  0  0  0  0  0  0  0  0  0  0  0
   -0.1764   -0.0345   -2.4703 C   0  0  0  0  0  0  0  0  0  0  0  0
   -1.1351    0.7427   -2.2501 O   0  5  0  0  0  0  0  0  0  0  0  0
    0.0369   -0.6021   -3.5632 O   0  0  0  0  0  0  0  0  0  0  0  0
   -0.0374    1.1645    0.5781 C   0  0  0  0  0  0  0  0  0  0  0  0
   -0.9816    1.8416    0.1544 O   0  0  0  0  0  0  0  0  0  0  0  0
    0.8235    1.6462    1.4801 N   0  0  0  0  0  0  0  0  0  0  0  0
    1.6183    1.0435    1.7020 H   0  0  0  0  0  0  0  0  0  0  0  0
    0.7895    2.9929    2.0404 C   0  0  0  0  0  0  0  0  0  0  0  0
   -0.2344    3.2522    2.3130 H   0  0  0  0  0  0  0  0  0  0  0  0
    1.4265    3.0377    2.9233 H   0  0  0  0  0  0  0  0  0  0  0  0
    1.1511    3.7014    1.2950 H   0  0  0  0  0  0  0  0  0  0  0  0
  5  6  2  0  0  0  0
  5  7  1  0  0  0  0
  2  3  1  0  0  0  0
  2  4  1  0  0  0  0
  2  5  1  0  0  0  0
  1  2  1  0  0  0  0
 17 18  2  0  0  0  0
 17 19  1  0  0  0  0
 14 15  1  0  0  0  0
 14 16  2  0  0  0  0
 11 12  1  0  0  0  0
 11 13  1  0  0  0  0
 11 14  1  0  0  0  0
  9 10  1  0  0  0  0
  9 11  1  0  0  0  0
  9 17  1  0  0  0  0
  7  8  1  0  0  0  0
  7  9  1  0  0  0  0
 21 22  1  0  0  0  0
 21 23  1  0  0  0  0
 21 24  1  0  0  0  0
 19 20  1  0  0  0  0
 19 21  1  0  0  0  0
M  CHG  1  15  -1
M  END
$$$$
default_name
  -OEChem-02102213163D

 24 23  0     1  0  0  0  0  0999 V2000
   -2.8347   -3.7166    0.8034 H   0  0  0  0  0  0  0  0  0  0  0  0
   -2.7728   -2.7096    0.3954 C   0  0  0  0  0  0  0  0  0  0  0  0
   -3.4267   -2.0426    0.9524 H   0  0  0  0  0  0  0  0  0  0  0  0
   -3.0538   -2.7186   -0.6556 H   0  0  0  0  0  0  0  0  0  0  0  0
   -1.3498   -2.2206    0.5184 C   0  0  0  0  0  0  0  0  0  0  0  0
   -0.4997   -2.9426    1.0194 O   0  0  0  0  0  0  0  0  0  0  0  0
   -1.1198   -0.9926    0.0674 N   0  0  0  0  0  0  0  0  0  0  0  0
   -1.8978   -0.4486   -0.2716 H   0  0  0  0  0  0  0  0  0  0  0  0
    0.1693   -0.2866    0.0854 C   0  0  1  0  0  0  0  0  0  0  0  0
    0.8425   -0.7905    0.7811 H   0  0  0  0  0  0  0  0  0  0  0  0
    0.7993   -0.3404   -1.3233 C   0  0  0  0  0  0  0  0  0  0  0  0
    1.6076    0.3913   -1.3736 H   0  0  0  0  0  0  0  0  0  0  0  0
    1.2359   -1.3298   -1.4760 H   0  0  0  0  0  0  0  0  0  0  0  0
   -0.1764   -0.0345   -2.4703 C   0  0  0  0  0  0  0  0  0  0  0  0
   -0.9539    0.9417   -2.3512 O   0  5  0  0  0  0  0  0  0  0  0  0
   -0.1486   -0.7997   -3.4581 O   0  0  0  0  0  0  0  0  0  0  0  0
   -0.0374    1.1645    0.5781 C   0  0  0  0  0  0  0  0  0  0  0  0
   -0.9816    1.8416    0.1544 O   0  0  0  0  0  0  0  0  0  0  0  0
    0.8235    1.6462    1.4801 N   0  0  0  0  0  0  0  0  0  0  0  0
    1.6183    1.0435    1.7020 H   0  0  0  0  0  0  0  0  0  0  0  0
    0.7895    2.9929    2.0404 C   0  0  0  0  0  0  0  0  0  0  0  0
   -0.2344    3.2522    2.3130 H   0  0  0  0  0  0  0  0  0  0  0  0
    1.4265    3.0377    2.9233 H   0  0  0  0  0  0  0  0  0  0  0  0
    1.1511    3.7014    1.2950 H   0  0  0  0  0  0  0  0  0  0  0  0
  5  6  2  0  0  0  0
  5  7  1  0  0  0  0
  2  3  1  0  0  0  0
  2  4  1  0  0  0  0
  2  5  1  0  0  0  0
  1  2  1  0  0  0  0
 17 18  2  0  0  0  0
 17 19  1  0  0  0  0
 14 15  1  0  0  0  0
 14 16  2  0  0  0  0
 11 12  1  0  0  0  0
 11 13  1  0  0  0  0
 11 14  1  0  0  0  0
  9 10  1  0  0  0  0
  9 11  1  0  0  0  0
  9 17  1  0  0  0  0
  7  8  1  0  0  0  0
  7  9  1  0  0  0  0
 21 22  1  0  0  0  0
 21 23  1  0  0  0  0
 21 24  1  0  0  0  0
 19 20  1  0  0  0  0
 19 21  1  0  0  0  0
M  CHG  1  15  -1
M  END
$$$$
default_name
  -OEChem-02102213163D

 24 23  0     1  0  0  0  0  0999 V2000
   -2.8347   -3.7166    0.8034 H   0  0  0  0  0  0  0  0  0  0  0  0
   -2.7728   -2.7096    0.3954 C   0  0  0  0  0  0  0  0  0  0  0  0
   -3.4267   -2.0426    0.9524 H   0  0  0  0  0  0  0  0  0  0  0  0
   -3.0538   -2.7186   -0.6556 H   0  0  0  0  0  0  0  0  0  0  0  0
   -1.3498   -2.2206    0.5184 C   0  0  0  0  0  0  0  0  0  0  0  0
   -0.4997   -2.9426    1.0194 O   0  0  0  0  0  0  0  0  0  0  0  0
   -1.1198   -0.9926    0.0674 N   0  0  0  0  0  0  0  0  0  0  0  0
   -1.8978   -0.4486   -0.2716 H   0  0  0  0  0  0  0  0  0  0  0  0
    0.1693   -0.2866    0.0854 C   0  0  1  0  0  0  0  0  0  0  0  0
    0.8425   -0.7905    0.7811 H   0  0  0  0  0  0  0  0  0  0  0  0
    0.7993   -0.3404   -1.3233 C   0  0  0  0  0  0  0  0  0  0  0  0
    1.6076    0.3913   -1.3736 H   0  0  0  0  0  0  0  0  0  0  0  0
    1.2359   -1.3298   -1.4760 H   0  0  0  0  0  0  0  0  0  0  0  0
   -0.1764   -0.0345   -2.4703 C   0  0  0  0  0  0  0  0  0  0  0  0
   -0.7457    1.0823   -2.4909 O   0  5  0  0  0  0  0  0  0  0  0  0
   -0.3605   -0.9375   -3.3146 O   0  0  0  0  0  0  0  0  0  0  0  0
   -0.0374    1.1645    0.5781 C   0  0  0  0  0  0  0  0  0  0  0  0
   -0.9816    1.8416    0.1544 O   0  0  0  0  0  0  0  0  0  0  0  0
    0.8235    1.6462    1.4801 N   0  0  0  0  0  0  0  0  0  0  0  0
    1.6183    1.0435    1.7020 H   0  0  0  0  0  0  0  0  0  0  0  0
    0.7895    2.9929    2.0404 C   0  0  0  0  0  0  0  0  0  0  0  0
   -0.2344    3.2522    2.3130 H   0  0  0  0  0  0  0  0  0  0  0  0
    1.4265    3.0377    2.9233 H   0  0  0  0  0  0  0  0  0  0  0  0
    1.1511    3.7014    1.2950 H   0  0  0  0  0  0  0  0  0  0  0  0
  5  6  2  0  0  0  0
  5  7  1  0  0  0  0
  2  3  1  0  0  0  0
  2  4  1  0  0  0  0
  2  5  1  0  0  0  0
  1  2  1  0  0  0  0
 17 18  2  0  0  0  0
 17 19  1  0  0  0  0
 14 15  1  0  0  0  0
 14 16  2  0  0  0  0
 11 12  1  0  0  0  0
 11 13  1  0  0  0  0
 11 14  1  0  0  0  0
  9 10  1  0  0  0  0
  9 11  1  0  0  0  0
  9 17  1  0  0  0  0
  7  8  1  0  0  0  0
  7  9  1  0  0  0  0
 21 22  1  0  0  0  0
 21 23  1  0  0  0  0
 21 24  1  0  0  0  0
 19 20  1  0  0  0  0
 19 21  1  0  0  0  0
M  CHG  1  15  -1
M  END
$$$$
default_name
  -OEChem-02102213163D

 24 23  0     1  0  0  0  0  0999 V2000
   -2.8347   -3.7166    0.8034 H   0  0  0  0  0  0  0  0  0  0  0  0
   -2.7728   -2.7096    0.3954 C   0  0  0  0  0  0  0  0  0  0  0  0
   -3.4267   -2.0426    0.9524 H   0  0  0  0  0  0  0  0  0  0  0  0
   -3.0538   -2.7186   -0.6556 H   0  0  0  0  0  0  0  0  0  0  0  0
   -1.3498   -2.2206    0.5184 C   0  0  0  0  0  0  0  0  0  0  0  0
   -0.4997   -2.9426    1.0194 O   0  0  0  0  0  0  0  0  0  0  0  0
   -1.1198   -0.9926    0.0674 N   0  0  0  0  0  0  0  0  0  0  0  0
   -1.8978   -0.4486   -0.2716 H   0  0  0  0  0  0  0  0  0  0  0  0
    0.1693   -0.2866    0.0854 C   0  0  1  0  0  0  0  0  0  0  0  0
    0.8425   -0.7905    0.7811 H   0  0  0  0  0  0  0  0  0  0  0  0
    0.7993   -0.3404   -1.3233 C   0  0  0  0  0  0  0  0  0  0  0  0
    1.6076    0.3913   -1.3736 H   0  0  0  0  0  0  0  0  0  0  0  0
    1.2359   -1.3298   -1.4760 H   0  0  0  0  0  0  0  0  0  0  0  0
   -0.1764   -0.0345   -2.4703 C   0  0  0  0  0  0  0  0  0  0  0  0
   -0.5245    1.1549   -2.6596 O   0  5  0  0  0  0  0  0  0  0  0  0
   -0.5845   -1.0061   -3.1424 O   0  0  0  0  0  0  0  0  0  0  0  0
   -0.0374    1.1645    0.5781 C   0  0  0  0  0  0  0  0  0  0  0  0
   -0.9816    1.8416    0.1544 O   0  0  0  0  0  0  0  0  0  0  0  0
    0.8235    1.6462    1.4801 N   0  0  0  0  0  0  0  0  0  0  0  0
    1.6183    1.0435    1.7020 H   0  0  0  0  0  0  0  0  0  0  0  0
    0.7895    2.9929    2.0404 C   0  0  0  0  0  0  0  0  0  0  0  0
   -0.2344    3.2522    2.3130 H   0  0  0  0  0  0  0  0  0  0  0  0
    1.4265    3.0377    2.9233 H   0  0  0  0  0  0  0  0  0  0  0  0
    1.1511    3.7014    1.2950 H   0  0  0  0  0  0  0  0  0  0  0  0
  5  6  2  0  0  0  0
  5  7  1  0  0  0  0
  2  3  1  0  0  0  0
  2  4  1  0  0  0  0
  2  5  1  0  0  0  0
  1  2  1  0  0  0  0
 17 18  2  0  0  0  0
 17 19  1  0  0  0  0
 14 15  1  0  0  0  0
 14 16  2  0  0  0  0
 11 12  1  0  0  0  0
 11 13  1  0  0  0  0
 11 14  1  0  0  0  0
  9 10  1  0  0  0  0
  9 11  1  0  0  0  0
  9 17  1  0  0  0  0
  7  8  1  0  0  0  0
  7  9  1  0  0  0  0
 21 22  1  0  0  0  0
 21 23  1  0  0  0  0
 21 24  1  0  0  0  0
 19 20  1  0  0  0  0
 19 21  1  0  0  0  0
M  CHG  1  15  -1
M  END
$$$$
default_name
  -OEChem-02102213163D

 24 23  0     1  0  0  0  0  0999 V2000
   -2.8347   -3.7166    0.8034 H   0  0  0  0  0  0  0  0  0  0  0  0
   -2.7728   -2.7096    0.3954 C   0  0  0  0  0  0  0  0  0  0  0  0
   -3.4267   -2.0426    0.9524 H   0  0  0  0  0  0  0  0  0  0  0  0
   -3.0538   -2.7186   -0.6556 H   0  0  0  0  0  0  0  0  0  0  0  0
   -1.3498   -2.2206    0.5184 C   0  0  0  0  0  0  0  0  0  0  0  0
   -0.4997   -2.9426    1.0194 O   0  0  0  0  0  0  0  0  0  0  0  0
   -1.1198   -0.9926    0.0674 N   0  0  0  0  0  0  0  0  0  0  0  0
   -1.8978   -0.4486   -0.2716 H   0  0  0  0  0  0  0  0  0  0  0  0
    0.1693   -0.2866    0.0854 C   0  0  1  0  0  0  0  0  0  0  0  0
    0.8425   -0.7905    0.7811 H   0  0  0  0  0  0  0  0  0  0  0  0
    0.7993   -0.3404   -1.3233 C   0  0  0  0  0  0  0  0  0  0  0  0
    1.6076    0.3913   -1.3736 H   0  0  0  0  0  0  0  0  0  0  0  0
    1.2359   -1.3298   -1.4760 H   0  0  0  0  0  0  0  0  0  0  0  0
   -0.1764   -0.0345   -2.4703 C   0  0  0  0  0  0  0  0  0  0  0  0
   -0.3056    1.1546   -2.8459 O   0  5  0  0  0  0  0  0  0  0  0  0
   -0.8052   -1.0008   -2.9532 O   0  0  0  0  0  0  0  0  0  0  0  0
   -0.0374    1.1645    0.5781 C   0  0  0  0  0  0  0  0  0  0  0  0
   -0.9816    1.8416    0.1544 O   0  0  0  0  0  0  0  0  0  0  0  0
    0.8235    1.6462    1.4801 N   0  0  0  0  0  0  0  0  0  0  0  0
    1.6183    1.0435    1.7020 H   0  0  0  0  0  0  0  0  0  0  0  0
    0.7895    2.9929    2.0404 C   0  0  0  0  0  0  0  0  0  0  0  0
   -0.2344    3.2522    2.3130 H   0  0  0  0  0  0  0  0  0  0  0  0
    1.4265    3.0377    2.9233 H   0  0  0  0  0  0  0  0  0  0  0  0
    1.1511    3.7014    1.2950 H   0  0  0  0  0  0  0  0  0  0  0  0
  5  6  2  0  0  0  0
  5  7  1  0  0  0  0
  2  3  1  0  0  0  0
  2  4  1  0  0  0  0
  2  5  1  0  0  0  0
  1  2  1  0  0  0  0
 17 18  2  0  0  0  0
 17 19  1  0  0  0  0
 14 15  1  0  0  0  0
 14 16  2  0  0  0  0
 11 12  1  0  0  0  0
 11 13  1  0  0  0  0
 11 14  1  0  0  0  0
  9 10  1  0  0  0  0
  9 11  1  0  0  0  0
  9 17  1  0  0  0  0
  7  8  1  0  0  0  0
  7  9  1  0  0  0  0
 21 22  1  0  0  0  0
 21 23  1  0  0  0  0
 21 24  1  0  0  0  0
 19 20  1  0  0  0  0
 19 21  1  0  0  0  0
M  CHG  1  15  -1
M  END
$$$$
default_name
  -OEChem-02102213163D

 24 23  0     1  0  0  0  0  0999 V2000
   -2.8347   -3.7166    0.8034 H   0  0  0  0  0  0  0  0  0  0  0  0
   -2.7728   -2.7096    0.3954 C   0  0  0  0  0  0  0  0  0  0  0  0
   -3.4267   -2.0426    0.9524 H   0  0  0  0  0  0  0  0  0  0  0  0
   -3.0538   -2.7186   -0.6556 H   0  0  0  0  0  0  0  0  0  0  0  0
   -1.3498   -2.2206    0.5184 C   0  0  0  0  0  0  0  0  0  0  0  0
   -0.4997   -2.9426    1.0194 O   0  0  0  0  0  0  0  0  0  0  0  0
   -1.1198   -0.9926    0.0674 N   0  0  0  0  0  0  0  0  0  0  0  0
   -1.8978   -0.4486   -0.2716 H   0  0  0  0  0  0  0  0  0  0  0  0
    0.1693   -0.2866    0.0854 C   0  0  1  0  0  0  0  0  0  0  0  0
    0.8425   -0.7905    0.7811 H   0  0  0  0  0  0  0  0  0  0  0  0
    0.7993   -0.3404   -1.3233 C   0  0  0  0  0  0  0  0  0  0  0  0
    1.6076    0.3913   -1.3736 H   0  0  0  0  0  0  0  0  0  0  0  0
    1.2359   -1.3298   -1.4760 H   0  0  0  0  0  0  0  0  0  0  0  0
   -0.1764   -0.0345   -2.4703 C   0  0  0  0  0  0  0  0  0  0  0  0
   -0.1038    1.0814   -3.0371 O   0  5  0  0  0  0  0  0  0  0  0  0
   -1.0076   -0.9219   -2.7600 O   0  0  0  0  0  0  0  0  0  0  0  0
   -0.0374    1.1645    0.5781 C   0  0  0  0  0  0  0  0  0  0  0  0
   -0.9816    1.8416    0.1544 O   0  0  0  0  0  0  0  0  0  0  0  0
    0.8235    1.6462    1.4801 N   0  0  0  0  0  0  0  0  0  0  0  0
    1.6183    1.0435    1.7020 H   0  0  0  0  0  0  0  0  0  0  0  0
    0.7895    2.9929    2.0404 C   0  0  0  0  0  0  0  0  0  0  0  0
   -0.2344    3.2522    2.3130 H   0  0  0  0  0  0  0  0  0  0  0  0
    1.4265    3.0377    2.9233 H   0  0  0  0  0  0  0  0  0  0  0  0
    1.1511    3.7014    1.2950 H   0  0  0  0  0  0  0  0  0  0  0  0
  5  6  2  0  0  0  0
  5  7  1  0  0  0  0
  2  3  1  0  0  0  0
  2  4  1  0  0  0  0
  2  5  1  0  0  0  0
  1  2  1  0  0  0  0
 17 18  2  0  0  0  0
 17 19  1  0  0  0  0
 14 15  1  0  0  0  0
 14 16  2  0  0  0  0
 11 12  1  0  0  0  0
 11 13  1  0  0  0  0
 11 14  1  0  0  0  0
  9 10  1  0  0  0  0
  9 11  1  0  0  0  0
  9 17  1  0  0  0  0
  7  8  1  0  0  0  0
  7  9  1  0  0  0  0
 21 22  1  0  0  0  0
 21 23  1  0  0  0  0
 21 24  1  0  0  0  0
 19 20  1  0  0  0  0
 19 21  1  0  0  0  0
M  CHG  1  15  -1
M  END
$$$$
default_name
  -OEChem-02102213163D

 24 23  0     1  0  0  0  0  0999 V2000
   -2.8347   -3.7166    0.8034 H   0  0  0  0  0  0  0  0  0  0  0  0
   -2.7728   -2.7096    0.3954 C   0  0  0  0  0  0  0  0  0  0  0  0
   -3.4267   -2.0426    0.9524 H   0  0  0  0  0  0  0  0  0  0  0  0
   -3.0538   -2.7186   -0.6556 H   0  0  0  0  0  0  0  0  0  0  0  0
   -1.3498   -2.2206    0.5184 C   0  0  0  0  0  0  0  0  0  0  0  0
   -0.4997   -2.9426    1.0194 O   0  0  0  0  0  0  0  0  0  0  0  0
   -1.1198   -0.9926    0.0674 N   0  0  0  0  0  0  0  0  0  0  0  0
   -1.8978   -0.4486   -0.2716 H   0  0  0  0  0  0  0  0  0  0  0  0
    0.1693   -0.2866    0.0854 C   0  0  1  0  0  0  0  0  0  0  0  0
    0.8425   -0.7905    0.7811 H   0  0  0  0  0  0  0  0  0  0  0  0
    0.7993   -0.3404   -1.3233 C   0  0  0  0  0  0  0  0  0  0  0  0
    1.6076    0.3913   -1.3736 H   0  0  0  0  0  0  0  0  0  0  0  0
    1.2359   -1.3298   -1.4760 H   0  0  0  0  0  0  0  0  0  0  0  0
   -0.1764   -0.0345   -2.4703 C   0  0  0  0  0  0  0  0  0  0  0  0
    0.0672    0.9402   -3.2202 O   0  5  0  0  0  0  0  0  0  0  0  0
   -1.1779   -0.7748   -2.5759 O   0  0  0  0  0  0  0  0  0  0  0  0
   -0.0374    1.1645    0.5781 C   0  0  0  0  0  0  0  0  0  0  0  0
   -0.9816    1.8416    0.1544 O   0  0  0  0  0  0  0  0  0  0  0  0
    0.8235    1.6462    1.4801 N   0  0  0  0  0  0  0  0  0  0  0  0
    1.6183    1.0435    1.7020 H   0  0  0  0  0  0  0  0  0  0  0  0
    0.7895    2.9929    2.0404 C   0  0  0  0  0  0  0  0  0  0  0  0
   -0.2344    3.2522    2.3130 H   0  0  0  0  0  0  0  0  0  0  0  0
    1.4265    3.0377    2.9233 H   0  0  0  0  0  0  0  0  0  0  0  0
    1.1511    3.7014    1.2950 H   0  0  0  0  0  0  0  0  0  0  0  0
  5  6  2  0  0  0  0
  5  7  1  0  0  0  0
  2  3  1  0  0  0  0
  2  4  1  0  0  0  0
  2  5  1  0  0  0  0
  1  2  1  0  0  0  0
 17 18  2  0  0  0  0
 17 19  1  0  0  0  0
 14 15  1  0  0  0  0
 14 16  2  0  0  0  0
 11 12  1  0  0  0  0
 11 13  1  0  0  0  0
 11 14  1  0  0  0  0
  9 10  1  0  0  0  0
  9 11  1  0  0  0  0
  9 17  1  0  0  0  0
  7  8  1  0  0  0  0
  7  9  1  0  0  0  0
 21 22  1  0  0  0  0
 21 23  1  0  0  0  0
 21 24  1  0  0  0  0
 19 20  1  0  0  0  0
 19 21  1  0  0  0  0
M  CHG  1  15  -1
M  END
$$$$
default_name
  -OEChem-02102213163D

 24 23  0     1  0  0  0  0  0999 V2000
   -2.8347   -3.7166    0.8034 H   0  0  0  0  0  0  0  0  0  0  0  0
   -2.7728   -2.7096    0.3954 C   0  0  0  0  0  0  0  0  0  0  0  0
   -3.4267   -2.0426    0.9524 H   0  0  0  0  0  0  0  0  0  0  0  0
   -3.0538   -2.7186   -0.6556 H   0  0  0  0  0  0  0  0  0  0  0  0
   -1.3498   -2.2206    0.5184 C   0  0  0  0  0  0  0  0  0  0  0  0
   -0.4997   -2.9426    1.0194 O   0  0  0  0  0  0  0  0  0  0  0  0
   -1.1198   -0.9926    0.0674 N   0  0  0  0  0  0  0  0  0  0  0  0
   -1.8978   -0.4486   -0.2716 H   0  0  0  0  0  0  0  0  0  0  0  0
    0.1693   -0.2866    0.0854 C   0  0  1  0  0  0  0  0  0  0  0  0
    0.8425   -0.7905    0.7811 H   0  0  0  0  0  0  0  0  0  0  0  0
    0.7993   -0.3404   -1.3233 C   0  0  0  0  0  0  0  0  0  0  0  0
    1.6076    0.3913   -1.3736 H   0  0  0  0  0  0  0  0  0  0  0  0
    1.2359   -1.3298   -1.4760 H   0  0  0  0  0  0  0  0  0  0  0  0
   -0.1764   -0.0345   -2.4703 C   0  0  0  0  0  0  0  0  0  0  0  0
    0.1956    0.7408   -3.3826 O   0  5  0  0  0  0  0  0  0  0  0  0
   -1.3045   -0.5696   -2.4134 O   0  0  0  0  0  0  0  0  0  0  0  0
   -0.0374    1.1645    0.5781 C   0  0  0  0  0  0  0  0  0  0  0  0
   -0.9816    1.8416    0.1544 O   0  0  0  0  0  0  0  0  0  0  0  0
    0.8235    1.6462    1.4801 N   0  0  0  0  0  0  0  0  0  0  0  0
    1.6183    1.0435    1.7020 H   0  0  0  0  0  0  0  0  0  0  0  0
    0.7895    2.9929    2.0404 C   0  0  0  0  0  0  0  0  0  0  0  0
   -0.2344    3.2522    2.3130 H   0  0  0  0  0  0  0  0  0  0  0  0
    1.4265    3.0377    2.9233 H   0  0  0  0  0  0  0  0  0  0  0  0
    1.1511    3.7014    1.2950 H   0  0  0  0  0  0  0  0  0  0  0  0
  5  6  2  0  0  0  0
  5  7  1  0  0  0  0
  2  3  1  0  0  0  0
  2  4  1  0  0  0  0
  2  5  1  0  0  0  0
  1  2  1  0  0  0  0
 17 18  2  0  0  0  0
 17 19  1  0  0  0  0
 14 15  1  0  0  0  0
 14 16  2  0  0  0  0
 11 12  1  0  0  0  0
 11 13  1  0  0  0  0
 11 14  1  0  0  0  0
  9 10  1  0  0  0  0
  9 11  1  0  0  0  0
  9 17  1  0  0  0  0
  7  8  1  0  0  0  0
  7  9  1  0  0  0  0
 21 22  1  0  0  0  0
 21 23  1  0  0  0  0
 21 24  1  0  0  0  0
 19 20  1  0  0  0  0
 19 21  1  0  0  0  0
M  CHG  1  15  -1
M  END
$$$$
default_name
  -OEChem-02102213163D

 24 23  0     1  0  0  0  0  0999 V2000
   -2.8347   -3.7166    0.8034 H   0  0  0  0  0  0  0  0  0  0  0  0
   -2.7728   -2.7096    0.3954 C   0  0  0  0  0  0  0  0  0  0  0  0
   -3.4267   -2.0426    0.9524 H   0  0  0  0  0  0  0  0  0  0  0  0
   -3.0538   -2.7186   -0.6556 H   0  0  0  0  0  0  0  0  0  0  0  0
   -1.3498   -2.2206    0.5184 C   0  0  0  0  0  0  0  0  0  0  0  0
   -0.4997   -2.9426    1.0194 O   0  0  0  0  0  0  0  0  0  0  0  0
   -1.1198   -0.9926    0.0674 N   0  0  0  0  0  0  0  0  0  0  0  0
   -1.8978   -0.4486   -0.2716 H   0  0  0  0  0  0  0  0  0  0  0  0
    0.1693   -0.2866    0.0854 C   0  0  1  0  0  0  0  0  0  0  0  0
    0.8425   -0.7905    0.7811 H   0  0  0  0  0  0  0  0  0  0  0  0
    0.7993   -0.3404   -1.3233 C   0  0  0  0  0  0  0  0  0  0  0  0
    1.6076    0.3913   -1.3736 H   0  0  0  0  0  0  0  0  0  0  0  0
    1.2359   -1.3298   -1.4760 H   0  0  0  0  0  0  0  0  0  0  0  0
   -0.1764   -0.0345   -2.4703 C   0  0  0  0  0  0  0  0  0  0  0  0
    0.2727    0.4966   -3.5133 O   0  5  0  0  0  0  0  0  0  0  0  0
   -1.3788   -0.3202   -2.2837 O   0  0  0  0  0  0  0  0  0  0  0  0
   -0.0374    1.1645    0.5781 C   0  0  0  0  0  0  0  0  0  0  0  0
   -0.9816    1.8416    0.1544 O   0  0  0  0  0  0  0  0  0  0  0  0
    0.8235    1.6462    1.4801 N   0  0  0  0  0  0  0  0  0  0  0  0
    1.6183    1.0435    1.7020 H   0  0  0  0  0  0  0  0  0  0  0  0
    0.7895    2.9929    2.0404 C   0  0  0  0  0  0  0  0  0  0  0  0
   -0.2344    3.2522    2.3130 H   0  0  0  0  0  0  0  0  0  0  0  0
    1.4265    3.0377    2.9233 H   0  0  0  0  0  0  0  0  0  0  0  0
    1.1511    3.7014    1.2950 H   0  0  0  0  0  0  0  0  0  0  0  0
  5  6  2  0  0  0  0
  5  7  1  0  0  0  0
  2  3  1  0  0  0  0
  2  4  1  0  0  0  0
  2  5  1  0  0  0  0
  1  2  1  0  0  0  0
 17 18  2  0  0  0  0
 17 19  1  0  0  0  0
 14 15  1  0  0  0  0
 14 16  2  0  0  0  0
 11 12  1  0  0  0  0
 11 13  1  0  0  0  0
 11 14  1  0  0  0  0
  9 10  1  0  0  0  0
  9 11  1  0  0  0  0
  9 17  1  0  0  0  0
  7  8  1  0  0  0  0
  7  9  1  0  0  0  0
 21 22  1  0  0  0  0
 21 23  1  0  0  0  0
 21 24  1  0  0  0  0
 19 20  1  0  0  0  0
 19 21  1  0  0  0  0
M  CHG  1  15  -1
M  END
$$$$
default_name
  -OEChem-02102213163D

 24 23  0     1  0  0  0  0  0999 V2000
   -2.8347   -3.7166    0.8034 H   0  0  0  0  0  0  0  0  0  0  0  0
   -2.7728   -2.7096    0.3954 C   0  0  0  0  0  0  0  0  0  0  0  0
   -3.4267   -2.0426    0.9524 H   0  0  0  0  0  0  0  0  0  0  0  0
   -3.0538   -2.7186   -0.6556 H   0  0  0  0  0  0  0  0  0  0  0  0
   -1.3498   -2.2206    0.5184 C   0  0  0  0  0  0  0  0  0  0  0  0
   -0.4997   -2.9426    1.0194 O   0  0  0  0  0  0  0  0  0  0  0  0
   -1.1198   -0.9926    0.0674 N   0  0  0  0  0  0  0  0  0  0  0  0
   -1.8978   -0.4486   -0.2716 H   0  0  0  0  0  0  0  0  0  0  0  0
    0.1693   -0.2866    0.0854 C   0  0  1  0  0  0  0  0  0  0  0  0
    0.8425   -0.7905    0.7811 H   0  0  0  0  0  0  0  0  0  0  0  0
    0.7993   -0.3404   -1.3233 C   0  0  0  0  0  0  0  0  0  0  0  0
    1.6076    0.3913   -1.3736 H   0  0  0  0  0  0  0  0  0  0  0  0
    1.2359   -1.3298   -1.4760 H   0  0  0  0  0  0  0  0  0  0  0  0
   -0.1764   -0.0345   -2.4703 C   0  0  0  0  0  0  0  0  0  0  0  0
    0.2933    0.2244   -3.6035 O   0  5  0  0  0  0  0  0  0  0  0  0
   -1.3957   -0.0437   -2.1956 O   0  0  0  0  0  0  0  0  0  0  0  0
   -0.0374    1.1645    0.5781 C   0  0  0  0  0  0  0  0  0  0  0  0
   -0.9816    1.8416    0.1544 O   0  0  0  0  0  0  0  0  0  0  0  0
    0.8235    1.6462    1.4801 N   0  0  0  0  0  0  0  0  0  0  0  0
    1.6183    1.0435    1.7020 H   0  0  0  0  0  0  0  0  0  0  0  0
    0.7895    2.9929    2.0404 C   0  0  0  0  0  0  0  0  0  0  0  0
   -0.2344    3.2522    2.3130 H   0  0  0  0  0  0  0  0  0  0  0  0
    1.4265    3.0377    2.9233 H   0  0  0  0  0  0  0  0  0  0  0  0
    1.1511    3.7014    1.2950 H   0  0  0  0  0  0  0  0  0  0  0  0
  5  6  2  0  0  0  0
  5  7  1  0  0  0  0
  2  3  1  0  0  0  0
  2  4  1  0  0  0  0
  2  5  1  0  0  0  0
  1  2  1  0  0  0  0
 17 18  2  0  0  0  0
 17 19  1  0  0  0  0
 14 15  1  0  0  0  0
 14 16  2  0  0  0  0
 11 12  1  0  0  0  0
 11 13  1  0  0  0  0
 11 14  1  0  0  0  0
  9 10  1  0  0  0  0
  9 11  1  0  0  0  0
  9 17  1  0  0  0  0
  7  8  1  0  0  0  0
  7  9  1  0  0  0  0
 21 22  1  0  0  0  0
 21 23  1  0  0  0  0
 21 24  1  0  0  0  0
 19 20  1  0  0  0  0
 19 21  1  0  0  0  0
M  CHG  1  15  -1
M  END
$$$$
default_name
  -OEChem-02102213163D

 24 23  0     1  0  0  0  0  0999 V2000
   -2.8347   -3.7166    0.8034 H   0  0  0  0  0  0  0  0  0  0  0  0
   -2.7728   -2.7096    0.3954 C   0  0  0  0  0  0  0  0  0  0  0  0
   -3.4267   -2.0426    0.9524 H   0  0  0  0  0  0  0  0  0  0  0  0
   -3.0538   -2.7186   -0.6556 H   0  0  0  0  0  0  0  0  0  0  0  0
   -1.3498   -2.2206    0.5184 C   0  0  0  0  0  0  0  0  0  0  0  0
   -0.4997   -2.9426    1.0194 O   0  0  0  0  0  0  0  0  0  0  0  0
   -1.1198   -0.9926    0.0674 N   0  0  0  0  0  0  0  0  0  0  0  0
   -1.8978   -0.4486   -0.2716 H   0  0  0  0  0  0  0  0  0  0  0  0
    0.1693   -0.2866    0.0854 C   0  0  1  0  0  0  0  0  0  0  0  0
    0.8425   -0.7905    0.7811 H   0  0  0  0  0  0  0  0  0  0  0  0
    0.7993   -0.3404   -1.3233 C   0  0  0  0  0  0  0  0  0  0  0  0
    1.7581    0.1804   -1.2982 H   0  0  0  0  0  0  0  0  0  0  0  0
    0.9937   -1.3834   -1.5823 H   0  0  0  0  0  0  0  0  0  0  0  0
   -0.0518    0.3059   -2.4276 C   0  0  0  0  0  0  0  0  0  0  0  0
    0.3885    0.3045   -3.6014 O   0  5  0  0  0  0  0  0  0  0  0  0
   -1.1378    0.8178   -2.0804 O   0  0  0  0  0  0  0  0  0  0  0  0
   -0.0374    1.1645    0.5781 C   0  0  0  0  0  0  0  0  0  0  0  0
   -0.9816    1.8416    0.1544 O   0  0  0  0  0  0  0  0  0  0  0  0
    0.8235    1.6462    1.4801 N   0  0  0  0  0  0  0  0  0  0  0  0
    1.6183    1.0435    1.7020 H   0  0  0  0  0  0  0  0  0  0  0  0
    0.7895    2.9929    2.0404 C   0  0  0  0  0  0  0  0  0  0  0  0
   -0.2344    3.2522    2.3130 H   0  0  0  0  0  0  0  0  0  0  0  0
    1.4265    3.0377    2.9233 H   0  0  0  0  0  0  0  0  0  0  0  0
    1.1511    3.7014    1.2950 H   0  0  0  0  0  0  0  0  0  0  0  0
  5  6  2  0  0  0  0
  5  7  1  0  0  0  0
  2  3  1  0  0  0  0
  2  4  1  0  0  0  0
  2  5  1  0  0  0  0
  1  2  1  0  0  0  0
 17 18  2  0  0  0  0
 17 19  1  0  0  0  0
 14 15  1  0  0  0  0
 14 16  2  0  0  0  0
 11 12  1  0  0  0  0
 11 13  1  0  0  0  0
 11 14  1  0  0  0  0
  9 10  1  0  0  0  0
  9 11  1  0  0  0  0
  9 17  1  0  0  0  0
  7  8  1  0  0  0  0
  7  9  1  0  0  0  0
 21 22  1  0  0  0  0
 21 23  1  0  0  0  0
 21 24  1  0  0  0  0
 19 20  1  0  0  0  0
 19 21  1  0  0  0  0
M  CHG  1  15  -1
M  END
$$$$
default_name
  -OEChem-02102213163D

 24 23  0     1  0  0  0  0  0999 V2000
   -2.8347   -3.7166    0.8034 H   0  0  0  0  0  0  0  0  0  0  0  0
   -2.7728   -2.7096    0.3954 C   0  0  0  0  0  0  0  0  0  0  0  0
   -3.4267   -2.0426    0.9524 H   0  0  0  0  0  0  0  0  0  0  0  0
   -3.0538   -2.7186   -0.6556 H   0  0  0  0  0  0  0  0  0  0  0  0
   -1.3498   -2.2206    0.5184 C   0  0  0  0  0  0  0  0  0  0  0  0
   -0.4997   -2.9426    1.0194 O   0  0  0  0  0  0  0  0  0  0  0  0
   -1.1198   -0.9926    0.0674 N   0  0  0  0  0  0  0  0  0  0  0  0
   -1.8978   -0.4486   -0.2716 H   0  0  0  0  0  0  0  0  0  0  0  0
    0.1693   -0.2866    0.0854 C   0  0  1  0  0  0  0  0  0  0  0  0
    0.8425   -0.7905    0.7811 H   0  0  0  0  0  0  0  0  0  0  0  0
    0.7993   -0.3404   -1.3233 C   0  0  0  0  0  0  0  0  0  0  0  0
    1.7581    0.1804   -1.2982 H   0  0  0  0  0  0  0  0  0  0  0  0
    0.9937   -1.3834   -1.5823 H   0  0  0  0  0  0  0  0  0  0  0  0
   -0.0518    0.3059   -2.4276 C   0  0  0  0  0  0  0  0  0  0  0  0
    0.2342    0.0630   -3.6237 O   0  5  0  0  0  0  0  0  0  0  0  0
   -0.9785    1.0603   -2.0613 O   0  0  0  0  0  0  0  0  0  0  0  0
   -0.0374    1.1645    0.5781 C   0  0  0  0  0  0  0  0  0  0  0  0
   -0.9816    1.8416    0.1544 O   0  0  0  0  0  0  0  0  0  0  0  0
    0.8235    1.6462    1.4801 N   0  0  0  0  0  0  0  0  0  0  0  0
    1.6183    1.0435    1.7020 H   0  0  0  0  0  0  0  0  0  0  0  0
    0.7895    2.9929    2.0404 C   0  0  0  0  0  0  0  0  0  0  0  0
   -0.2344    3.2522    2.3130 H   0  0  0  0  0  0  0  0  0  0  0  0
    1.4265    3.0377    2.9233 H   0  0  0  0  0  0  0  0  0  0  0  0
    1.1511    3.7014    1.2950 H   0  0  0  0  0  0  0  0  0  0  0  0
  5  6  2  0  0  0  0
  5  7  1  0  0  0  0
  2  3  1  0  0  0  0
  2  4  1  0  0  0  0
  2  5  1  0  0  0  0
  1  2  1  0  0  0  0
 17 18  2  0  0  0  0
 17 19  1  0  0  0  0
 14 15  1  0  0  0  0
 14 16  2  0  0  0  0
 11 12  1  0  0  0  0
 11 13  1  0  0  0  0
 11 14  1  0  0  0  0
  9 10  1  0  0  0  0
  9 11  1  0  0  0  0
  9 17  1  0  0  0  0
  7  8  1  0  0  0  0
  7  9  1  0  0  0  0
 21 22  1  0  0  0  0
 21 23  1  0  0  0  0
 21 24  1  0  0  0  0
 19 20  1  0  0  0  0
 19 21  1  0  0  0  0
M  CHG  1  15  -1
M  END
$$$$
default_name
  -OEChem-02102213163D

 24 23  0     1  0  0  0  0  0999 V2000
   -2.8347   -3.7166    0.8034 H   0  0  0  0  0  0  0  0  0  0  0  0
   -2.7728   -2.7096    0.3954 C   0  0  0  0  0  0  0  0  0  0  0  0
   -3.4267   -2.0426    0.9524 H   0  0  0  0  0  0  0  0  0  0  0  0
   -3.0538   -2.7186   -0.6556 H   0  0  0  0  0  0  0  0  0  0  0  0
   -1.3498   -2.2206    0.5184 C   0  0  0  0  0  0  0  0  0  0  0  0
   -0.4997   -2.9426    1.0194 O   0  0  0  0  0  0  0  0  0  0  0  0
   -1.1198   -0.9926    0.0674 N   0  0  0  0  0  0  0  0  0  0  0  0
   -1.8978   -0.4486   -0.2716 H   0  0  0  0  0  0  0  0  0  0  0  0
    0.1693   -0.2866    0.0854 C   0  0  1  0  0  0  0  0  0  0  0  0
    0.8425   -0.7905    0.7811 H   0  0  0  0  0  0  0  0  0  0  0  0
    0.7993   -0.3404   -1.3233 C   0  0  0  0  0  0  0  0  0  0  0  0
    1.7581    0.1804   -1.2982 H   0  0  0  0  0  0  0  0  0  0  0  0
    0.9937   -1.3834   -1.5823 H   0  0  0  0  0  0  0  0  0  0  0  0
   -0.0518    0.3059   -2.4276 C   0  0  0  0  0  0  0  0  0  0  0  0
    0.0378   -0.1448   -3.5940 O   0  5  0  0  0  0  0  0  0  0  0  0
   -0.7775    1.2676   -2.0949 O   0  0  0  0  0  0  0  0  0  0  0  0
   -0.0374    1.1645    0.5781 C   0  0  0  0  0  0  0  0  0  0  0  0
   -0.9816    1.8416    0.1544 O   0  0  0  0  0  0  0  0  0  0  0  0
    0.8235    1.6462    1.4801 N   0  0  0  0  0  0  0  0  0  0  0  0
    1.6183    1.0435    1.7020 H   0  0  0  0  0  0  0  0  0  0  0  0
    0.7895    2.9929    2.0404 C   0  0  0  0  0  0  0  0  0  0  0  0
   -0.2344    3.2522    2.3130 H   0  0  0  0  0  0  0  0  0  0  0  0
    1.4265    3.0377    2.9233 H   0  0  0  0  0  0  0  0  0  0  0  0
    1.1511    3.7014    1.2950 H   0  0  0  0  0  0  0  0  0  0  0  0
  5  6  2  0  0  0  0
  5  7  1  0  0  0  0
  2  3  1  0  0  0  0
  2  4  1  0  0  0  0
  2  5  1  0  0  0  0
  1  2  1  0  0  0  0
 17 18  2  0  0  0  0
 17 19  1  0  0  0  0
 14 15  1  0  0  0  0
 14 16  2  0  0  0  0
 11 12  1  0  0  0  0
 11 13  1  0  0  0  0
 11 14  1  0  0  0  0
  9 10  1  0  0  0  0
  9 11  1  0  0  0  0
  9 17  1  0  0  0  0
  7  8  1  0  0  0  0
  7  9  1  0  0  0  0
 21 22  1  0  0  0  0
 21 23  1  0  0  0  0
 21 24  1  0  0  0  0
 19 20  1  0  0  0  0
 19 21  1  0  0  0  0
M  CHG  1  15  -1
M  END
$$$$
default_name
  -OEChem-02102213163D

 24 23  0     1  0  0  0  0  0999 V2000
   -2.8347   -3.7166    0.8034 H   0  0  0  0  0  0  0  0  0  0  0  0
   -2.7728   -2.7096    0.3954 C   0  0  0  0  0  0  0  0  0  0  0  0
   -3.4267   -2.0426    0.9524 H   0  0  0  0  0  0  0  0  0  0  0  0
   -3.0538   -2.7186   -0.6556 H   0  0  0  0  0  0  0  0  0  0  0  0
   -1.3498   -2.2206    0.5184 C   0  0  0  0  0  0  0  0  0  0  0  0
   -0.4997   -2.9426    1.0194 O   0  0  0  0  0  0  0  0  0  0  0  0
   -1.1198   -0.9926    0.0674 N   0  0  0  0  0  0  0  0  0  0  0  0
   -1.8978   -0.4486   -0.2716 H   0  0  0  0  0  0  0  0  0  0  0  0
    0.1693   -0.2866    0.0854 C   0  0  1  0  0  0  0  0  0  0  0  0
    0.8425   -0.7905    0.7811 H   0  0  0  0  0  0  0  0  0  0  0  0
    0.7993   -0.3404   -1.3233 C   0  0  0  0  0  0  0  0  0  0  0  0
    1.7581    0.1804   -1.2982 H   0  0  0  0  0  0  0  0  0  0  0  0
    0.9937   -1.3834   -1.5823 H   0  0  0  0  0  0  0  0  0  0  0  0
   -0.0518    0.3059   -2.4276 C   0  0  0  0  0  0  0  0  0  0  0  0
   -0.1874   -0.3047   -3.5140 O   0  5  0  0  0  0  0  0  0  0  0  0
   -0.5484    1.4256   -2.1790 O   0  0  0  0  0  0  0  0  0  0  0  0
   -0.0374    1.1645    0.5781 C   0  0  0  0  0  0  0  0  0  0  0  0
   -0.9816    1.8416    0.1544 O   0  0  0  0  0  0  0  0  0  0  0  0
    0.8235    1.6462    1.4801 N   0  0  0  0  0  0  0  0  0  0  0  0
    1.6183    1.0435    1.7020 H   0  0  0  0  0  0  0  0  0  0  0  0
    0.7895    2.9929    2.0404 C   0  0  0  0  0  0  0  0  0  0  0  0
   -0.2344    3.2522    2.3130 H   0  0  0  0  0  0  0  0  0  0  0  0
    1.4265    3.0377    2.9233 H   0  0  0  0  0  0  0  0  0  0  0  0
    1.1511    3.7014    1.2950 H   0  0  0  0  0  0  0  0  0  0  0  0
  5  6  2  0  0  0  0
  5  7  1  0  0  0  0
  2  3  1  0  0  0  0
  2  4  1  0  0  0  0
  2  5  1  0  0  0  0
  1  2  1  0  0  0  0
 17 18  2  0  0  0  0
 17 19  1  0  0  0  0
 14 15  1  0  0  0  0
 14 16  2  0  0  0  0
 11 12  1  0  0  0  0
 11 13  1  0  0  0  0
 11 14  1  0  0  0  0
  9 10  1  0  0  0  0
  9 11  1  0  0  0  0
  9 17  1  0  0  0  0
  7  8  1  0  0  0  0
  7  9  1  0  0  0  0
 21 22  1  0  0  0  0
 21 23  1  0  0  0  0
 21 24  1  0  0  0  0
 19 20  1  0  0  0  0
 19 21  1  0  0  0  0
M  CHG  1  15  -1
M  END
$$$$
default_name
  -OEChem-02102213163D

 24 23  0     1  0  0  0  0  0999 V2000
   -2.8347   -3.7166    0.8034 H   0  0  0  0  0  0  0  0  0  0  0  0
   -2.7728   -2.7096    0.3954 C   0  0  0  0  0  0  0  0  0  0  0  0
   -3.4267   -2.0426    0.9524 H   0  0  0  0  0  0  0  0  0  0  0  0
   -3.0538   -2.7186   -0.6556 H   0  0  0  0  0  0  0  0  0  0  0  0
   -1.3498   -2.2206    0.5184 C   0  0  0  0  0  0  0  0  0  0  0  0
   -0.4997   -2.9426    1.0194 O   0  0  0  0  0  0  0  0  0  0  0  0
   -1.1198   -0.9926    0.0674 N   0  0  0  0  0  0  0  0  0  0  0  0
   -1.8978   -0.4486   -0.2716 H   0  0  0  0  0  0  0  0  0  0  0  0
    0.1693   -0.2866    0.0854 C   0  0  1  0  0  0  0  0  0  0  0  0
    0.8425   -0.7905    0.7811 H   0  0  0  0  0  0  0  0  0  0  0  0
    0.7993   -0.3404   -1.3233 C   0  0  0  0  0  0  0  0  0  0  0  0
    1.7581    0.1804   -1.2982 H   0  0  0  0  0  0  0  0  0  0  0  0
    0.9937   -1.3834   -1.5823 H   0  0  0  0  0  0  0  0  0  0  0  0
   -0.0518    0.3059   -2.4276 C   0  0  0  0  0  0  0  0  0  0  0  0
   -0.4259   -0.4059   -3.3894 O   0  5  0  0  0  0  0  0  0  0  0  0
   -0.3069    1.5236   -2.3078 O   0  0  0  0  0  0  0  0  0  0  0  0
   -0.0374    1.1645    0.5781 C   0  0  0  0  0  0  0  0  0  0  0  0
   -0.9816    1.8416    0.1544 O   0  0  0  0  0  0  0  0  0  0  0  0
    0.8235    1.6462    1.4801 N   0  0  0  0  0  0  0  0  0  0  0  0
    1.6183    1.0435    1.7020 H   0  0  0  0  0  0  0  0  0  0  0  0
    0.7895    2.9929    2.0404 C   0  0  0  0  0  0  0  0  0  0  0  0
   -0.2344    3.2522    2.3130 H   0  0  0  0  0  0  0  0  0  0  0  0
    1.4265    3.0377    2.9233 H   0  0  0  0  0  0  0  0  0  0  0  0
    1.1511    3.7014    1.2950 H   0  0  0  0  0  0  0  0  0  0  0  0
  5  6  2  0  0  0  0
  5  7  1  0  0  0  0
  2  3  1  0  0  0  0
  2  4  1  0  0  0  0
  2  5  1  0  0  0  0
  1  2  1  0  0  0  0
 17 18  2  0  0  0  0
 17 19  1  0  0  0  0
 14 15  1  0  0  0  0
 14 16  2  0  0  0  0
 11 12  1  0  0  0  0
 11 13  1  0  0  0  0
 11 14  1  0  0  0  0
  9 10  1  0  0  0  0
  9 11  1  0  0  0  0
  9 17  1  0  0  0  0
  7  8  1  0  0  0  0
  7  9  1  0  0  0  0
 21 22  1  0  0  0  0
 21 23  1  0  0  0  0
 21 24  1  0  0  0  0
 19 20  1  0  0  0  0
 19 21  1  0  0  0  0
M  CHG  1  15  -1
M  END
$$$$
default_name
  -OEChem-02102213163D

 24 23  0     1  0  0  0  0  0999 V2000
   -2.8347   -3.7166    0.8034 H   0  0  0  0  0  0  0  0  0  0  0  0
   -2.7728   -2.7096    0.3954 C   0  0  0  0  0  0  0  0  0  0  0  0
   -3.4267   -2.0426    0.9524 H   0  0  0  0  0  0  0  0  0  0  0  0
   -3.0538   -2.7186   -0.6556 H   0  0  0  0  0  0  0  0  0  0  0  0
   -1.3498   -2.2206    0.5184 C   0  0  0  0  0  0  0  0  0  0  0  0
   -0.4997   -2.9426    1.0194 O   0  0  0  0  0  0  0  0  0  0  0  0
   -1.1198   -0.9926    0.0674 N   0  0  0  0  0  0  0  0  0  0  0  0
   -1.8978   -0.4486   -0.2716 H   0  0  0  0  0  0  0  0  0  0  0  0
    0.1693   -0.2866    0.0854 C   0  0  1  0  0  0  0  0  0  0  0  0
    0.8425   -0.7905    0.7811 H   0  0  0  0  0  0  0  0  0  0  0  0
    0.7993   -0.3404   -1.3233 C   0  0  0  0  0  0  0  0  0  0  0  0
    1.7581    0.1804   -1.2982 H   0  0  0  0  0  0  0  0  0  0  0  0
    0.9937   -1.3834   -1.5823 H   0  0  0  0  0  0  0  0  0  0  0  0
   -0.0518    0.3059   -2.4276 C   0  0  0  0  0  0  0  0  0  0  0  0
   -0.6615   -0.4413   -3.2285 O   0  5  0  0  0  0  0  0  0  0  0  0
   -0.0694    1.5548   -2.4726 O   0  0  0  0  0  0  0  0  0  0  0  0
   -0.0374    1.1645    0.5781 C   0  0  0  0  0  0  0  0  0  0  0  0
   -0.9816    1.8416    0.1544 O   0  0  0  0  0  0  0  0  0  0  0  0
    0.8235    1.6462    1.4801 N   0  0  0  0  0  0  0  0  0  0  0  0
    1.6183    1.0435    1.7020 H   0  0  0  0  0  0  0  0  0  0  0  0
    0.7895    2.9929    2.0404 C   0  0  0  0  0  0  0  0  0  0  0  0
   -0.2344    3.2522    2.3130 H   0  0  0  0  0  0  0  0  0  0  0  0
    1.4265    3.0377    2.9233 H   0  0  0  0  0  0  0  0  0  0  0  0
    1.1511    3.7014    1.2950 H   0  0  0  0  0  0  0  0  0  0  0  0
  5  6  2  0  0  0  0
  5  7  1  0  0  0  0
  2  3  1  0  0  0  0
  2  4  1  0  0  0  0
  2  5  1  0  0  0  0
  1  2  1  0  0  0  0
 17 18  2  0  0  0  0
 17 19  1  0  0  0  0
 14 15  1  0  0  0  0
 14 16  2  0  0  0  0
 11 12  1  0  0  0  0
 11 13  1  0  0  0  0
 11 14  1  0  0  0  0
  9 10  1  0  0  0  0
  9 11  1  0  0  0  0
  9 17  1  0  0  0  0
  7  8  1  0  0  0  0
  7  9  1  0  0  0  0
 21 22  1  0  0  0  0
 21 23  1  0  0  0  0
 21 24  1  0  0  0  0
 19 20  1  0  0  0  0
 19 21  1  0  0  0  0
M  CHG  1  15  -1
M  END
$$$$
default_name
  -OEChem-02102213163D

 24 23  0     1  0  0  0  0  0999 V2000
   -2.8347   -3.7166    0.8034 H   0  0  0  0  0  0  0  0  0  0  0  0
   -2.7728   -2.7096    0.3954 C   0  0  0  0  0  0  0  0  0  0  0  0
   -3.4267   -2.0426    0.9524 H   0  0  0  0  0  0  0  0  0  0  0  0
   -3.0538   -2.7186   -0.6556 H   0  0  0  0  0  0  0  0  0  0  0  0
   -1.3498   -2.2206    0.5184 C   0  0  0  0  0  0  0  0  0  0  0  0
   -0.4997   -2.9426    1.0194 O   0  0  0  0  0  0  0  0  0  0  0  0
   -1.1198   -0.9926    0.0674 N   0  0  0  0  0  0  0  0  0  0  0  0
   -1.8978   -0.4486   -0.2716 H   0  0  0  0  0  0  0  0  0  0  0  0
    0.1693   -0.2866    0.0854 C   0  0  1  0  0  0  0  0  0  0  0  0
    0.8425   -0.7905    0.7811 H   0  0  0  0  0  0  0  0  0  0  0  0
    0.7993   -0.3404   -1.3233 C   0  0  0  0  0  0  0  0  0  0  0  0
    1.7581    0.1804   -1.2982 H   0  0  0  0  0  0  0  0  0  0  0  0
    0.9937   -1.3834   -1.5823 H   0  0  0  0  0  0  0  0  0  0  0  0
   -0.0518    0.3059   -2.4276 C   0  0  0  0  0  0  0  0  0  0  0  0
   -0.8782   -0.4087   -3.0424 O   0  5  0  0  0  0  0  0  0  0  0  0
    0.1479    1.5172   -2.6621 O   0  0  0  0  0  0  0  0  0  0  0  0
   -0.0374    1.1645    0.5781 C   0  0  0  0  0  0  0  0  0  0  0  0
   -0.9816    1.8416    0.1544 O   0  0  0  0  0  0  0  0  0  0  0  0
    0.8235    1.6462    1.4801 N   0  0  0  0  0  0  0  0  0  0  0  0
    1.6183    1.0435    1.7020 H   0  0  0  0  0  0  0  0  0  0  0  0
    0.7895    2.9929    2.0404 C   0  0  0  0  0  0  0  0  0  0  0  0
   -0.2344    3.2522    2.3130 H   0  0  0  0  0  0  0  0  0  0  0  0
    1.4265    3.0377    2.9233 H   0  0  0  0  0  0  0  0  0  0  0  0
    1.1511    3.7014    1.2950 H   0  0  0  0  0  0  0  0  0  0  0  0
  5  6  2  0  0  0  0
  5  7  1  0  0  0  0
  2  3  1  0  0  0  0
  2  4  1  0  0  0  0
  2  5  1  0  0  0  0
  1  2  1  0  0  0  0
 17 18  2  0  0  0  0
 17 19  1  0  0  0  0
 14 15  1  0  0  0  0
 14 16  2  0  0  0  0
 11 12  1  0  0  0  0
 11 13  1  0  0  0  0
 11 14  1  0  0  0  0
  9 10  1  0  0  0  0
  9 11  1  0  0  0  0
  9 17  1  0  0  0  0
  7  8  1  0  0  0  0
  7  9  1  0  0  0  0
 21 22  1  0  0  0  0
 21 23  1  0  0  0  0
 21 24  1  0  0  0  0
 19 20  1  0  0  0  0
 19 21  1  0  0  0  0
M  CHG  1  15  -1
M  END
$$$$
default_name
  -OEChem-02102213163D

 24 23  0     1  0  0  0  0  0999 V2000
   -2.8347   -3.7166    0.8034 H   0  0  0  0  0  0  0  0  0  0  0  0
   -2.7728   -2.7096    0.3954 C   0  0  0  0  0  0  0  0  0  0  0  0
   -3.4267   -2.0426    0.9524 H   0  0  0  0  0  0  0  0  0  0  0  0
   -3.0538   -2.7186   -0.6556 H   0  0  0  0  0  0  0  0  0  0  0  0
   -1.3498   -2.2206    0.5184 C   0  0  0  0  0  0  0  0  0  0  0  0
   -0.4997   -2.9426    1.0194 O   0  0  0  0  0  0  0  0  0  0  0  0
   -1.1198   -0.9926    0.0674 N   0  0  0  0  0  0  0  0  0  0  0  0
   -1.8978   -0.4486   -0.2716 H   0  0  0  0  0  0  0  0  0  0  0  0
    0.1693   -0.2866    0.0854 C   0  0  1  0  0  0  0  0  0  0  0  0
    0.8425   -0.7905    0.7811 H   0  0  0  0  0  0  0  0  0  0  0  0
    0.7993   -0.3404   -1.3233 C   0  0  0  0  0  0  0  0  0  0  0  0
    1.7581    0.1804   -1.2982 H   0  0  0  0  0  0  0  0  0  0  0  0
    0.9937   -1.3834   -1.5823 H   0  0  0  0  0  0  0  0  0  0  0  0
   -0.0518    0.3059   -2.4276 C   0  0  0  0  0  0  0  0  0  0  0  0
   -1.0612   -0.3102   -2.8438 O   0  5  0  0  0  0  0  0  0  0  0  0
    0.3302    1.4133   -2.8633 O   0  0  0  0  0  0  0  0  0  0  0  0
   -0.0374    1.1645    0.5781 C   0  0  0  0  0  0  0  0  0  0  0  0
   -0.9816    1.8416    0.1544 O   0  0  0  0  0  0  0  0  0  0  0  0
    0.8235    1.6462    1.4801 N   0  0  0  0  0  0  0  0  0  0  0  0
    1.6183    1.0435    1.7020 H   0  0  0  0  0  0  0  0  0  0  0  0
    0.7895    2.9929    2.0404 C   0  0  0  0  0  0  0  0  0  0  0  0
   -0.2344    3.2522    2.3130 H   0  0  0  0  0  0  0  0  0  0  0  0
    1.4265    3.0377    2.9233 H   0  0  0  0  0  0  0  0  0  0  0  0
    1.1511    3.7014    1.2950 H   0  0  0  0  0  0  0  0  0  0  0  0
  5  6  2  0  0  0  0
  5  7  1  0  0  0  0
  2  3  1  0  0  0  0
  2  4  1  0  0  0  0
  2  5  1  0  0  0  0
  1  2  1  0  0  0  0
 17 18  2  0  0  0  0
 17 19  1  0  0  0  0
 14 15  1  0  0  0  0
 14 16  2  0  0  0  0
 11 12  1  0  0  0  0
 11 13  1  0  0  0  0
 11 14  1  0  0  0  0
  9 10  1  0  0  0  0
  9 11  1  0  0  0  0
  9 17  1  0  0  0  0
  7  8  1  0  0  0  0
  7  9  1  0  0  0  0
 21 22  1  0  0  0  0
 21 23  1  0  0  0  0
 21 24  1  0  0  0  0
 19 20  1  0  0  0  0
 19 21  1  0  0  0  0
M  CHG  1  15  -1
M  END
$$$$
default_name
  -OEChem-02102213163D

 24 23  0     1  0  0  0  0  0999 V2000
   -2.8347   -3.7166    0.8034 H   0  0  0  0  0  0  0  0  0  0  0  0
   -2.7728   -2.7096    0.3954 C   0  0  0  0  0  0  0  0  0  0  0  0
   -3.4267   -2.0426    0.9524 H   0  0  0  0  0  0  0  0  0  0  0  0
   -3.0538   -2.7186   -0.6556 H   0  0  0  0  0  0  0  0  0  0  0  0
   -1.3498   -2.2206    0.5184 C   0  0  0  0  0  0  0  0  0  0  0  0
   -0.4997   -2.9426    1.0194 O   0  0  0  0  0  0  0  0  0  0  0  0
   -1.1198   -0.9926    0.0674 N   0  0  0  0  0  0  0  0  0  0  0  0
   -1.8978   -0.4486   -0.2716 H   0  0  0  0  0  0  0  0  0  0  0  0
    0.1693   -0.2866    0.0854 C   0  0  1  0  0  0  0  0  0  0  0  0
    0.8425   -0.7905    0.7811 H   0  0  0  0  0  0  0  0  0  0  0  0
    0.7993   -0.3404   -1.3233 C   0  0  0  0  0  0  0  0  0  0  0  0
    1.7581    0.1804   -1.2982 H   0  0  0  0  0  0  0  0  0  0  0  0
    0.9937   -1.3834   -1.5823 H   0  0  0  0  0  0  0  0  0  0  0  0
   -0.0518    0.3059   -2.4276 C   0  0  0  0  0  0  0  0  0  0  0  0
   -1.1980   -0.1525   -2.6461 O   0  5  0  0  0  0  0  0  0  0  0  0
    0.4650    1.2502   -3.0627 O   0  0  0  0  0  0  0  0  0  0  0  0
   -0.0374    1.1645    0.5781 C   0  0  0  0  0  0  0  0  0  0  0  0
   -0.9816    1.8416    0.1544 O   0  0  0  0  0  0  0  0  0  0  0  0
    0.8235    1.6462    1.4801 N   0  0  0  0  0  0  0  0  0  0  0  0
    1.6183    1.0435    1.7020 H   0  0  0  0  0  0  0  0  0  0  0  0
    0.7895    2.9929    2.0404 C   0  0  0  0  0  0  0  0  0  0  0  0
   -0.2344    3.2522    2.3130 H   0  0  0  0  0  0  0  0  0  0  0  0
    1.4265    3.0377    2.9233 H   0  0  0  0  0  0  0  0  0  0  0  0
    1.1511    3.7014    1.2950 H   0  0  0  0  0  0  0  0  0  0  0  0
  5  6  2  0  0  0  0
  5  7  1  0  0  0  0
  2  3  1  0  0  0  0
  2  4  1  0  0  0  0
  2  5  1  0  0  0  0
  1  2  1  0  0  0  0
 17 18  2  0  0  0  0
 17 19  1  0  0  0  0
 14 15  1  0  0  0  0
 14 16  2  0  0  0  0
 11 12  1  0  0  0  0
 11 13  1  0  0  0  0
 11 14  1  0  0  0  0
  9 10  1  0  0  0  0
  9 11  1  0  0  0  0
  9 17  1  0  0  0  0
  7  8  1  0  0  0  0
  7  9  1  0  0  0  0
 21 22  1  0  0  0  0
 21 23  1  0  0  0  0
 21 24  1  0  0  0  0
 19 20  1  0  0  0  0
 19 21  1  0  0  0  0
M  CHG  1  15  -1
M  END
$$$$
default_name
  -OEChem-02102213163D

 24 23  0     1  0  0  0  0  0999 V2000
   -2.8347   -3.7166    0.8034 H   0  0  0  0  0  0  0  0  0  0  0  0
   -2.7728   -2.7096    0.3954 C   0  0  0  0  0  0  0  0  0  0  0  0
   -3.4267   -2.0426    0.9524 H   0  0  0  0  0  0  0  0  0  0  0  0
   -3.0538   -2.7186   -0.6556 H   0  0  0  0  0  0  0  0  0  0  0  0
   -1.3498   -2.2206    0.5184 C   0  0  0  0  0  0  0  0  0  0  0  0
   -0.4997   -2.9426    1.0194 O   0  0  0  0  0  0  0  0  0  0  0  0
   -1.1198   -0.9926    0.0674 N   0  0  0  0  0  0  0  0  0  0  0  0
   -1.8978   -0.4486   -0.2716 H   0  0  0  0  0  0  0  0  0  0  0  0
    0.1693   -0.2866    0.0854 C   0  0  1  0  0  0  0  0  0  0  0  0
    0.8425   -0.7905    0.7811 H   0  0  0  0  0  0  0  0  0  0  0  0
    0.7993   -0.3404   -1.3233 C   0  0  0  0  0  0  0  0  0  0  0  0
    1.7581    0.1804   -1.2982 H   0  0  0  0  0  0  0  0  0  0  0  0
    0.9937   -1.3834   -1.5823 H   0  0  0  0  0  0  0  0  0  0  0  0
   -0.0518    0.3059   -2.4276 C   0  0  0  0  0  0  0  0  0  0  0  0
   -1.2793    0.0535   -2.4628 O   0  5  0  0  0  0  0  0  0  0  0  0
    0.5432    1.0390   -3.2465 O   0  0  0  0  0  0  0  0  0  0  0  0
   -0.0374    1.1645    0.5781 C   0  0  0  0  0  0  0  0  0  0  0  0
   -0.9816    1.8416    0.1544 O   0  0  0  0  0  0  0  0  0  0  0  0
    0.8235    1.6462    1.4801 N   0  0  0  0  0  0  0  0  0  0  0  0
    1.6183    1.0435    1.7020 H   0  0  0  0  0  0  0  0  0  0  0  0
    0.7895    2.9929    2.0404 C   0  0  0  0  0  0  0  0  0  0  0  0
   -0.2344    3.2522    2.3130 H   0  0  0  0  0  0  0  0  0  0  0  0
    1.4265    3.0377    2.9233 H   0  0  0  0  0  0  0  0  0  0  0  0
    1.1511    3.7014    1.2950 H   0  0  0  0  0  0  0  0  0  0  0  0
  5  6  2  0  0  0  0
  5  7  1  0  0  0  0
  2  3  1  0  0  0  0
  2  4  1  0  0  0  0
  2  5  1  0  0  0  0
  1  2  1  0  0  0  0
 17 18  2  0  0  0  0
 17 19  1  0  0  0  0
 14 15  1  0  0  0  0
 14 16  2  0  0  0  0
 11 12  1  0  0  0  0
 11 13  1  0  0  0  0
 11 14  1  0  0  0  0
  9 10  1  0  0  0  0
  9 11  1  0  0  0  0
  9 17  1  0  0  0  0
  7  8  1  0  0  0  0
  7  9  1  0  0  0  0
 21 22  1  0  0  0  0
 21 23  1  0  0  0  0
 21 24  1  0  0  0  0
 19 20  1  0  0  0  0
 19 21  1  0  0  0  0
M  CHG  1  15  -1
M  END
$$$$
default_name
  -OEChem-02102213163D

 24 23  0     1  0  0  0  0  0999 V2000
   -2.8347   -3.7166    0.8034 H   0  0  0  0  0  0  0  0  0  0  0  0
   -2.7728   -2.7096    0.3954 C   0  0  0  0  0  0  0  0  0  0  0  0
   -3.4267   -2.0426    0.9524 H   0  0  0  0  0  0  0  0  0  0  0  0
   -3.0538   -2.7186   -0.6556 H   0  0  0  0  0  0  0  0  0  0  0  0
   -1.3498   -2.2206    0.5184 C   0  0  0  0  0  0  0  0  0  0  0  0
   -0.4997   -2.9426    1.0194 O   0  0  0  0  0  0  0  0  0  0  0  0
   -1.1198   -0.9926    0.0674 N   0  0  0  0  0  0  0  0  0  0  0  0
   -1.8978   -0.4486   -0.2716 H   0  0  0  0  0  0  0  0  0  0  0  0
    0.1693   -0.2866    0.0854 C   0  0  1  0  0  0  0  0  0  0  0  0
    0.8425   -0.7905    0.7811 H   0  0  0  0  0  0  0  0  0  0  0  0
    0.7993   -0.3404   -1.3233 C   0  0  0  0  0  0  0  0  0  0  0  0
    1.7581    0.1804   -1.2982 H   0  0  0  0  0  0  0  0  0  0  0  0
    0.9937   -1.3834   -1.5823 H   0  0  0  0  0  0  0  0  0  0  0  0
   -0.0518    0.3059   -2.4276 C   0  0  0  0  0  0  0  0  0  0  0  0
   -1.2995    0.2940   -2.3065 O   0  5  0  0  0  0  0  0  0  0  0  0
    0.5594    0.7941   -3.4024 O   0  0  0  0  0  0  0  0  0  0  0  0
   -0.0374    1.1645    0.5781 C   0  0  0  0  0  0  0  0  0  0  0  0
   -0.9816    1.8416    0.1544 O   0  0  0  0  0  0  0  0  0  0  0  0
    0.8235    1.6462    1.4801 N   0  0  0  0  0  0  0  0  0  0  0  0
    1.6183    1.0435    1.7020 H   0  0  0  0  0  0  0  0  0  0  0  0
    0.7895    2.9929    2.0404 C   0  0  0  0  0  0  0  0  0  0  0  0
   -0.2344    3.2522    2.3130 H   0  0  0  0  0  0  0  0  0  0  0  0
    1.4265    3.0377    2.9233 H   0  0  0  0  0  0  0  0  0  0  0  0
    1.1511    3.7014    1.2950 H   0  0  0  0  0  0  0  0  0  0  0  0
  5  6  2  0  0  0  0
  5  7  1  0  0  0  0
  2  3  1  0  0  0  0
  2  4  1  0  0  0  0
  2  5  1  0  0  0  0
  1  2  1  0  0  0  0
 17 18  2  0  0  0  0
 17 19  1  0  0  0  0
 14 15  1  0  0  0  0
 14 16  2  0  0  0  0
 11 12  1  0  0  0  0
 11 13  1  0  0  0  0
 11 14  1  0  0  0  0
  9 10  1  0  0  0  0
  9 11  1  0  0  0  0
  9 17  1  0  0  0  0
  7  8  1  0  0  0  0
  7  9  1  0  0  0  0
 21 22  1  0  0  0  0
 21 23  1  0  0  0  0
 21 24  1  0  0  0  0
 19 20  1  0  0  0  0
 19 21  1  0  0  0  0
M  CHG  1  15  -1
M  END
$$$$
default_name
  -OEChem-02102213163D

 24 23  0     1  0  0  0  0  0999 V2000
   -2.8347   -3.7166    0.8034 H   0  0  0  0  0  0  0  0  0  0  0  0
   -2.7728   -2.7096    0.3954 C   0  0  0  0  0  0  0  0  0  0  0  0
   -3.4267   -2.0426    0.9524 H   0  0  0  0  0  0  0  0  0  0  0  0
   -3.0538   -2.7186   -0.6556 H   0  0  0  0  0  0  0  0  0  0  0  0
   -1.3498   -2.2206    0.5184 C   0  0  0  0  0  0  0  0  0  0  0  0
   -0.4997   -2.9426    1.0194 O   0  0  0  0  0  0  0  0  0  0  0  0
   -1.1198   -0.9926    0.0674 N   0  0  0  0  0  0  0  0  0  0  0  0
   -1.8978   -0.4486   -0.2716 H   0  0  0  0  0  0  0  0  0  0  0  0
    0.1693   -0.2866    0.0854 C   0  0  1  0  0  0  0  0  0  0  0  0
    0.8425   -0.7905    0.7811 H   0  0  0  0  0  0  0  0  0  0  0  0
    0.7993   -0.3404   -1.3233 C   0  0  0  0  0  0  0  0  0  0  0  0
    1.7581    0.1804   -1.2982 H   0  0  0  0  0  0  0  0  0  0  0  0
    0.9937   -1.3834   -1.5823 H   0  0  0  0  0  0  0  0  0  0  0  0
   -0.0518    0.3059   -2.4276 C   0  0  0  0  0  0  0  0  0  0  0  0
   -1.2573    0.5524   -2.1878 O   0  5  0  0  0  0  0  0  0  0  0  0
    0.5126    0.5322   -3.5196 O   0  0  0  0  0  0  0  0  0  0  0  0
   -0.0374    1.1645    0.5781 C   0  0  0  0  0  0  0  0  0  0  0  0
   -0.9816    1.8416    0.1544 O   0  0  0  0  0  0  0  0  0  0  0  0
    0.8235    1.6462    1.4801 N   0  0  0  0  0  0  0  0  0  0  0  0
    1.6183    1.0435    1.7020 H   0  0  0  0  0  0  0  0  0  0  0  0
    0.7895    2.9929    2.0404 C   0  0  0  0  0  0  0  0  0  0  0  0
   -0.2344    3.2522    2.3130 H   0  0  0  0  0  0  0  0  0  0  0  0
    1.4265    3.0377    2.9233 H   0  0  0  0  0  0  0  0  0  0  0  0
    1.1511    3.7014    1.2950 H   0  0  0  0  0  0  0  0  0  0  0  0
  5  6  2  0  0  0  0
  5  7  1  0  0  0  0
  2  3  1  0  0  0  0
  2  4  1  0  0  0  0
  2  5  1  0  0  0  0
  1  2  1  0  0  0  0
 17 18  2  0  0  0  0
 17 19  1  0  0  0  0
 14 15  1  0  0  0  0
 14 16  2  0  0  0  0
 11 12  1  0  0  0  0
 11 13  1  0  0  0  0
 11 14  1  0  0  0  0
  9 10  1  0  0  0  0
  9 11  1  0  0  0  0
  9 17  1  0  0  0  0
  7  8  1  0  0  0  0
  7  9  1  0  0  0  0
 21 22  1  0  0  0  0
 21 23  1  0  0  0  0
 21 24  1  0  0  0  0
 19 20  1  0  0  0  0
 19 21  1  0  0  0  0
M  CHG  1  15  -1
M  END
$$$$
default_name
  -OEChem-02102213163D

 24 23  0     1  0  0  0  0  0999 V2000
   -2.8347   -3.7166    0.8034 H   0  0  0  0  0  0  0  0  0  0  0  0
   -2.7728   -2.7096    0.3954 C   0  0  0  0  0  0  0  0  0  0  0  0
   -3.4267   -2.0426    0.9524 H   0  0  0  0  0  0  0  0  0  0  0  0
   -3.0538   -2.7186   -0.6556 H   0  0  0  0  0  0  0  0  0  0  0  0
   -1.3498   -2.2206    0.5184 C   0  0  0  0  0  0  0  0  0  0  0  0
   -0.4997   -2.9426    1.0194 O   0  0  0  0  0  0  0  0  0  0  0  0
   -1.1198   -0.9926    0.0674 N   0  0  0  0  0  0  0  0  0  0  0  0
   -1.8978   -0.4486   -0.2716 H   0  0  0  0  0  0  0  0  0  0  0  0
    0.1693   -0.2866    0.0854 C   0  0  1  0  0  0  0  0  0  0  0  0
    0.8425   -0.7905    0.7811 H   0  0  0  0  0  0  0  0  0  0  0  0
    0.7993   -0.3404   -1.3233 C   0  0  0  0  0  0  0  0  0  0  0  0
    1.7581    0.1804   -1.2982 H   0  0  0  0  0  0  0  0  0  0  0  0
    0.9937   -1.3834   -1.5823 H   0  0  0  0  0  0  0  0  0  0  0  0
   -0.0518    0.3059   -2.4276 C   0  0  0  0  0  0  0  0  0  0  0  0
   -1.1556    0.8111   -2.1147 O   0  5  0  0  0  0  0  0  0  0  0  0
    0.4059    0.2711   -3.5901 O   0  0  0  0  0  0  0  0  0  0  0  0
   -0.0374    1.1645    0.5781 C   0  0  0  0  0  0  0  0  0  0  0  0
   -0.9816    1.8416    0.1544 O   0  0  0  0  0  0  0  0  0  0  0  0
    0.8235    1.6462    1.4801 N   0  0  0  0  0  0  0  0  0  0  0  0
    1.6183    1.0435    1.7020 H   0  0  0  0  0  0  0  0  0  0  0  0
    0.7895    2.9929    2.0404 C   0  0  0  0  0  0  0  0  0  0  0  0
   -0.2344    3.2522    2.3130 H   0  0  0  0  0  0  0  0  0  0  0  0
    1.4265    3.0377    2.9233 H   0  0  0  0  0  0  0  0  0  0  0  0
    1.1511    3.7014    1.2950 H   0  0  0  0  0  0  0  0  0  0  0  0
  5  6  2  0  0  0  0
  5  7  1  0  0  0  0
  2  3  1  0  0  0  0
  2  4  1  0  0  0  0
  2  5  1  0  0  0  0
  1  2  1  0  0  0  0
 17 18  2  0  0  0  0
 17 19  1  0  0  0  0
 14 15  1  0  0  0  0
 14 16  2  0  0  0  0
 11 12  1  0  0  0  0
 11 13  1  0  0  0  0
 11 14  1  0  0  0  0
  9 10  1  0  0  0  0
  9 11  1  0  0  0  0
  9 17  1  0  0  0  0
  7  8  1  0  0  0  0
  7  9  1  0  0  0  0
 21 22  1  0  0  0  0
 21 23  1  0  0  0  0
 21 24  1  0  0  0  0
 19 20  1  0  0  0  0
 19 21  1  0  0  0  0
M  CHG  1  15  -1
M  END
$$$$
default_name
  -OEChem-02102213163D

 24 23  0     1  0  0  0  0  0999 V2000
   -2.8347   -3.7166    0.8034 H   0  0  0  0  0  0  0  0  0  0  0  0
   -2.7728   -2.7096    0.3954 C   0  0  0  0  0  0  0  0  0  0  0  0
   -3.4267   -2.0426    0.9524 H   0  0  0  0  0  0  0  0  0  0  0  0
   -3.0538   -2.7186   -0.6556 H   0  0  0  0  0  0  0  0  0  0  0  0
   -1.3498   -2.2206    0.5184 C   0  0  0  0  0  0  0  0  0  0  0  0
   -0.4997   -2.9426    1.0194 O   0  0  0  0  0  0  0  0  0  0  0  0
   -1.1198   -0.9926    0.0674 N   0  0  0  0  0  0  0  0  0  0  0  0
   -1.8978   -0.4486   -0.2716 H   0  0  0  0  0  0  0  0  0  0  0  0
    0.1693   -0.2866    0.0854 C   0  0  1  0  0  0  0  0  0  0  0  0
    0.8425   -0.7905    0.7811 H   0  0  0  0  0  0  0  0  0  0  0  0
    0.7993   -0.3404   -1.3233 C   0  0  0  0  0  0  0  0  0  0  0  0
    1.7581    0.1804   -1.2982 H   0  0  0  0  0  0  0  0  0  0  0  0
    0.9937   -1.3834   -1.5823 H   0  0  0  0  0  0  0  0  0  0  0  0
   -0.0518    0.3059   -2.4276 C   0  0  0  0  0  0  0  0  0  0  0  0
   -1.0013    1.0527   -2.0924 O   0  5  0  0  0  0  0  0  0  0  0  0
    0.2466    0.0286   -3.6092 O   0  0  0  0  0  0  0  0  0  0  0  0
   -0.0374    1.1645    0.5781 C   0  0  0  0  0  0  0  0  0  0  0  0
   -0.9816    1.8416    0.1544 O   0  0  0  0  0  0  0  0  0  0  0  0
    0.8235    1.6462    1.4801 N   0  0  0  0  0  0  0  0  0  0  0  0
    1.6183    1.0435    1.7020 H   0  0  0  0  0  0  0  0  0  0  0  0
    0.7895    2.9929    2.0404 C   0  0  0  0  0  0  0  0  0  0  0  0
   -0.2344    3.2522    2.3130 H   0  0  0  0  0  0  0  0  0  0  0  0
    1.4265    3.0377    2.9233 H   0  0  0  0  0  0  0  0  0  0  0  0
    1.1511    3.7014    1.2950 H   0  0  0  0  0  0  0  0  0  0  0  0
  5  6  2  0  0  0  0
  5  7  1  0  0  0  0
  2  3  1  0  0  0  0
  2  4  1  0  0  0  0
  2  5  1  0  0  0  0
  1  2  1  0  0  0  0
 17 18  2  0  0  0  0
 17 19  1  0  0  0  0
 14 15  1  0  0  0  0
 14 16  2  0  0  0  0
 11 12  1  0  0  0  0
 11 13  1  0  0  0  0
 11 14  1  0  0  0  0
  9 10  1  0  0  0  0
  9 11  1  0  0  0  0
  9 17  1  0  0  0  0
  7  8  1  0  0  0  0
  7  9  1  0  0  0  0
 21 22  1  0  0  0  0
 21 23  1  0  0  0  0
 21 24  1  0  0  0  0
 19 20  1  0  0  0  0
 19 21  1  0  0  0  0
M  CHG  1  15  -1
M  END
$$$$
default_name
  -OEChem-02102213163D

 24 23  0     1  0  0  0  0  0999 V2000
   -2.8347   -3.7166    0.8034 H   0  0  0  0  0  0  0  0  0  0  0  0
   -2.7728   -2.7096    0.3954 C   0  0  0  0  0  0  0  0  0  0  0  0
   -3.4267   -2.0426    0.9524 H   0  0  0  0  0  0  0  0  0  0  0  0
   -3.0538   -2.7186   -0.6556 H   0  0  0  0  0  0  0  0  0  0  0  0
   -1.3498   -2.2206    0.5184 C   0  0  0  0  0  0  0  0  0  0  0  0
   -0.4997   -2.9426    1.0194 O   0  0  0  0  0  0  0  0  0  0  0  0
   -1.1198   -0.9926    0.0674 N   0  0  0  0  0  0  0  0  0  0  0  0
   -1.8978   -0.4486   -0.2716 H   0  0  0  0  0  0  0  0  0  0  0  0
    0.1693   -0.2866    0.0854 C   0  0  1  0  0  0  0  0  0  0  0  0
    0.8425   -0.7905    0.7811 H   0  0  0  0  0  0  0  0  0  0  0  0
    0.7993   -0.3404   -1.3233 C   0  0  0  0  0  0  0  0  0  0  0  0
    1.7581    0.1804   -1.2982 H   0  0  0  0  0  0  0  0  0  0  0  0
    0.9937   -1.3834   -1.5823 H   0  0  0  0  0  0  0  0  0  0  0  0
   -0.0518    0.3059   -2.4276 C   0  0  0  0  0  0  0  0  0  0  0  0
   -0.8049    1.2605   -2.1221 O   0  5  0  0  0  0  0  0  0  0  0  0
    0.0455   -0.1787   -3.5756 O   0  0  0  0  0  0  0  0  0  0  0  0
   -0.0374    1.1645    0.5781 C   0  0  0  0  0  0  0  0  0  0  0  0
   -0.9816    1.8416    0.1544 O   0  0  0  0  0  0  0  0  0  0  0  0
    0.8235    1.6462    1.4801 N   0  0  0  0  0  0  0  0  0  0  0  0
    1.6183    1.0435    1.7020 H   0  0  0  0  0  0  0  0  0  0  0  0
    0.7895    2.9929    2.0404 C   0  0  0  0  0  0  0  0  0  0  0  0
   -0.2344    3.2522    2.3130 H   0  0  0  0  0  0  0  0  0  0  0  0
    1.4265    3.0377    2.9233 H   0  0  0  0  0  0  0  0  0  0  0  0
    1.1511    3.7014    1.2950 H   0  0  0  0  0  0  0  0  0  0  0  0
  5  6  2  0  0  0  0
  5  7  1  0  0  0  0
  2  3  1  0  0  0  0
  2  4  1  0  0  0  0
  2  5  1  0  0  0  0
  1  2  1  0  0  0  0
 17 18  2  0  0  0  0
 17 19  1  0  0  0  0
 14 15  1  0  0  0  0
 14 16  2  0  0  0  0
 11 12  1  0  0  0  0
 11 13  1  0  0  0  0
 11 14  1  0  0  0  0
  9 10  1  0  0  0  0
  9 11  1  0  0  0  0
  9 17  1  0  0  0  0
  7  8  1  0  0  0  0
  7  9  1  0  0  0  0
 21 22  1  0  0  0  0
 21 23  1  0  0  0  0
 21 24  1  0  0  0  0
 19 20  1  0  0  0  0
 19 21  1  0  0  0  0
M  CHG  1  15  -1
M  END
$$$$
default_name
  -OEChem-02102213163D

 24 23  0     1  0  0  0  0  0999 V2000
   -2.8347   -3.7166    0.8034 H   0  0  0  0  0  0  0  0  0  0  0  0
   -2.7728   -2.7096    0.3954 C   0  0  0  0  0  0  0  0  0  0  0  0
   -3.4267   -2.0426    0.9524 H   0  0  0  0  0  0  0  0  0  0  0  0
   -3.0538   -2.7186   -0.6556 H   0  0  0  0  0  0  0  0  0  0  0  0
   -1.3498   -2.2206    0.5184 C   0  0  0  0  0  0  0  0  0  0  0  0
   -0.4997   -2.9426    1.0194 O   0  0  0  0  0  0  0  0  0  0  0  0
   -1.1198   -0.9926    0.0674 N   0  0  0  0  0  0  0  0  0  0  0  0
   -1.8978   -0.4486   -0.2716 H   0  0  0  0  0  0  0  0  0  0  0  0
    0.1693   -0.2866    0.0854 C   0  0  1  0  0  0  0  0  0  0  0  0
    0.8425   -0.7905    0.7811 H   0  0  0  0  0  0  0  0  0  0  0  0
    0.7993   -0.3404   -1.3233 C   0  0  0  0  0  0  0  0  0  0  0  0
    1.7581    0.1804   -1.2982 H   0  0  0  0  0  0  0  0  0  0  0  0
    0.9937   -1.3834   -1.5823 H   0  0  0  0  0  0  0  0  0  0  0  0
   -0.0518    0.3059   -2.4276 C   0  0  0  0  0  0  0  0  0  0  0  0
   -0.5797    1.4204   -2.2021 O   0  5  0  0  0  0  0  0  0  0  0  0
   -0.1836   -0.3367   -3.4915 O   0  0  0  0  0  0  0  0  0  0  0  0
   -0.0374    1.1645    0.5781 C   0  0  0  0  0  0  0  0  0  0  0  0
   -0.9816    1.8416    0.1544 O   0  0  0  0  0  0  0  0  0  0  0  0
    0.8235    1.6462    1.4801 N   0  0  0  0  0  0  0  0  0  0  0  0
    1.6183    1.0435    1.7020 H   0  0  0  0  0  0  0  0  0  0  0  0
    0.7895    2.9929    2.0404 C   0  0  0  0  0  0  0  0  0  0  0  0
   -0.2344    3.2522    2.3130 H   0  0  0  0  0  0  0  0  0  0  0  0
    1.4265    3.0377    2.9233 H   0  0  0  0  0  0  0  0  0  0  0  0
    1.1511    3.7014    1.2950 H   0  0  0  0  0  0  0  0  0  0  0  0
  5  6  2  0  0  0  0
  5  7  1  0  0  0  0
  2  3  1  0  0  0  0
  2  4  1  0  0  0  0
  2  5  1  0  0  0  0
  1  2  1  0  0  0  0
 17 18  2  0  0  0  0
 17 19  1  0  0  0  0
 14 15  1  0  0  0  0
 14 16  2  0  0  0  0
 11 12  1  0  0  0  0
 11 13  1  0  0  0  0
 11 14  1  0  0  0  0
  9 10  1  0  0  0  0
  9 11  1  0  0  0  0
  9 17  1  0  0  0  0
  7  8  1  0  0  0  0
  7  9  1  0  0  0  0
 21 22  1  0  0  0  0
 21 23  1  0  0  0  0
 21 24  1  0  0  0  0
 19 20  1  0  0  0  0
 19 21  1  0  0  0  0
M  CHG  1  15  -1
M  END
$$$$
default_name
  -OEChem-02102213163D

 24 23  0     1  0  0  0  0  0999 V2000
   -2.8347   -3.7166    0.8034 H   0  0  0  0  0  0  0  0  0  0  0  0
   -2.7728   -2.7096    0.3954 C   0  0  0  0  0  0  0  0  0  0  0  0
   -3.4267   -2.0426    0.9524 H   0  0  0  0  0  0  0  0  0  0  0  0
   -3.0538   -2.7186   -0.6556 H   0  0  0  0  0  0  0  0  0  0  0  0
   -1.3498   -2.2206    0.5184 C   0  0  0  0  0  0  0  0  0  0  0  0
   -0.4997   -2.9426    1.0194 O   0  0  0  0  0  0  0  0  0  0  0  0
   -1.1198   -0.9926    0.0674 N   0  0  0  0  0  0  0  0  0  0  0  0
   -1.8978   -0.4486   -0.2716 H   0  0  0  0  0  0  0  0  0  0  0  0
    0.1693   -0.2866    0.0854 C   0  0  1  0  0  0  0  0  0  0  0  0
    0.8425   -0.7905    0.7811 H   0  0  0  0  0  0  0  0  0  0  0  0
    0.7993   -0.3404   -1.3233 C   0  0  0  0  0  0  0  0  0  0  0  0
    1.7581    0.1804   -1.2982 H   0  0  0  0  0  0  0  0  0  0  0  0
    0.9937   -1.3834   -1.5823 H   0  0  0  0  0  0  0  0  0  0  0  0
   -0.0518    0.3059   -2.4276 C   0  0  0  0  0  0  0  0  0  0  0  0
   -0.3412    1.5215   -2.3267 O   0  5  0  0  0  0  0  0  0  0  0  0
   -0.4251   -0.4346   -3.3627 O   0  0  0  0  0  0  0  0  0  0  0  0
   -0.0374    1.1645    0.5781 C   0  0  0  0  0  0  0  0  0  0  0  0
   -0.9816    1.8416    0.1544 O   0  0  0  0  0  0  0  0  0  0  0  0
    0.8235    1.6462    1.4801 N   0  0  0  0  0  0  0  0  0  0  0  0
    1.6183    1.0435    1.7020 H   0  0  0  0  0  0  0  0  0  0  0  0
    0.7895    2.9929    2.0404 C   0  0  0  0  0  0  0  0  0  0  0  0
   -0.2344    3.2522    2.3130 H   0  0  0  0  0  0  0  0  0  0  0  0
    1.4265    3.0377    2.9233 H   0  0  0  0  0  0  0  0  0  0  0  0
    1.1511    3.7014    1.2950 H   0  0  0  0  0  0  0  0  0  0  0  0
  5  6  2  0  0  0  0
  5  7  1  0  0  0  0
  2  3  1  0  0  0  0
  2  4  1  0  0  0  0
  2  5  1  0  0  0  0
  1  2  1  0  0  0  0
 17 18  2  0  0  0  0
 17 19  1  0  0  0  0
 14 15  1  0  0  0  0
 14 16  2  0  0  0  0
 11 12  1  0  0  0  0
 11 13  1  0  0  0  0
 11 14  1  0  0  0  0
  9 10  1  0  0  0  0
  9 11  1  0  0  0  0
  9 17  1  0  0  0  0
  7  8  1  0  0  0  0
  7  9  1  0  0  0  0
 21 22  1  0  0  0  0
 21 23  1  0  0  0  0
 21 24  1  0  0  0  0
 19 20  1  0  0  0  0
 19 21  1  0  0  0  0
M  CHG  1  15  -1
M  END
$$$$
default_name
  -OEChem-02102213163D

 24 23  0     1  0  0  0  0  0999 V2000
   -2.8347   -3.7166    0.8034 H   0  0  0  0  0  0  0  0  0  0  0  0
   -2.7728   -2.7096    0.3954 C   0  0  0  0  0  0  0  0  0  0  0  0
   -3.4267   -2.0426    0.9524 H   0  0  0  0  0  0  0  0  0  0  0  0
   -3.0538   -2.7186   -0.6556 H   0  0  0  0  0  0  0  0  0  0  0  0
   -1.3498   -2.2206    0.5184 C   0  0  0  0  0  0  0  0  0  0  0  0
   -0.4997   -2.9426    1.0194 O   0  0  0  0  0  0  0  0  0  0  0  0
   -1.1198   -0.9926    0.0674 N   0  0  0  0  0  0  0  0  0  0  0  0
   -1.8978   -0.4486   -0.2716 H   0  0  0  0  0  0  0  0  0  0  0  0
    0.1693   -0.2866    0.0854 C   0  0  1  0  0  0  0  0  0  0  0  0
    0.8425   -0.7905    0.7811 H   0  0  0  0  0  0  0  0  0  0  0  0
    0.7993   -0.3404   -1.3233 C   0  0  0  0  0  0  0  0  0  0  0  0
    1.7581    0.1804   -1.2982 H   0  0  0  0  0  0  0  0  0  0  0  0
    0.9937   -1.3834   -1.5823 H   0  0  0  0  0  0  0  0  0  0  0  0
   -0.0518    0.3059   -2.4276 C   0  0  0  0  0  0  0  0  0  0  0  0
   -0.1056    1.5569   -2.4876 O   0  5  0  0  0  0  0  0  0  0  0  0
   -0.6626   -0.4659   -3.1979 O   0  0  0  0  0  0  0  0  0  0  0  0
   -0.0374    1.1645    0.5781 C   0  0  0  0  0  0  0  0  0  0  0  0
   -0.9816    1.8416    0.1544 O   0  0  0  0  0  0  0  0  0  0  0  0
    0.8235    1.6462    1.4801 N   0  0  0  0  0  0  0  0  0  0  0  0
    1.6183    1.0435    1.7020 H   0  0  0  0  0  0  0  0  0  0  0  0
    0.7895    2.9929    2.0404 C   0  0  0  0  0  0  0  0  0  0  0  0
   -0.2344    3.2522    2.3130 H   0  0  0  0  0  0  0  0  0  0  0  0
    1.4265    3.0377    2.9233 H   0  0  0  0  0  0  0  0  0  0  0  0
    1.1511    3.7014    1.2950 H   0  0  0  0  0  0  0  0  0  0  0  0
  5  6  2  0  0  0  0
  5  7  1  0  0  0  0
  2  3  1  0  0  0  0
  2  4  1  0  0  0  0
  2  5  1  0  0  0  0
  1  2  1  0  0  0  0
 17 18  2  0  0  0  0
 17 19  1  0  0  0  0
 14 15  1  0  0  0  0
 14 16  2  0  0  0  0
 11 12  1  0  0  0  0
 11 13  1  0  0  0  0
 11 14  1  0  0  0  0
  9 10  1  0  0  0  0
  9 11  1  0  0  0  0
  9 17  1  0  0  0  0
  7  8  1  0  0  0  0
  7  9  1  0  0  0  0
 21 22  1  0  0  0  0
 21 23  1  0  0  0  0
 21 24  1  0  0  0  0
 19 20  1  0  0  0  0
 19 21  1  0  0  0  0
M  CHG  1  15  -1
M  END
$$$$
default_name
  -OEChem-02102213163D

 24 23  0     1  0  0  0  0  0999 V2000
   -2.8347   -3.7166    0.8034 H   0  0  0  0  0  0  0  0  0  0  0  0
   -2.7728   -2.7096    0.3954 C   0  0  0  0  0  0  0  0  0  0  0  0
   -3.4267   -2.0426    0.9524 H   0  0  0  0  0  0  0  0  0  0  0  0
   -3.0538   -2.7186   -0.6556 H   0  0  0  0  0  0  0  0  0  0  0  0
   -1.3498   -2.2206    0.5184 C   0  0  0  0  0  0  0  0  0  0  0  0
   -0.4997   -2.9426    1.0194 O   0  0  0  0  0  0  0  0  0  0  0  0
   -1.1198   -0.9926    0.0674 N   0  0  0  0  0  0  0  0  0  0  0  0
   -1.8978   -0.4486   -0.2716 H   0  0  0  0  0  0  0  0  0  0  0  0
    0.1693   -0.2866    0.0854 C   0  0  1  0  0  0  0  0  0  0  0  0
    0.8425   -0.7905    0.7811 H   0  0  0  0  0  0  0  0  0  0  0  0
    0.7993   -0.3404   -1.3233 C   0  0  0  0  0  0  0  0  0  0  0  0
    1.7581    0.1804   -1.2982 H   0  0  0  0  0  0  0  0  0  0  0  0
    0.9937   -1.3834   -1.5823 H   0  0  0  0  0  0  0  0  0  0  0  0
   -0.0518    0.3059   -2.4276 C   0  0  0  0  0  0  0  0  0  0  0  0
    0.1111    1.5243   -2.6737 O   0  5  0  0  0  0  0  0  0  0  0  0
   -0.8799   -0.4283   -3.0084 O   0  0  0  0  0  0  0  0  0  0  0  0
   -0.0374    1.1645    0.5781 C   0  0  0  0  0  0  0  0  0  0  0  0
   -0.9816    1.8416    0.1544 O   0  0  0  0  0  0  0  0  0  0  0  0
    0.8235    1.6462    1.4801 N   0  0  0  0  0  0  0  0  0  0  0  0
    1.6183    1.0435    1.7020 H   0  0  0  0  0  0  0  0  0  0  0  0
    0.7895    2.9929    2.0404 C   0  0  0  0  0  0  0  0  0  0  0  0
   -0.2344    3.2522    2.3130 H   0  0  0  0  0  0  0  0  0  0  0  0
    1.4265    3.0377    2.9233 H   0  0  0  0  0  0  0  0  0  0  0  0
    1.1511    3.7014    1.2950 H   0  0  0  0  0  0  0  0  0  0  0  0
  5  6  2  0  0  0  0
  5  7  1  0  0  0  0
  2  3  1  0  0  0  0
  2  4  1  0  0  0  0
  2  5  1  0  0  0  0
  1  2  1  0  0  0  0
 17 18  2  0  0  0  0
 17 19  1  0  0  0  0
 14 15  1  0  0  0  0
 14 16  2  0  0  0  0
 11 12  1  0  0  0  0
 11 13  1  0  0  0  0
 11 14  1  0  0  0  0
  9 10  1  0  0  0  0
  9 11  1  0  0  0  0
  9 17  1  0  0  0  0
  7  8  1  0  0  0  0
  7  9  1  0  0  0  0
 21 22  1  0  0  0  0
 21 23  1  0  0  0  0
 21 24  1  0  0  0  0
 19 20  1  0  0  0  0
 19 21  1  0  0  0  0
M  CHG  1  15  -1
M  END
$$$$
default_name
  -OEChem-02102213163D

 24 23  0     1  0  0  0  0  0999 V2000
   -2.8347   -3.7166    0.8034 H   0  0  0  0  0  0  0  0  0  0  0  0
   -2.7728   -2.7096    0.3954 C   0  0  0  0  0  0  0  0  0  0  0  0
   -3.4267   -2.0426    0.9524 H   0  0  0  0  0  0  0  0  0  0  0  0
   -3.0538   -2.7186   -0.6556 H   0  0  0  0  0  0  0  0  0  0  0  0
   -1.3498   -2.2206    0.5184 C   0  0  0  0  0  0  0  0  0  0  0  0
   -0.4997   -2.9426    1.0194 O   0  0  0  0  0  0  0  0  0  0  0  0
   -1.1198   -0.9926    0.0674 N   0  0  0  0  0  0  0  0  0  0  0  0
   -1.8978   -0.4486   -0.2716 H   0  0  0  0  0  0  0  0  0  0  0  0
    0.1693   -0.2866    0.0854 C   0  0  1  0  0  0  0  0  0  0  0  0
    0.8425   -0.7905    0.7811 H   0  0  0  0  0  0  0  0  0  0  0  0
    0.7993   -0.3404   -1.3233 C   0  0  0  0  0  0  0  0  0  0  0  0
    1.7581    0.1804   -1.2982 H   0  0  0  0  0  0  0  0  0  0  0  0
    0.9937   -1.3834   -1.5823 H   0  0  0  0  0  0  0  0  0  0  0  0
   -0.0518    0.3059   -2.4276 C   0  0  0  0  0  0  0  0  0  0  0  0
    0.2941    1.4258   -2.8723 O   0  5  0  0  0  0  0  0  0  0  0  0
   -1.0621   -0.3244   -2.8072 O   0  0  0  0  0  0  0  0  0  0  0  0
   -0.0374    1.1645    0.5781 C   0  0  0  0  0  0  0  0  0  0  0  0
   -0.9816    1.8416    0.1544 O   0  0  0  0  0  0  0  0  0  0  0  0
    0.8235    1.6462    1.4801 N   0  0  0  0  0  0  0  0  0  0  0  0
    1.6183    1.0435    1.7020 H   0  0  0  0  0  0  0  0  0  0  0  0
    0.7895    2.9929    2.0404 C   0  0  0  0  0  0  0  0  0  0  0  0
   -0.2344    3.2522    2.3130 H   0  0  0  0  0  0  0  0  0  0  0  0
    1.4265    3.0377    2.9233 H   0  0  0  0  0  0  0  0  0  0  0  0
    1.1511    3.7014    1.2950 H   0  0  0  0  0  0  0  0  0  0  0  0
  5  6  2  0  0  0  0
  5  7  1  0  0  0  0
  2  3  1  0  0  0  0
  2  4  1  0  0  0  0
  2  5  1  0  0  0  0
  1  2  1  0  0  0  0
 17 18  2  0  0  0  0
 17 19  1  0  0  0  0
 14 15  1  0  0  0  0
 14 16  2  0  0  0  0
 11 12  1  0  0  0  0
 11 13  1  0  0  0  0
 11 14  1  0  0  0  0
  9 10  1  0  0  0  0
  9 11  1  0  0  0  0
  9 17  1  0  0  0  0
  7  8  1  0  0  0  0
  7  9  1  0  0  0  0
 21 22  1  0  0  0  0
 21 23  1  0  0  0  0
 21 24  1  0  0  0  0
 19 20  1  0  0  0  0
 19 21  1  0  0  0  0
M  CHG  1  15  -1
M  END
$$$$
default_name
  -OEChem-02102213163D

 24 23  0     1  0  0  0  0  0999 V2000
   -2.8347   -3.7166    0.8034 H   0  0  0  0  0  0  0  0  0  0  0  0
   -2.7728   -2.7096    0.3954 C   0  0  0  0  0  0  0  0  0  0  0  0
   -3.4267   -2.0426    0.9524 H   0  0  0  0  0  0  0  0  0  0  0  0
   -3.0538   -2.7186   -0.6556 H   0  0  0  0  0  0  0  0  0  0  0  0
   -1.3498   -2.2206    0.5184 C   0  0  0  0  0  0  0  0  0  0  0  0
   -0.4997   -2.9426    1.0194 O   0  0  0  0  0  0  0  0  0  0  0  0
   -1.1198   -0.9926    0.0674 N   0  0  0  0  0  0  0  0  0  0  0  0
   -1.8978   -0.4486   -0.2716 H   0  0  0  0  0  0  0  0  0  0  0  0
    0.1693   -0.2866    0.0854 C   0  0  1  0  0  0  0  0  0  0  0  0
    0.8425   -0.7905    0.7811 H   0  0  0  0  0  0  0  0  0  0  0  0
    0.7993   -0.3404   -1.3233 C   0  0  0  0  0  0  0  0  0  0  0  0
    1.7581    0.1804   -1.2982 H   0  0  0  0  0  0  0  0  0  0  0  0
    0.9937   -1.3834   -1.5823 H   0  0  0  0  0  0  0  0  0  0  0  0
   -0.0518    0.3059   -2.4276 C   0  0  0  0  0  0  0  0  0  0  0  0
    0.4308    1.2681   -3.0700 O   0  5  0  0  0  0  0  0  0  0  0  0
   -1.1970   -0.1613   -2.6078 O   0  0  0  0  0  0  0  0  0  0  0  0
   -0.0374    1.1645    0.5781 C   0  0  0  0  0  0  0  0  0  0  0  0
   -0.9816    1.8416    0.1544 O   0  0  0  0  0  0  0  0  0  0  0  0
    0.8235    1.6462    1.4801 N   0  0  0  0  0  0  0  0  0  0  0  0
    1.6183    1.0435    1.7020 H   0  0  0  0  0  0  0  0  0  0  0  0
    0.7895    2.9929    2.0404 C   0  0  0  0  0  0  0  0  0  0  0  0
   -0.2344    3.2522    2.3130 H   0  0  0  0  0  0  0  0  0  0  0  0
    1.4265    3.0377    2.9233 H   0  0  0  0  0  0  0  0  0  0  0  0
    1.1511    3.7014    1.2950 H   0  0  0  0  0  0  0  0  0  0  0  0
  5  6  2  0  0  0  0
  5  7  1  0  0  0  0
  2  3  1  0  0  0  0
  2  4  1  0  0  0  0
  2  5  1  0  0  0  0
  1  2  1  0  0  0  0
 17 18  2  0  0  0  0
 17 19  1  0  0  0  0
 14 15  1  0  0  0  0
 14 16  2  0  0  0  0
 11 12  1  0  0  0  0
 11 13  1  0  0  0  0
 11 14  1  0  0  0  0
  9 10  1  0  0  0  0
  9 11  1  0  0  0  0
  9 17  1  0  0  0  0
  7  8  1  0  0  0  0
  7  9  1  0  0  0  0
 21 22  1  0  0  0  0
 21 23  1  0  0  0  0
 21 24  1  0  0  0  0
 19 20  1  0  0  0  0
 19 21  1  0  0  0  0
M  CHG  1  15  -1
M  END
$$$$
default_name
  -OEChem-02102213163D

 24 23  0     1  0  0  0  0  0999 V2000
   -2.8347   -3.7166    0.8034 H   0  0  0  0  0  0  0  0  0  0  0  0
   -2.7728   -2.7096    0.3954 C   0  0  0  0  0  0  0  0  0  0  0  0
   -3.4267   -2.0426    0.9524 H   0  0  0  0  0  0  0  0  0  0  0  0
   -3.0538   -2.7186   -0.6556 H   0  0  0  0  0  0  0  0  0  0  0  0
   -1.3498   -2.2206    0.5184 C   0  0  0  0  0  0  0  0  0  0  0  0
   -0.4997   -2.9426    1.0194 O   0  0  0  0  0  0  0  0  0  0  0  0
   -1.1198   -0.9926    0.0674 N   0  0  0  0  0  0  0  0  0  0  0  0
   -1.8978   -0.4486   -0.2716 H   0  0  0  0  0  0  0  0  0  0  0  0
    0.1693   -0.2866    0.0854 C   0  0  1  0  0  0  0  0  0  0  0  0
    0.8425   -0.7905    0.7811 H   0  0  0  0  0  0  0  0  0  0  0  0
    0.7993   -0.3404   -1.3233 C   0  0  0  0  0  0  0  0  0  0  0  0
    1.7581    0.1804   -1.2982 H   0  0  0  0  0  0  0  0  0  0  0  0
    0.9937   -1.3834   -1.5823 H   0  0  0  0  0  0  0  0  0  0  0  0
   -0.0518    0.3059   -2.4276 C   0  0  0  0  0  0  0  0  0  0  0  0
    0.5121    1.0621   -3.2533 O   0  5  0  0  0  0  0  0  0  0  0  0
   -1.2751    0.0499   -2.4239 O   0  0  0  0  0  0  0  0  0  0  0  0
   -0.0374    1.1645    0.5781 C   0  0  0  0  0  0  0  0  0  0  0  0
   -0.9816    1.8416    0.1544 O   0  0  0  0  0  0  0  0  0  0  0  0
    0.8235    1.6462    1.4801 N   0  0  0  0  0  0  0  0  0  0  0  0
    1.6183    1.0435    1.7020 H   0  0  0  0  0  0  0  0  0  0  0  0
    0.7895    2.9929    2.0404 C   0  0  0  0  0  0  0  0  0  0  0  0
   -0.2344    3.2522    2.3130 H   0  0  0  0  0  0  0  0  0  0  0  0
    1.4265    3.0377    2.9233 H   0  0  0  0  0  0  0  0  0  0  0  0
    1.1511    3.7014    1.2950 H   0  0  0  0  0  0  0  0  0  0  0  0
  5  6  2  0  0  0  0
  5  7  1  0  0  0  0
  2  3  1  0  0  0  0
  2  4  1  0  0  0  0
  2  5  1  0  0  0  0
  1  2  1  0  0  0  0
 17 18  2  0  0  0  0
 17 19  1  0  0  0  0
 14 15  1  0  0  0  0
 14 16  2  0  0  0  0
 11 12  1  0  0  0  0
 11 13  1  0  0  0  0
 11 14  1  0  0  0  0
  9 10  1  0  0  0  0
  9 11  1  0  0  0  0
  9 17  1  0  0  0  0
  7  8  1  0  0  0  0
  7  9  1  0  0  0  0
 21 22  1  0  0  0  0
 21 23  1  0  0  0  0
 21 24  1  0  0  0  0
 19 20  1  0  0  0  0
 19 21  1  0  0  0  0
M  CHG  1  15  -1
M  END
$$$$
default_name
  -OEChem-02102213163D

 24 23  0     1  0  0  0  0  0999 V2000
   -2.8347   -3.7166    0.8034 H   0  0  0  0  0  0  0  0  0  0  0  0
   -2.7728   -2.7096    0.3954 C   0  0  0  0  0  0  0  0  0  0  0  0
   -3.4267   -2.0426    0.9524 H   0  0  0  0  0  0  0  0  0  0  0  0
   -3.0538   -2.7186   -0.6556 H   0  0  0  0  0  0  0  0  0  0  0  0
   -1.3498   -2.2206    0.5184 C   0  0  0  0  0  0  0  0  0  0  0  0
   -0.4997   -2.9426    1.0194 O   0  0  0  0  0  0  0  0  0  0  0  0
   -1.1198   -0.9926    0.0674 N   0  0  0  0  0  0  0  0  0  0  0  0
   -1.8978   -0.4486   -0.2716 H   0  0  0  0  0  0  0  0  0  0  0  0
    0.1693   -0.2866    0.0854 C   0  0  1  0  0  0  0  0  0  0  0  0
    0.8425   -0.7905    0.7811 H   0  0  0  0  0  0  0  0  0  0  0  0
    0.7993   -0.3404   -1.3233 C   0  0  0  0  0  0  0  0  0  0  0  0
    1.7581    0.1804   -1.2982 H   0  0  0  0  0  0  0  0  0  0  0  0
    0.9937   -1.3834   -1.5823 H   0  0  0  0  0  0  0  0  0  0  0  0
   -0.0518    0.3059   -2.4276 C   0  0  0  0  0  0  0  0  0  0  0  0
    0.5324    0.8217   -3.4096 O   0  5  0  0  0  0  0  0  0  0  0  0
   -1.2914    0.2948   -2.2681 O   0  0  0  0  0  0  0  0  0  0  0  0
   -0.0374    1.1645    0.5781 C   0  0  0  0  0  0  0  0  0  0  0  0
   -0.9816    1.8416    0.1544 O   0  0  0  0  0  0  0  0  0  0  0  0
    0.8235    1.6462    1.4801 N   0  0  0  0  0  0  0  0  0  0  0  0
    1.6183    1.0435    1.7020 H   0  0  0  0  0  0  0  0  0  0  0  0
    0.7895    2.9929    2.0404 C   0  0  0  0  0  0  0  0  0  0  0  0
   -0.2344    3.2522    2.3130 H   0  0  0  0  0  0  0  0  0  0  0  0
    1.4265    3.0377    2.9233 H   0  0  0  0  0  0  0  0  0  0  0  0
    1.1511    3.7014    1.2950 H   0  0  0  0  0  0  0  0  0  0  0  0
  5  6  2  0  0  0  0
  5  7  1  0  0  0  0
  2  3  1  0  0  0  0
  2  4  1  0  0  0  0
  2  5  1  0  0  0  0
  1  2  1  0  0  0  0
 17 18  2  0  0  0  0
 17 19  1  0  0  0  0
 14 15  1  0  0  0  0
 14 16  2  0  0  0  0
 11 12  1  0  0  0  0
 11 13  1  0  0  0  0
 11 14  1  0  0  0  0
  9 10  1  0  0  0  0
  9 11  1  0  0  0  0
  9 17  1  0  0  0  0
  7  8  1  0  0  0  0
  7  9  1  0  0  0  0
 21 22  1  0  0  0  0
 21 23  1  0  0  0  0
 21 24  1  0  0  0  0
 19 20  1  0  0  0  0
 19 21  1  0  0  0  0
M  CHG  1  15  -1
M  END
$$$$
default_name
  -OEChem-02102213163D

 24 23  0     1  0  0  0  0  0999 V2000
   -2.8347   -3.7166    0.8034 H   0  0  0  0  0  0  0  0  0  0  0  0
   -2.7728   -2.7096    0.3954 C   0  0  0  0  0  0  0  0  0  0  0  0
   -3.4267   -2.0426    0.9524 H   0  0  0  0  0  0  0  0  0  0  0  0
   -3.0538   -2.7186   -0.6556 H   0  0  0  0  0  0  0  0  0  0  0  0
   -1.3498   -2.2206    0.5184 C   0  0  0  0  0  0  0  0  0  0  0  0
   -0.4997   -2.9426    1.0194 O   0  0  0  0  0  0  0  0  0  0  0  0
   -1.1198   -0.9926    0.0674 N   0  0  0  0  0  0  0  0  0  0  0  0
   -1.8978   -0.4486   -0.2716 H   0  0  0  0  0  0  0  0  0  0  0  0
    0.1693   -0.2866    0.0854 C   0  0  1  0  0  0  0  0  0  0  0  0
    0.8425   -0.7905    0.7811 H   0  0  0  0  0  0  0  0  0  0  0  0
    0.7993   -0.3404   -1.3233 C   0  0  0  0  0  0  0  0  0  0  0  0
    1.7581    0.1804   -1.2982 H   0  0  0  0  0  0  0  0  0  0  0  0
    0.9937   -1.3834   -1.5823 H   0  0  0  0  0  0  0  0  0  0  0  0
   -0.0518    0.3059   -2.4276 C   0  0  0  0  0  0  0  0  0  0  0  0
    0.4902    0.5632   -3.5283 O   0  5  0  0  0  0  0  0  0  0  0  0
   -1.2445    0.5568   -2.1509 O   0  0  0  0  0  0  0  0  0  0  0  0
   -0.0374    1.1645    0.5781 C   0  0  0  0  0  0  0  0  0  0  0  0
   -0.9816    1.8416    0.1544 O   0  0  0  0  0  0  0  0  0  0  0  0
    0.8235    1.6462    1.4801 N   0  0  0  0  0  0  0  0  0  0  0  0
    1.6183    1.0435    1.7020 H   0  0  0  0  0  0  0  0  0  0  0  0
    0.7895    2.9929    2.0404 C   0  0  0  0  0  0  0  0  0  0  0  0
   -0.2344    3.2522    2.3130 H   0  0  0  0  0  0  0  0  0  0  0  0
    1.4265    3.0377    2.9233 H   0  0  0  0  0  0  0  0  0  0  0  0
    1.1511    3.7014    1.2950 H   0  0  0  0  0  0  0  0  0  0  0  0
  5  6  2  0  0  0  0
  5  7  1  0  0  0  0
  2  3  1  0  0  0  0
  2  4  1  0  0  0  0
  2  5  1  0  0  0  0
  1  2  1  0  0  0  0
 17 18  2  0  0  0  0
 17 19  1  0  0  0  0
 14 15  1  0  0  0  0
 14 16  2  0  0  0  0
 11 12  1  0  0  0  0
 11 13  1  0  0  0  0
 11 14  1  0  0  0  0
  9 10  1  0  0  0  0
  9 11  1  0  0  0  0
  9 17  1  0  0  0  0
  7  8  1  0  0  0  0
  7  9  1  0  0  0  0
 21 22  1  0  0  0  0
 21 23  1  0  0  0  0
 21 24  1  0  0  0  0
 19 20  1  0  0  0  0
 19 21  1  0  0  0  0
M  CHG  1  15  -1
M  END
$$$$
default_name
  -OEChem-02102213163D

 24 23  0     1  0  0  0  0  0999 V2000
   -2.8347   -3.7166    0.8034 H   0  0  0  0  0  0  0  0  0  0  0  0
   -2.7728   -2.7096    0.3954 C   0  0  0  0  0  0  0  0  0  0  0  0
   -3.4267   -2.0426    0.9524 H   0  0  0  0  0  0  0  0  0  0  0  0
   -3.0538   -2.7186   -0.6556 H   0  0  0  0  0  0  0  0  0  0  0  0
   -1.3498   -2.2206    0.5184 C   0  0  0  0  0  0  0  0  0  0  0  0
   -0.4997   -2.9426    1.0194 O   0  0  0  0  0  0  0  0  0  0  0  0
   -1.1198   -0.9926    0.0674 N   0  0  0  0  0  0  0  0  0  0  0  0
   -1.8978   -0.4486   -0.2716 H   0  0  0  0  0  0  0  0  0  0  0  0
    0.1693   -0.2866    0.0854 C   0  0  1  0  0  0  0  0  0  0  0  0
    0.8425   -0.7905    0.7811 H   0  0  0  0  0  0  0  0  0  0  0  0
    0.7993   -0.3404   -1.3233 C   0  0  0  0  0  0  0  0  0  0  0  0
    1.8531   -0.0668   -1.2463 H   0  0  0  0  0  0  0  0  0  0  0  0
    0.7480   -1.3668   -1.6928 H   0  0  0  0  0  0  0  0  0  0  0  0
    0.1486    0.6007   -2.3492 C   0  0  0  0  0  0  0  0  0  0  0  0
    0.6015    0.6179   -3.5180 O   0  5  0  0  0  0  0  0  0  0  0  0
   -0.7935    1.3159   -1.9454 O   0  0  0  0  0  0  0  0  0  0  0  0
   -0.0374    1.1645    0.5781 C   0  0  0  0  0  0  0  0  0  0  0  0
   -0.9816    1.8416    0.1544 O   0  0  0  0  0  0  0  0  0  0  0  0
    0.8235    1.6462    1.4801 N   0  0  0  0  0  0  0  0  0  0  0  0
    1.6183    1.0435    1.7020 H   0  0  0  0  0  0  0  0  0  0  0  0
    0.7895    2.9929    2.0404 C   0  0  0  0  0  0  0  0  0  0  0  0
   -0.2344    3.2522    2.3130 H   0  0  0  0  0  0  0  0  0  0  0  0
    1.4265    3.0377    2.9233 H   0  0  0  0  0  0  0  0  0  0  0  0
    1.1511    3.7014    1.2950 H   0  0  0  0  0  0  0  0  0  0  0  0
  5  6  2  0  0  0  0
  5  7  1  0  0  0  0
  2  3  1  0  0  0  0
  2  4  1  0  0  0  0
  2  5  1  0  0  0  0
  1  2  1  0  0  0  0
 17 18  2  0  0  0  0
 17 19  1  0  0  0  0
 14 15  1  0  0  0  0
 14 16  2  0  0  0  0
 11 12  1  0  0  0  0
 11 13  1  0  0  0  0
 11 14  1  0  0  0  0
  9 10  1  0  0  0  0
  9 11  1  0  0  0  0
  9 17  1  0  0  0  0
  7  8  1  0  0  0  0
  7  9  1  0  0  0  0
 21 22  1  0  0  0  0
 21 23  1  0  0  0  0
 21 24  1  0  0  0  0
 19 20  1  0  0  0  0
 19 21  1  0  0  0  0
M  CHG  1  15  -1
M  END
$$$$
default_name
  -OEChem-02102213163D

 24 23  0     1  0  0  0  0  0999 V2000
   -2.8347   -3.7166    0.8034 H   0  0  0  0  0  0  0  0  0  0  0  0
   -2.7728   -2.7096    0.3954 C   0  0  0  0  0  0  0  0  0  0  0  0
   -3.4267   -2.0426    0.9524 H   0  0  0  0  0  0  0  0  0  0  0  0
   -3.0538   -2.7186   -0.6556 H   0  0  0  0  0  0  0  0  0  0  0  0
   -1.3498   -2.2206    0.5184 C   0  0  0  0  0  0  0  0  0  0  0  0
   -0.4997   -2.9426    1.0194 O   0  0  0  0  0  0  0  0  0  0  0  0
   -1.1198   -0.9926    0.0674 N   0  0  0  0  0  0  0  0  0  0  0  0
   -1.8978   -0.4486   -0.2716 H   0  0  0  0  0  0  0  0  0  0  0  0
    0.1693   -0.2866    0.0854 C   0  0  1  0  0  0  0  0  0  0  0  0
    0.8425   -0.7905    0.7811 H   0  0  0  0  0  0  0  0  0  0  0  0
    0.7993   -0.3404   -1.3233 C   0  0  0  0  0  0  0  0  0  0  0  0
    1.8531   -0.0668   -1.2463 H   0  0  0  0  0  0  0  0  0  0  0  0
    0.7480   -1.3668   -1.6928 H   0  0  0  0  0  0  0  0  0  0  0  0
    0.1486    0.6007   -2.3492 C   0  0  0  0  0  0  0  0  0  0  0  0
    0.3952    0.4234   -3.5655 O   0  5  0  0  0  0  0  0  0  0  0  0
   -0.5820    1.5104   -1.9011 O   0  0  0  0  0  0  0  0  0  0  0  0
   -0.0374    1.1645    0.5781 C   0  0  0  0  0  0  0  0  0  0  0  0
   -0.9816    1.8416    0.1544 O   0  0  0  0  0  0  0  0  0  0  0  0
    0.8235    1.6462    1.4801 N   0  0  0  0  0  0  0  0  0  0  0  0
    1.6183    1.0435    1.7020 H   0  0  0  0  0  0  0  0  0  0  0  0
    0.7895    2.9929    2.0404 C   0  0  0  0  0  0  0  0  0  0  0  0
   -0.2344    3.2522    2.3130 H   0  0  0  0  0  0  0  0  0  0  0  0
    1.4265    3.0377    2.9233 H   0  0  0  0  0  0  0  0  0  0  0  0
    1.1511    3.7014    1.2950 H   0  0  0  0  0  0  0  0  0  0  0  0
  5  6  2  0  0  0  0
  5  7  1  0  0  0  0
  2  3  1  0  0  0  0
  2  4  1  0  0  0  0
  2  5  1  0  0  0  0
  1  2  1  0  0  0  0
 17 18  2  0  0  0  0
 17 19  1  0  0  0  0
 14 15  1  0  0  0  0
 14 16  2  0  0  0  0
 11 12  1  0  0  0  0
 11 13  1  0  0  0  0
 11 14  1  0  0  0  0
  9 10  1  0  0  0  0
  9 11  1  0  0  0  0
  9 17  1  0  0  0  0
  7  8  1  0  0  0  0
  7  9  1  0  0  0  0
 21 22  1  0  0  0  0
 21 23  1  0  0  0  0
 21 24  1  0  0  0  0
 19 20  1  0  0  0  0
 19 21  1  0  0  0  0
M  CHG  1  15  -1
M  END
$$$$
default_name
  -OEChem-02102213163D

 24 23  0     1  0  0  0  0  0999 V2000
   -2.8347   -3.7166    0.8034 H   0  0  0  0  0  0  0  0  0  0  0  0
   -2.7728   -2.7096    0.3954 C   0  0  0  0  0  0  0  0  0  0  0  0
   -3.4267   -2.0426    0.9524 H   0  0  0  0  0  0  0  0  0  0  0  0
   -3.0538   -2.7186   -0.6556 H   0  0  0  0  0  0  0  0  0  0  0  0
   -1.3498   -2.2206    0.5184 C   0  0  0  0  0  0  0  0  0  0  0  0
   -0.4997   -2.9426    1.0194 O   0  0  0  0  0  0  0  0  0  0  0  0
   -1.1198   -0.9926    0.0674 N   0  0  0  0  0  0  0  0  0  0  0  0
   -1.8978   -0.4486   -0.2716 H   0  0  0  0  0  0  0  0  0  0  0  0
    0.1693   -0.2866    0.0854 C   0  0  1  0  0  0  0  0  0  0  0  0
    0.8425   -0.7905    0.7811 H   0  0  0  0  0  0  0  0  0  0  0  0
    0.7993   -0.3404   -1.3233 C   0  0  0  0  0  0  0  0  0  0  0  0
    1.8531   -0.0668   -1.2463 H   0  0  0  0  0  0  0  0  0  0  0  0
    0.7480   -1.3668   -1.6928 H   0  0  0  0  0  0  0  0  0  0  0  0
    0.1486    0.6007   -2.3492 C   0  0  0  0  0  0  0  0  0  0  0  0
    0.1547    0.2661   -3.5573 O   0  5  0  0  0  0  0  0  0  0  0  0
   -0.3371    1.6666   -1.9132 O   0  0  0  0  0  0  0  0  0  0  0  0
   -0.0374    1.1645    0.5781 C   0  0  0  0  0  0  0  0  0  0  0  0
   -0.9816    1.8416    0.1544 O   0  0  0  0  0  0  0  0  0  0  0  0
    0.8235    1.6462    1.4801 N   0  0  0  0  0  0  0  0  0  0  0  0
    1.6183    1.0435    1.7020 H   0  0  0  0  0  0  0  0  0  0  0  0
    0.7895    2.9929    2.0404 C   0  0  0  0  0  0  0  0  0  0  0  0
   -0.2344    3.2522    2.3130 H   0  0  0  0  0  0  0  0  0  0  0  0
    1.4265    3.0377    2.9233 H   0  0  0  0  0  0  0  0  0  0  0  0
    1.1511    3.7014    1.2950 H   0  0  0  0  0  0  0  0  0  0  0  0
  5  6  2  0  0  0  0
  5  7  1  0  0  0  0
  2  3  1  0  0  0  0
  2  4  1  0  0  0  0
  2  5  1  0  0  0  0
  1  2  1  0  0  0  0
 17 18  2  0  0  0  0
 17 19  1  0  0  0  0
 14 15  1  0  0  0  0
 14 16  2  0  0  0  0
 11 12  1  0  0  0  0
 11 13  1  0  0  0  0
 11 14  1  0  0  0  0
  9 10  1  0  0  0  0
  9 11  1  0  0  0  0
  9 17  1  0  0  0  0
  7  8  1  0  0  0  0
  7  9  1  0  0  0  0
 21 22  1  0  0  0  0
 21 23  1  0  0  0  0
 21 24  1  0  0  0  0
 19 20  1  0  0  0  0
 19 21  1  0  0  0  0
M  CHG  1  15  -1
M  END
$$$$
default_name
  -OEChem-02102213163D

 24 23  0     1  0  0  0  0  0999 V2000
   -2.8347   -3.7166    0.8034 H   0  0  0  0  0  0  0  0  0  0  0  0
   -2.7728   -2.7096    0.3954 C   0  0  0  0  0  0  0  0  0  0  0  0
   -3.4267   -2.0426    0.9524 H   0  0  0  0  0  0  0  0  0  0  0  0
   -3.0538   -2.7186   -0.6556 H   0  0  0  0  0  0  0  0  0  0  0  0
   -1.3498   -2.2206    0.5184 C   0  0  0  0  0  0  0  0  0  0  0  0
   -0.4997   -2.9426    1.0194 O   0  0  0  0  0  0  0  0  0  0  0  0
   -1.1198   -0.9926    0.0674 N   0  0  0  0  0  0  0  0  0  0  0  0
   -1.8978   -0.4486   -0.2716 H   0  0  0  0  0  0  0  0  0  0  0  0
    0.1693   -0.2866    0.0854 C   0  0  1  0  0  0  0  0  0  0  0  0
    0.8425   -0.7905    0.7811 H   0  0  0  0  0  0  0  0  0  0  0  0
    0.7993   -0.3404   -1.3233 C   0  0  0  0  0  0  0  0  0  0  0  0
    1.8531   -0.0668   -1.2463 H   0  0  0  0  0  0  0  0  0  0  0  0
    0.7480   -1.3668   -1.6928 H   0  0  0  0  0  0  0  0  0  0  0  0
    0.1486    0.6007   -2.3492 C   0  0  0  0  0  0  0  0  0  0  0  0
   -0.1034    0.1565   -3.4941 O   0  5  0  0  0  0  0  0  0  0  0  0
   -0.0754    1.7738   -1.9808 O   0  0  0  0  0  0  0  0  0  0  0  0
   -0.0374    1.1645    0.5781 C   0  0  0  0  0  0  0  0  0  0  0  0
   -0.9816    1.8416    0.1544 O   0  0  0  0  0  0  0  0  0  0  0  0
    0.8235    1.6462    1.4801 N   0  0  0  0  0  0  0  0  0  0  0  0
    1.6183    1.0435    1.7020 H   0  0  0  0  0  0  0  0  0  0  0  0
    0.7895    2.9929    2.0404 C   0  0  0  0  0  0  0  0  0  0  0  0
   -0.2344    3.2522    2.3130 H   0  0  0  0  0  0  0  0  0  0  0  0
    1.4265    3.0377    2.9233 H   0  0  0  0  0  0  0  0  0  0  0  0
    1.1511    3.7014    1.2950 H   0  0  0  0  0  0  0  0  0  0  0  0
  5  6  2  0  0  0  0
  5  7  1  0  0  0  0
  2  3  1  0  0  0  0
  2  4  1  0  0  0  0
  2  5  1  0  0  0  0
  1  2  1  0  0  0  0
 17 18  2  0  0  0  0
 17 19  1  0  0  0  0
 14 15  1  0  0  0  0
 14 16  2  0  0  0  0
 11 12  1  0  0  0  0
 11 13  1  0  0  0  0
 11 14  1  0  0  0  0
  9 10  1  0  0  0  0
  9 11  1  0  0  0  0
  9 17  1  0  0  0  0
  7  8  1  0  0  0  0
  7  9  1  0  0  0  0
 21 22  1  0  0  0  0
 21 23  1  0  0  0  0
 21 24  1  0  0  0  0
 19 20  1  0  0  0  0
 19 21  1  0  0  0  0
M  CHG  1  15  -1
M  END
$$$$
default_name
  -OEChem-02102213163D

 24 23  0     1  0  0  0  0  0999 V2000
   -2.8347   -3.7166    0.8034 H   0  0  0  0  0  0  0  0  0  0  0  0
   -2.7728   -2.7096    0.3954 C   0  0  0  0  0  0  0  0  0  0  0  0
   -3.4267   -2.0426    0.9524 H   0  0  0  0  0  0  0  0  0  0  0  0
   -3.0538   -2.7186   -0.6556 H   0  0  0  0  0  0  0  0  0  0  0  0
   -1.3498   -2.2206    0.5184 C   0  0  0  0  0  0  0  0  0  0  0  0
   -0.4997   -2.9426    1.0194 O   0  0  0  0  0  0  0  0  0  0  0  0
   -1.1198   -0.9926    0.0674 N   0  0  0  0  0  0  0  0  0  0  0  0
   -1.8978   -0.4486   -0.2716 H   0  0  0  0  0  0  0  0  0  0  0  0
    0.1693   -0.2866    0.0854 C   0  0  1  0  0  0  0  0  0  0  0  0
    0.8425   -0.7905    0.7811 H   0  0  0  0  0  0  0  0  0  0  0  0
    0.7993   -0.3404   -1.3233 C   0  0  0  0  0  0  0  0  0  0  0  0
    1.8531   -0.0668   -1.2463 H   0  0  0  0  0  0  0  0  0  0  0  0
    0.7480   -1.3668   -1.6928 H   0  0  0  0  0  0  0  0  0  0  0  0
    0.1486    0.6007   -2.3492 C   0  0  0  0  0  0  0  0  0  0  0  0
   -0.3617    0.1022   -3.3801 O   0  5  0  0  0  0  0  0  0  0  0  0
    0.1851    1.8248   -2.0993 O   0  0  0  0  0  0  0  0  0  0  0  0
   -0.0374    1.1645    0.5781 C   0  0  0  0  0  0  0  0  0  0  0  0
   -0.9816    1.8416    0.1544 O   0  0  0  0  0  0  0  0  0  0  0  0
    0.8235    1.6462    1.4801 N   0  0  0  0  0  0  0  0  0  0  0  0
    1.6183    1.0435    1.7020 H   0  0  0  0  0  0  0  0  0  0  0  0
    0.7895    2.9929    2.0404 C   0  0  0  0  0  0  0  0  0  0  0  0
   -0.2344    3.2522    2.3130 H   0  0  0  0  0  0  0  0  0  0  0  0
    1.4265    3.0377    2.9233 H   0  0  0  0  0  0  0  0  0  0  0  0
    1.1511    3.7014    1.2950 H   0  0  0  0  0  0  0  0  0  0  0  0
  5  6  2  0  0  0  0
  5  7  1  0  0  0  0
  2  3  1  0  0  0  0
  2  4  1  0  0  0  0
  2  5  1  0  0  0  0
  1  2  1  0  0  0  0
 17 18  2  0  0  0  0
 17 19  1  0  0  0  0
 14 15  1  0  0  0  0
 14 16  2  0  0  0  0
 11 12  1  0  0  0  0
 11 13  1  0  0  0  0
 11 14  1  0  0  0  0
  9 10  1  0  0  0  0
  9 11  1  0  0  0  0
  9 17  1  0  0  0  0
  7  8  1  0  0  0  0
  7  9  1  0  0  0  0
 21 22  1  0  0  0  0
 21 23  1  0  0  0  0
 21 24  1  0  0  0  0
 19 20  1  0  0  0  0
 19 21  1  0  0  0  0
M  CHG  1  15  -1
M  END
$$$$
default_name
  -OEChem-02102213163D

 24 23  0     1  0  0  0  0  0999 V2000
   -2.8347   -3.7166    0.8034 H   0  0  0  0  0  0  0  0  0  0  0  0
   -2.7728   -2.7096    0.3954 C   0  0  0  0  0  0  0  0  0  0  0  0
   -3.4267   -2.0426    0.9524 H   0  0  0  0  0  0  0  0  0  0  0  0
   -3.0538   -2.7186   -0.6556 H   0  0  0  0  0  0  0  0  0  0  0  0
   -1.3498   -2.2206    0.5184 C   0  0  0  0  0  0  0  0  0  0  0  0
   -0.4997   -2.9426    1.0194 O   0  0  0  0  0  0  0  0  0  0  0  0
   -1.1198   -0.9926    0.0674 N   0  0  0  0  0  0  0  0  0  0  0  0
   -1.8978   -0.4486   -0.2716 H   0  0  0  0  0  0  0  0  0  0  0  0
    0.1693   -0.2866    0.0854 C   0  0  1  0  0  0  0  0  0  0  0  0
    0.8425   -0.7905    0.7811 H   0  0  0  0  0  0  0  0  0  0  0  0
    0.7993   -0.3404   -1.3233 C   0  0  0  0  0  0  0  0  0  0  0  0
    1.8531   -0.0668   -1.2463 H   0  0  0  0  0  0  0  0  0  0  0  0
    0.7480   -1.3668   -1.6928 H   0  0  0  0  0  0  0  0  0  0  0  0
    0.1486    0.6007   -2.3492 C   0  0  0  0  0  0  0  0  0  0  0  0
   -0.6025    0.1069   -3.2230 O   0  5  0  0  0  0  0  0  0  0  0  0
    0.4268    1.8160   -2.2606 O   0  0  0  0  0  0  0  0  0  0  0  0
   -0.0374    1.1645    0.5781 C   0  0  0  0  0  0  0  0  0  0  0  0
   -0.9816    1.8416    0.1544 O   0  0  0  0  0  0  0  0  0  0  0  0
    0.8235    1.6462    1.4801 N   0  0  0  0  0  0  0  0  0  0  0  0
    1.6183    1.0435    1.7020 H   0  0  0  0  0  0  0  0  0  0  0  0
    0.7895    2.9929    2.0404 C   0  0  0  0  0  0  0  0  0  0  0  0
   -0.2344    3.2522    2.3130 H   0  0  0  0  0  0  0  0  0  0  0  0
    1.4265    3.0377    2.9233 H   0  0  0  0  0  0  0  0  0  0  0  0
    1.1511    3.7014    1.2950 H   0  0  0  0  0  0  0  0  0  0  0  0
  5  6  2  0  0  0  0
  5  7  1  0  0  0  0
  2  3  1  0  0  0  0
  2  4  1  0  0  0  0
  2  5  1  0  0  0  0
  1  2  1  0  0  0  0
 17 18  2  0  0  0  0
 17 19  1  0  0  0  0
 14 15  1  0  0  0  0
 14 16  2  0  0  0  0
 11 12  1  0  0  0  0
 11 13  1  0  0  0  0
 11 14  1  0  0  0  0
  9 10  1  0  0  0  0
  9 11  1  0  0  0  0
  9 17  1  0  0  0  0
  7  8  1  0  0  0  0
  7  9  1  0  0  0  0
 21 22  1  0  0  0  0
 21 23  1  0  0  0  0
 21 24  1  0  0  0  0
 19 20  1  0  0  0  0
 19 21  1  0  0  0  0
M  CHG  1  15  -1
M  END
$$$$
default_name
  -OEChem-02102213163D

 24 23  0     1  0  0  0  0  0999 V2000
   -2.8347   -3.7166    0.8034 H   0  0  0  0  0  0  0  0  0  0  0  0
   -2.7728   -2.7096    0.3954 C   0  0  0  0  0  0  0  0  0  0  0  0
   -3.4267   -2.0426    0.9524 H   0  0  0  0  0  0  0  0  0  0  0  0
   -3.0538   -2.7186   -0.6556 H   0  0  0  0  0  0  0  0  0  0  0  0
   -1.3498   -2.2206    0.5184 C   0  0  0  0  0  0  0  0  0  0  0  0
   -0.4997   -2.9426    1.0194 O   0  0  0  0  0  0  0  0  0  0  0  0
   -1.1198   -0.9926    0.0674 N   0  0  0  0  0  0  0  0  0  0  0  0
   -1.8978   -0.4486   -0.2716 H   0  0  0  0  0  0  0  0  0  0  0  0
    0.1693   -0.2866    0.0854 C   0  0  1  0  0  0  0  0  0  0  0  0
    0.8425   -0.7905    0.7811 H   0  0  0  0  0  0  0  0  0  0  0  0
    0.7993   -0.3404   -1.3233 C   0  0  0  0  0  0  0  0  0  0  0  0
    1.8531   -0.0668   -1.2463 H   0  0  0  0  0  0  0  0  0  0  0  0
    0.7480   -1.3668   -1.6928 H   0  0  0  0  0  0  0  0  0  0  0  0
    0.1486    0.6007   -2.3492 C   0  0  0  0  0  0  0  0  0  0  0  0
   -0.8094    0.1703   -3.0337 O   0  5  0  0  0  0  0  0  0  0  0  0
    0.6332    1.7480   -2.4538 O   0  0  0  0  0  0  0  0  0  0  0  0
   -0.0374    1.1645    0.5781 C   0  0  0  0  0  0  0  0  0  0  0  0
   -0.9816    1.8416    0.1544 O   0  0  0  0  0  0  0  0  0  0  0  0
    0.8235    1.6462    1.4801 N   0  0  0  0  0  0  0  0  0  0  0  0
    1.6183    1.0435    1.7020 H   0  0  0  0  0  0  0  0  0  0  0  0
    0.7895    2.9929    2.0404 C   0  0  0  0  0  0  0  0  0  0  0  0
   -0.2344    3.2522    2.3130 H   0  0  0  0  0  0  0  0  0  0  0  0
    1.4265    3.0377    2.9233 H   0  0  0  0  0  0  0  0  0  0  0  0
    1.1511    3.7014    1.2950 H   0  0  0  0  0  0  0  0  0  0  0  0
  5  6  2  0  0  0  0
  5  7  1  0  0  0  0
  2  3  1  0  0  0  0
  2  4  1  0  0  0  0
  2  5  1  0  0  0  0
  1  2  1  0  0  0  0
 17 18  2  0  0  0  0
 17 19  1  0  0  0  0
 14 15  1  0  0  0  0
 14 16  2  0  0  0  0
 11 12  1  0  0  0  0
 11 13  1  0  0  0  0
 11 14  1  0  0  0  0
  9 10  1  0  0  0  0
  9 11  1  0  0  0  0
  9 17  1  0  0  0  0
  7  8  1  0  0  0  0
  7  9  1  0  0  0  0
 21 22  1  0  0  0  0
 21 23  1  0  0  0  0
 21 24  1  0  0  0  0
 19 20  1  0  0  0  0
 19 21  1  0  0  0  0
M  CHG  1  15  -1
M  END
$$$$
default_name
  -OEChem-02102213163D

 24 23  0     1  0  0  0  0  0999 V2000
   -2.8347   -3.7166    0.8034 H   0  0  0  0  0  0  0  0  0  0  0  0
   -2.7728   -2.7096    0.3954 C   0  0  0  0  0  0  0  0  0  0  0  0
   -3.4267   -2.0426    0.9524 H   0  0  0  0  0  0  0  0  0  0  0  0
   -3.0538   -2.7186   -0.6556 H   0  0  0  0  0  0  0  0  0  0  0  0
   -1.3498   -2.2206    0.5184 C   0  0  0  0  0  0  0  0  0  0  0  0
   -0.4997   -2.9426    1.0194 O   0  0  0  0  0  0  0  0  0  0  0  0
   -1.1198   -0.9926    0.0674 N   0  0  0  0  0  0  0  0  0  0  0  0
   -1.8978   -0.4486   -0.2716 H   0  0  0  0  0  0  0  0  0  0  0  0
    0.1693   -0.2866    0.0854 C   0  0  1  0  0  0  0  0  0  0  0  0
    0.8425   -0.7905    0.7811 H   0  0  0  0  0  0  0  0  0  0  0  0
    0.7993   -0.3404   -1.3233 C   0  0  0  0  0  0  0  0  0  0  0  0
    1.8531   -0.0668   -1.2463 H   0  0  0  0  0  0  0  0  0  0  0  0
    0.7480   -1.3668   -1.6928 H   0  0  0  0  0  0  0  0  0  0  0  0
    0.1486    0.6007   -2.3492 C   0  0  0  0  0  0  0  0  0  0  0  0
   -0.9682    0.2879   -2.8250 O   0  5  0  0  0  0  0  0  0  0  0  0
    0.7901    1.6256   -2.6657 O   0  0  0  0  0  0  0  0  0  0  0  0
   -0.0374    1.1645    0.5781 C   0  0  0  0  0  0  0  0  0  0  0  0
   -0.9816    1.8416    0.1544 O   0  0  0  0  0  0  0  0  0  0  0  0
    0.8235    1.6462    1.4801 N   0  0  0  0  0  0  0  0  0  0  0  0
    1.6183    1.0435    1.7020 H   0  0  0  0  0  0  0  0  0  0  0  0
    0.7895    2.9929    2.0404 C   0  0  0  0  0  0  0  0  0  0  0  0
   -0.2344    3.2522    2.3130 H   0  0  0  0  0  0  0  0  0  0  0  0
    1.4265    3.0377    2.9233 H   0  0  0  0  0  0  0  0  0  0  0  0
    1.1511    3.7014    1.2950 H   0  0  0  0  0  0  0  0  0  0  0  0
  5  6  2  0  0  0  0
  5  7  1  0  0  0  0
  2  3  1  0  0  0  0
  2  4  1  0  0  0  0
  2  5  1  0  0  0  0
  1  2  1  0  0  0  0
 17 18  2  0  0  0  0
 17 19  1  0  0  0  0
 14 15  1  0  0  0  0
 14 16  2  0  0  0  0
 11 12  1  0  0  0  0
 11 13  1  0  0  0  0
 11 14  1  0  0  0  0
  9 10  1  0  0  0  0
  9 11  1  0  0  0  0
  9 17  1  0  0  0  0
  7  8  1  0  0  0  0
  7  9  1  0  0  0  0
 21 22  1  0  0  0  0
 21 23  1  0  0  0  0
 21 24  1  0  0  0  0
 19 20  1  0  0  0  0
 19 21  1  0  0  0  0
M  CHG  1  15  -1
M  END
$$$$
default_name
  -OEChem-02102213163D

 24 23  0     1  0  0  0  0  0999 V2000
   -2.8347   -3.7166    0.8034 H   0  0  0  0  0  0  0  0  0  0  0  0
   -2.7728   -2.7096    0.3954 C   0  0  0  0  0  0  0  0  0  0  0  0
   -3.4267   -2.0426    0.9524 H   0  0  0  0  0  0  0  0  0  0  0  0
   -3.0538   -2.7186   -0.6556 H   0  0  0  0  0  0  0  0  0  0  0  0
   -1.3498   -2.2206    0.5184 C   0  0  0  0  0  0  0  0  0  0  0  0
   -0.4997   -2.9426    1.0194 O   0  0  0  0  0  0  0  0  0  0  0  0
   -1.1198   -0.9926    0.0674 N   0  0  0  0  0  0  0  0  0  0  0  0
   -1.8978   -0.4486   -0.2716 H   0  0  0  0  0  0  0  0  0  0  0  0
    0.1693   -0.2866    0.0854 C   0  0  1  0  0  0  0  0  0  0  0  0
    0.8425   -0.7905    0.7811 H   0  0  0  0  0  0  0  0  0  0  0  0
    0.7993   -0.3404   -1.3233 C   0  0  0  0  0  0  0  0  0  0  0  0
    1.8531   -0.0668   -1.2463 H   0  0  0  0  0  0  0  0  0  0  0  0
    0.7480   -1.3668   -1.6928 H   0  0  0  0  0  0  0  0  0  0  0  0
    0.1486    0.6007   -2.3492 C   0  0  0  0  0  0  0  0  0  0  0  0
   -1.0683    0.4519   -2.6111 O   0  5  0  0  0  0  0  0  0  0  0  0
    0.8870    1.4570   -2.8818 O   0  0  0  0  0  0  0  0  0  0  0  0
   -0.0374    1.1645    0.5781 C   0  0  0  0  0  0  0  0  0  0  0  0
   -0.9816    1.8416    0.1544 O   0  0  0  0  0  0  0  0  0  0  0  0
    0.8235    1.6462    1.4801 N   0  0  0  0  0  0  0  0  0  0  0  0
    1.6183    1.0435    1.7020 H   0  0  0  0  0  0  0  0  0  0  0  0
    0.7895    2.9929    2.0404 C   0  0  0  0  0  0  0  0  0  0  0  0
   -0.2344    3.2522    2.3130 H   0  0  0  0  0  0  0  0  0  0  0  0
    1.4265    3.0377    2.9233 H   0  0  0  0  0  0  0  0  0  0  0  0
    1.1511    3.7014    1.2950 H   0  0  0  0  0  0  0  0  0  0  0  0
  5  6  2  0  0  0  0
  5  7  1  0  0  0  0
  2  3  1  0  0  0  0
  2  4  1  0  0  0  0
  2  5  1  0  0  0  0
  1  2  1  0  0  0  0
 17 18  2  0  0  0  0
 17 19  1  0  0  0  0
 14 15  1  0  0  0  0
 14 16  2  0  0  0  0
 11 12  1  0  0  0  0
 11 13  1  0  0  0  0
 11 14  1  0  0  0  0
  9 10  1  0  0  0  0
  9 11  1  0  0  0  0
  9 17  1  0  0  0  0
  7  8  1  0  0  0  0
  7  9  1  0  0  0  0
 21 22  1  0  0  0  0
 21 23  1  0  0  0  0
 21 24  1  0  0  0  0
 19 20  1  0  0  0  0
 19 21  1  0  0  0  0
M  CHG  1  15  -1
M  END
$$$$
default_name
  -OEChem-02102213163D

 24 23  0     1  0  0  0  0  0999 V2000
   -2.8347   -3.7166    0.8034 H   0  0  0  0  0  0  0  0  0  0  0  0
   -2.7728   -2.7096    0.3954 C   0  0  0  0  0  0  0  0  0  0  0  0
   -3.4267   -2.0426    0.9524 H   0  0  0  0  0  0  0  0  0  0  0  0
   -3.0538   -2.7186   -0.6556 H   0  0  0  0  0  0  0  0  0  0  0  0
   -1.3498   -2.2206    0.5184 C   0  0  0  0  0  0  0  0  0  0  0  0
   -0.4997   -2.9426    1.0194 O   0  0  0  0  0  0  0  0  0  0  0  0
   -1.1198   -0.9926    0.0674 N   0  0  0  0  0  0  0  0  0  0  0  0
   -1.8978   -0.4486   -0.2716 H   0  0  0  0  0  0  0  0  0  0  0  0
    0.1693   -0.2866    0.0854 C   0  0  1  0  0  0  0  0  0  0  0  0
    0.8425   -0.7905    0.7811 H   0  0  0  0  0  0  0  0  0  0  0  0
    0.7993   -0.3404   -1.3233 C   0  0  0  0  0  0  0  0  0  0  0  0
    1.8531   -0.0668   -1.2463 H   0  0  0  0  0  0  0  0  0  0  0  0
    0.7480   -1.3668   -1.6928 H   0  0  0  0  0  0  0  0  0  0  0  0
    0.1486    0.6007   -2.3492 C   0  0  0  0  0  0  0  0  0  0  0  0
   -1.1027    0.6510   -2.4066 O   0  5  0  0  0  0  0  0  0  0  0  0
    0.9172    1.2537   -3.0875 O   0  0  0  0  0  0  0  0  0  0  0  0
   -0.0374    1.1645    0.5781 C   0  0  0  0  0  0  0  0  0  0  0  0
   -0.9816    1.8416    0.1544 O   0  0  0  0  0  0  0  0  0  0  0  0
    0.8235    1.6462    1.4801 N   0  0  0  0  0  0  0  0  0  0  0  0
    1.6183    1.0435    1.7020 H   0  0  0  0  0  0  0  0  0  0  0  0
    0.7895    2.9929    2.0404 C   0  0  0  0  0  0  0  0  0  0  0  0
   -0.2344    3.2522    2.3130 H   0  0  0  0  0  0  0  0  0  0  0  0
    1.4265    3.0377    2.9233 H   0  0  0  0  0  0  0  0  0  0  0  0
    1.1511    3.7014    1.2950 H   0  0  0  0  0  0  0  0  0  0  0  0
  5  6  2  0  0  0  0
  5  7  1  0  0  0  0
  2  3  1  0  0  0  0
  2  4  1  0  0  0  0
  2  5  1  0  0  0  0
  1  2  1  0  0  0  0
 17 18  2  0  0  0  0
 17 19  1  0  0  0  0
 14 15  1  0  0  0  0
 14 16  2  0  0  0  0
 11 12  1  0  0  0  0
 11 13  1  0  0  0  0
 11 14  1  0  0  0  0
  9 10  1  0  0  0  0
  9 11  1  0  0  0  0
  9 17  1  0  0  0  0
  7  8  1  0  0  0  0
  7  9  1  0  0  0  0
 21 22  1  0  0  0  0
 21 23  1  0  0  0  0
 21 24  1  0  0  0  0
 19 20  1  0  0  0  0
 19 21  1  0  0  0  0
M  CHG  1  15  -1
M  END
$$$$
default_name
  -OEChem-02102213163D

 24 23  0     1  0  0  0  0  0999 V2000
   -2.8347   -3.7166    0.8034 H   0  0  0  0  0  0  0  0  0  0  0  0
   -2.7728   -2.7096    0.3954 C   0  0  0  0  0  0  0  0  0  0  0  0
   -3.4267   -2.0426    0.9524 H   0  0  0  0  0  0  0  0  0  0  0  0
   -3.0538   -2.7186   -0.6556 H   0  0  0  0  0  0  0  0  0  0  0  0
   -1.3498   -2.2206    0.5184 C   0  0  0  0  0  0  0  0  0  0  0  0
   -0.4997   -2.9426    1.0194 O   0  0  0  0  0  0  0  0  0  0  0  0
   -1.1198   -0.9926    0.0674 N   0  0  0  0  0  0  0  0  0  0  0  0
   -1.8978   -0.4486   -0.2716 H   0  0  0  0  0  0  0  0  0  0  0  0
    0.1693   -0.2866    0.0854 C   0  0  1  0  0  0  0  0  0  0  0  0
    0.8425   -0.7905    0.7811 H   0  0  0  0  0  0  0  0  0  0  0  0
    0.7993   -0.3404   -1.3233 C   0  0  0  0  0  0  0  0  0  0  0  0
    1.8531   -0.0668   -1.2463 H   0  0  0  0  0  0  0  0  0  0  0  0
    0.7480   -1.3668   -1.6928 H   0  0  0  0  0  0  0  0  0  0  0  0
    0.1486    0.6007   -2.3492 C   0  0  0  0  0  0  0  0  0  0  0  0
   -1.0691    0.8717   -2.2255 O   0  5  0  0  0  0  0  0  0  0  0  0
    0.8786    1.0296   -3.2686 O   0  0  0  0  0  0  0  0  0  0  0  0
   -0.0374    1.1645    0.5781 C   0  0  0  0  0  0  0  0  0  0  0  0
   -0.9816    1.8416    0.1544 O   0  0  0  0  0  0  0  0  0  0  0  0
    0.8235    1.6462    1.4801 N   0  0  0  0  0  0  0  0  0  0  0  0
    1.6183    1.0435    1.7020 H   0  0  0  0  0  0  0  0  0  0  0  0
    0.7895    2.9929    2.0404 C   0  0  0  0  0  0  0  0  0  0  0  0
   -0.2344    3.2522    2.3130 H   0  0  0  0  0  0  0  0  0  0  0  0
    1.4265    3.0377    2.9233 H   0  0  0  0  0  0  0  0  0  0  0  0
    1.1511    3.7014    1.2950 H   0  0  0  0  0  0  0  0  0  0  0  0
  5  6  2  0  0  0  0
  5  7  1  0  0  0  0
  2  3  1  0  0  0  0
  2  4  1  0  0  0  0
  2  5  1  0  0  0  0
  1  2  1  0  0  0  0
 17 18  2  0  0  0  0
 17 19  1  0  0  0  0
 14 15  1  0  0  0  0
 14 16  2  0  0  0  0
 11 12  1  0  0  0  0
 11 13  1  0  0  0  0
 11 14  1  0  0  0  0
  9 10  1  0  0  0  0
  9 11  1  0  0  0  0
  9 17  1  0  0  0  0
  7  8  1  0  0  0  0
  7  9  1  0  0  0  0
 21 22  1  0  0  0  0
 21 23  1  0  0  0  0
 21 24  1  0  0  0  0
 19 20  1  0  0  0  0
 19 21  1  0  0  0  0
M  CHG  1  15  -1
M  END
$$$$
default_name
  -OEChem-02102213163D

 24 23  0     1  0  0  0  0  0999 V2000
   -2.8347   -3.7166    0.8034 H   0  0  0  0  0  0  0  0  0  0  0  0
   -2.7728   -2.7096    0.3954 C   0  0  0  0  0  0  0  0  0  0  0  0
   -3.4267   -2.0426    0.9524 H   0  0  0  0  0  0  0  0  0  0  0  0
   -3.0538   -2.7186   -0.6556 H   0  0  0  0  0  0  0  0  0  0  0  0
   -1.3498   -2.2206    0.5184 C   0  0  0  0  0  0  0  0  0  0  0  0
   -0.4997   -2.9426    1.0194 O   0  0  0  0  0  0  0  0  0  0  0  0
   -1.1198   -0.9926    0.0674 N   0  0  0  0  0  0  0  0  0  0  0  0
   -1.8978   -0.4486   -0.2716 H   0  0  0  0  0  0  0  0  0  0  0  0
    0.1693   -0.2866    0.0854 C   0  0  1  0  0  0  0  0  0  0  0  0
    0.8425   -0.7905    0.7811 H   0  0  0  0  0  0  0  0  0  0  0  0
    0.7993   -0.3404   -1.3233 C   0  0  0  0  0  0  0  0  0  0  0  0
    1.8531   -0.0668   -1.2463 H   0  0  0  0  0  0  0  0  0  0  0  0
    0.7480   -1.3668   -1.6928 H   0  0  0  0  0  0  0  0  0  0  0  0
    0.1486    0.6007   -2.3492 C   0  0  0  0  0  0  0  0  0  0  0  0
   -0.9698    1.0990   -2.0800 O   0  5  0  0  0  0  0  0  0  0  0  0
    0.7740    0.7999   -3.4129 O   0  0  0  0  0  0  0  0  0  0  0  0
   -0.0374    1.1645    0.5781 C   0  0  0  0  0  0  0  0  0  0  0  0
   -0.9816    1.8416    0.1544 O   0  0  0  0  0  0  0  0  0  0  0  0
    0.8235    1.6462    1.4801 N   0  0  0  0  0  0  0  0  0  0  0  0
    1.6183    1.0435    1.7020 H   0  0  0  0  0  0  0  0  0  0  0  0
    0.7895    2.9929    2.0404 C   0  0  0  0  0  0  0  0  0  0  0  0
   -0.2344    3.2522    2.3130 H   0  0  0  0  0  0  0  0  0  0  0  0
    1.4265    3.0377    2.9233 H   0  0  0  0  0  0  0  0  0  0  0  0
    1.1511    3.7014    1.2950 H   0  0  0  0  0  0  0  0  0  0  0  0
  5  6  2  0  0  0  0
  5  7  1  0  0  0  0
  2  3  1  0  0  0  0
  2  4  1  0  0  0  0
  2  5  1  0  0  0  0
  1  2  1  0  0  0  0
 17 18  2  0  0  0  0
 17 19  1  0  0  0  0
 14 15  1  0  0  0  0
 14 16  2  0  0  0  0
 11 12  1  0  0  0  0
 11 13  1  0  0  0  0
 11 14  1  0  0  0  0
  9 10  1  0  0  0  0
  9 11  1  0  0  0  0
  9 17  1  0  0  0  0
  7  8  1  0  0  0  0
  7  9  1  0  0  0  0
 21 22  1  0  0  0  0
 21 23  1  0  0  0  0
 21 24  1  0  0  0  0
 19 20  1  0  0  0  0
 19 21  1  0  0  0  0
M  CHG  1  15  -1
M  END
$$$$
default_name
  -OEChem-02102213163D

 24 23  0     1  0  0  0  0  0999 V2000
   -2.8347   -3.7166    0.8034 H   0  0  0  0  0  0  0  0  0  0  0  0
   -2.7728   -2.7096    0.3954 C   0  0  0  0  0  0  0  0  0  0  0  0
   -3.4267   -2.0426    0.9524 H   0  0  0  0  0  0  0  0  0  0  0  0
   -3.0538   -2.7186   -0.6556 H   0  0  0  0  0  0  0  0  0  0  0  0
   -1.3498   -2.2206    0.5184 C   0  0  0  0  0  0  0  0  0  0  0  0
   -0.4997   -2.9426    1.0194 O   0  0  0  0  0  0  0  0  0  0  0  0
   -1.1198   -0.9926    0.0674 N   0  0  0  0  0  0  0  0  0  0  0  0
   -1.8978   -0.4486   -0.2716 H   0  0  0  0  0  0  0  0  0  0  0  0
    0.1693   -0.2866    0.0854 C   0  0  1  0  0  0  0  0  0  0  0  0
    0.8425   -0.7905    0.7811 H   0  0  0  0  0  0  0  0  0  0  0  0
    0.7993   -0.3404   -1.3233 C   0  0  0  0  0  0  0  0  0  0  0  0
    1.8531   -0.0668   -1.2463 H   0  0  0  0  0  0  0  0  0  0  0  0
    0.7480   -1.3668   -1.6928 H   0  0  0  0  0  0  0  0  0  0  0  0
    0.1486    0.6007   -2.3492 C   0  0  0  0  0  0  0  0  0  0  0  0
   -0.8116    1.3172   -1.9802 O   0  5  0  0  0  0  0  0  0  0  0  0
    0.6103    0.5803   -3.5105 O   0  0  0  0  0  0  0  0  0  0  0  0
   -0.0374    1.1645    0.5781 C   0  0  0  0  0  0  0  0  0  0  0  0
   -0.9816    1.8416    0.1544 O   0  0  0  0  0  0  0  0  0  0  0  0
    0.8235    1.6462    1.4801 N   0  0  0  0  0  0  0  0  0  0  0  0
    1.6183    1.0435    1.7020 H   0  0  0  0  0  0  0  0  0  0  0  0
    0.7895    2.9929    2.0404 C   0  0  0  0  0  0  0  0  0  0  0  0
   -0.2344    3.2522    2.3130 H   0  0  0  0  0  0  0  0  0  0  0  0
    1.4265    3.0377    2.9233 H   0  0  0  0  0  0  0  0  0  0  0  0
    1.1511    3.7014    1.2950 H   0  0  0  0  0  0  0  0  0  0  0  0
  5  6  2  0  0  0  0
  5  7  1  0  0  0  0
  2  3  1  0  0  0  0
  2  4  1  0  0  0  0
  2  5  1  0  0  0  0
  1  2  1  0  0  0  0
 17 18  2  0  0  0  0
 17 19  1  0  0  0  0
 14 15  1  0  0  0  0
 14 16  2  0  0  0  0
 11 12  1  0  0  0  0
 11 13  1  0  0  0  0
 11 14  1  0  0  0  0
  9 10  1  0  0  0  0
  9 11  1  0  0  0  0
  9 17  1  0  0  0  0
  7  8  1  0  0  0  0
  7  9  1  0  0  0  0
 21 22  1  0  0  0  0
 21 23  1  0  0  0  0
 21 24  1  0  0  0  0
 19 20  1  0  0  0  0
 19 21  1  0  0  0  0
M  CHG  1  15  -1
M  END
$$$$
default_name
  -OEChem-02102213163D

 24 23  0     1  0  0  0  0  0999 V2000
   -2.8347   -3.7166    0.8034 H   0  0  0  0  0  0  0  0  0  0  0  0
   -2.7728   -2.7096    0.3954 C   0  0  0  0  0  0  0  0  0  0  0  0
   -3.4267   -2.0426    0.9524 H   0  0  0  0  0  0  0  0  0  0  0  0
   -3.0538   -2.7186   -0.6556 H   0  0  0  0  0  0  0  0  0  0  0  0
   -1.3498   -2.2206    0.5184 C   0  0  0  0  0  0  0  0  0  0  0  0
   -0.4997   -2.9426    1.0194 O   0  0  0  0  0  0  0  0  0  0  0  0
   -1.1198   -0.9926    0.0674 N   0  0  0  0  0  0  0  0  0  0  0  0
   -1.8978   -0.4486   -0.2716 H   0  0  0  0  0  0  0  0  0  0  0  0
    0.1693   -0.2866    0.0854 C   0  0  1  0  0  0  0  0  0  0  0  0
    0.8425   -0.7905    0.7811 H   0  0  0  0  0  0  0  0  0  0  0  0
    0.7993   -0.3404   -1.3233 C   0  0  0  0  0  0  0  0  0  0  0  0
    1.8531   -0.0668   -1.2463 H   0  0  0  0  0  0  0  0  0  0  0  0
    0.7480   -1.3668   -1.6928 H   0  0  0  0  0  0  0  0  0  0  0  0
    0.1486    0.6007   -2.3492 C   0  0  0  0  0  0  0  0  0  0  0  0
   -0.6052    1.5117   -1.9327 O   0  5  0  0  0  0  0  0  0  0  0  0
    0.3988    0.3858   -3.5547 O   0  0  0  0  0  0  0  0  0  0  0  0
   -0.0374    1.1645    0.5781 C   0  0  0  0  0  0  0  0  0  0  0  0
   -0.9816    1.8416    0.1544 O   0  0  0  0  0  0  0  0  0  0  0  0
    0.8235    1.6462    1.4801 N   0  0  0  0  0  0  0  0  0  0  0  0
    1.6183    1.0435    1.7020 H   0  0  0  0  0  0  0  0  0  0  0  0
    0.7895    2.9929    2.0404 C   0  0  0  0  0  0  0  0  0  0  0  0
   -0.2344    3.2522    2.3130 H   0  0  0  0  0  0  0  0  0  0  0  0
    1.4265    3.0377    2.9233 H   0  0  0  0  0  0  0  0  0  0  0  0
    1.1511    3.7014    1.2950 H   0  0  0  0  0  0  0  0  0  0  0  0
  5  6  2  0  0  0  0
  5  7  1  0  0  0  0
  2  3  1  0  0  0  0
  2  4  1  0  0  0  0
  2  5  1  0  0  0  0
  1  2  1  0  0  0  0
 17 18  2  0  0  0  0
 17 19  1  0  0  0  0
 14 15  1  0  0  0  0
 14 16  2  0  0  0  0
 11 12  1  0  0  0  0
 11 13  1  0  0  0  0
 11 14  1  0  0  0  0
  9 10  1  0  0  0  0
  9 11  1  0  0  0  0
  9 17  1  0  0  0  0
  7  8  1  0  0  0  0
  7  9  1  0  0  0  0
 21 22  1  0  0  0  0
 21 23  1  0  0  0  0
 21 24  1  0  0  0  0
 19 20  1  0  0  0  0
 19 21  1  0  0  0  0
M  CHG  1  15  -1
M  END
$$$$
default_name
  -OEChem-02102213163D

 24 23  0     1  0  0  0  0  0999 V2000
   -2.8347   -3.7166    0.8034 H   0  0  0  0  0  0  0  0  0  0  0  0
   -2.7728   -2.7096    0.3954 C   0  0  0  0  0  0  0  0  0  0  0  0
   -3.4267   -2.0426    0.9524 H   0  0  0  0  0  0  0  0  0  0  0  0
   -3.0538   -2.7186   -0.6556 H   0  0  0  0  0  0  0  0  0  0  0  0
   -1.3498   -2.2206    0.5184 C   0  0  0  0  0  0  0  0  0  0  0  0
   -0.4997   -2.9426    1.0194 O   0  0  0  0  0  0  0  0  0  0  0  0
   -1.1198   -0.9926    0.0674 N   0  0  0  0  0  0  0  0  0  0  0  0
   -1.8978   -0.4486   -0.2716 H   0  0  0  0  0  0  0  0  0  0  0  0
    0.1693   -0.2866    0.0854 C   0  0  1  0  0  0  0  0  0  0  0  0
    0.8425   -0.7905    0.7811 H   0  0  0  0  0  0  0  0  0  0  0  0
    0.7993   -0.3404   -1.3233 C   0  0  0  0  0  0  0  0  0  0  0  0
    1.8531   -0.0668   -1.2463 H   0  0  0  0  0  0  0  0  0  0  0  0
    0.7480   -1.3668   -1.6928 H   0  0  0  0  0  0  0  0  0  0  0  0
    0.1486    0.6007   -2.3492 C   0  0  0  0  0  0  0  0  0  0  0  0
   -0.3648    1.6690   -1.9409 O   0  5  0  0  0  0  0  0  0  0  0  0
    0.1539    0.2296   -3.5427 O   0  0  0  0  0  0  0  0  0  0  0  0
   -0.0374    1.1645    0.5781 C   0  0  0  0  0  0  0  0  0  0  0  0
   -0.9816    1.8416    0.1544 O   0  0  0  0  0  0  0  0  0  0  0  0
    0.8235    1.6462    1.4801 N   0  0  0  0  0  0  0  0  0  0  0  0
    1.6183    1.0435    1.7020 H   0  0  0  0  0  0  0  0  0  0  0  0
    0.7895    2.9929    2.0404 C   0  0  0  0  0  0  0  0  0  0  0  0
   -0.2344    3.2522    2.3130 H   0  0  0  0  0  0  0  0  0  0  0  0
    1.4265    3.0377    2.9233 H   0  0  0  0  0  0  0  0  0  0  0  0
    1.1511    3.7014    1.2950 H   0  0  0  0  0  0  0  0  0  0  0  0
  5  6  2  0  0  0  0
  5  7  1  0  0  0  0
  2  3  1  0  0  0  0
  2  4  1  0  0  0  0
  2  5  1  0  0  0  0
  1  2  1  0  0  0  0
 17 18  2  0  0  0  0
 17 19  1  0  0  0  0
 14 15  1  0  0  0  0
 14 16  2  0  0  0  0
 11 12  1  0  0  0  0
 11 13  1  0  0  0  0
 11 14  1  0  0  0  0
  9 10  1  0  0  0  0
  9 11  1  0  0  0  0
  9 17  1  0  0  0  0
  7  8  1  0  0  0  0
  7  9  1  0  0  0  0
 21 22  1  0  0  0  0
 21 23  1  0  0  0  0
 21 24  1  0  0  0  0
 19 20  1  0  0  0  0
 19 21  1  0  0  0  0
M  CHG  1  15  -1
M  END
$$$$
default_name
  -OEChem-02102213163D

 24 23  0     1  0  0  0  0  0999 V2000
   -2.8347   -3.7166    0.8034 H   0  0  0  0  0  0  0  0  0  0  0  0
   -2.7728   -2.7096    0.3954 C   0  0  0  0  0  0  0  0  0  0  0  0
   -3.4267   -2.0426    0.9524 H   0  0  0  0  0  0  0  0  0  0  0  0
   -3.0538   -2.7186   -0.6556 H   0  0  0  0  0  0  0  0  0  0  0  0
   -1.3498   -2.2206    0.5184 C   0  0  0  0  0  0  0  0  0  0  0  0
   -0.4997   -2.9426    1.0194 O   0  0  0  0  0  0  0  0  0  0  0  0
   -1.1198   -0.9926    0.0674 N   0  0  0  0  0  0  0  0  0  0  0  0
   -1.8978   -0.4486   -0.2716 H   0  0  0  0  0  0  0  0  0  0  0  0
    0.1693   -0.2866    0.0854 C   0  0  1  0  0  0  0  0  0  0  0  0
    0.8425   -0.7905    0.7811 H   0  0  0  0  0  0  0  0  0  0  0  0
    0.7993   -0.3404   -1.3233 C   0  0  0  0  0  0  0  0  0  0  0  0
    1.8531   -0.0668   -1.2463 H   0  0  0  0  0  0  0  0  0  0  0  0
    0.7480   -1.3668   -1.6928 H   0  0  0  0  0  0  0  0  0  0  0  0
    0.1486    0.6007   -2.3492 C   0  0  0  0  0  0  0  0  0  0  0  0
   -0.1066    1.7786   -2.0041 O   0  5  0  0  0  0  0  0  0  0  0  0
   -0.1078    0.1224   -3.4751 O   0  0  0  0  0  0  0  0  0  0  0  0
   -0.0374    1.1645    0.5781 C   0  0  0  0  0  0  0  0  0  0  0  0
   -0.9816    1.8416    0.1544 O   0  0  0  0  0  0  0  0  0  0  0  0
    0.8235    1.6462    1.4801 N   0  0  0  0  0  0  0  0  0  0  0  0
    1.6183    1.0435    1.7020 H   0  0  0  0  0  0  0  0  0  0  0  0
    0.7895    2.9929    2.0404 C   0  0  0  0  0  0  0  0  0  0  0  0
   -0.2344    3.2522    2.3130 H   0  0  0  0  0  0  0  0  0  0  0  0
    1.4265    3.0377    2.9233 H   0  0  0  0  0  0  0  0  0  0  0  0
    1.1511    3.7014    1.2950 H   0  0  0  0  0  0  0  0  0  0  0  0
  5  6  2  0  0  0  0
  5  7  1  0  0  0  0
  2  3  1  0  0  0  0
  2  4  1  0  0  0  0
  2  5  1  0  0  0  0
  1  2  1  0  0  0  0
 17 18  2  0  0  0  0
 17 19  1  0  0  0  0
 14 15  1  0  0  0  0
 14 16  2  0  0  0  0
 11 12  1  0  0  0  0
 11 13  1  0  0  0  0
 11 14  1  0  0  0  0
  9 10  1  0  0  0  0
  9 11  1  0  0  0  0
  9 17  1  0  0  0  0
  7  8  1  0  0  0  0
  7  9  1  0  0  0  0
 21 22  1  0  0  0  0
 21 23  1  0  0  0  0
 21 24  1  0  0  0  0
 19 20  1  0  0  0  0
 19 21  1  0  0  0  0
M  CHG  1  15  -1
M  END
$$$$
default_name
  -OEChem-02102213163D

 24 23  0     1  0  0  0  0  0999 V2000
   -2.8347   -3.7166    0.8034 H   0  0  0  0  0  0  0  0  0  0  0  0
   -2.7728   -2.7096    0.3954 C   0  0  0  0  0  0  0  0  0  0  0  0
   -3.4267   -2.0426    0.9524 H   0  0  0  0  0  0  0  0  0  0  0  0
   -3.0538   -2.7186   -0.6556 H   0  0  0  0  0  0  0  0  0  0  0  0
   -1.3498   -2.2206    0.5184 C   0  0  0  0  0  0  0  0  0  0  0  0
   -0.4997   -2.9426    1.0194 O   0  0  0  0  0  0  0  0  0  0  0  0
   -1.1198   -0.9926    0.0674 N   0  0  0  0  0  0  0  0  0  0  0  0
   -1.8978   -0.4486   -0.2716 H   0  0  0  0  0  0  0  0  0  0  0  0
    0.1693   -0.2866    0.0854 C   0  0  1  0  0  0  0  0  0  0  0  0
    0.8425   -0.7905    0.7811 H   0  0  0  0  0  0  0  0  0  0  0  0
    0.7993   -0.3404   -1.3233 C   0  0  0  0  0  0  0  0  0  0  0  0
    1.8531   -0.0668   -1.2463 H   0  0  0  0  0  0  0  0  0  0  0  0
    0.7480   -1.3668   -1.6928 H   0  0  0  0  0  0  0  0  0  0  0  0
    0.1486    0.6007   -2.3492 C   0  0  0  0  0  0  0  0  0  0  0  0
    0.1517    1.8329   -2.1182 O   0  5  0  0  0  0  0  0  0  0  0  0
   -0.3683    0.0714   -3.3566 O   0  0  0  0  0  0  0  0  0  0  0  0
   -0.0374    1.1645    0.5781 C   0  0  0  0  0  0  0  0  0  0  0  0
   -0.9816    1.8416    0.1544 O   0  0  0  0  0  0  0  0  0  0  0  0
    0.8235    1.6462    1.4801 N   0  0  0  0  0  0  0  0  0  0  0  0
    1.6183    1.0435    1.7020 H   0  0  0  0  0  0  0  0  0  0  0  0
    0.7895    2.9929    2.0404 C   0  0  0  0  0  0  0  0  0  0  0  0
   -0.2344    3.2522    2.3130 H   0  0  0  0  0  0  0  0  0  0  0  0
    1.4265    3.0377    2.9233 H   0  0  0  0  0  0  0  0  0  0  0  0
    1.1511    3.7014    1.2950 H   0  0  0  0  0  0  0  0  0  0  0  0
  5  6  2  0  0  0  0
  5  7  1  0  0  0  0
  2  3  1  0  0  0  0
  2  4  1  0  0  0  0
  2  5  1  0  0  0  0
  1  2  1  0  0  0  0
 17 18  2  0  0  0  0
 17 19  1  0  0  0  0
 14 15  1  0  0  0  0
 14 16  2  0  0  0  0
 11 12  1  0  0  0  0
 11 13  1  0  0  0  0
 11 14  1  0  0  0  0
  9 10  1  0  0  0  0
  9 11  1  0  0  0  0
  9 17  1  0  0  0  0
  7  8  1  0  0  0  0
  7  9  1  0  0  0  0
 21 22  1  0  0  0  0
 21 23  1  0  0  0  0
 21 24  1  0  0  0  0
 19 20  1  0  0  0  0
 19 21  1  0  0  0  0
M  CHG  1  15  -1
M  END
$$$$
default_name
  -OEChem-02102213163D

 24 23  0     1  0  0  0  0  0999 V2000
   -2.8347   -3.7166    0.8034 H   0  0  0  0  0  0  0  0  0  0  0  0
   -2.7728   -2.7096    0.3954 C   0  0  0  0  0  0  0  0  0  0  0  0
   -3.4267   -2.0426    0.9524 H   0  0  0  0  0  0  0  0  0  0  0  0
   -3.0538   -2.7186   -0.6556 H   0  0  0  0  0  0  0  0  0  0  0  0
   -1.3498   -2.2206    0.5184 C   0  0  0  0  0  0  0  0  0  0  0  0
   -0.4997   -2.9426    1.0194 O   0  0  0  0  0  0  0  0  0  0  0  0
   -1.1198   -0.9926    0.0674 N   0  0  0  0  0  0  0  0  0  0  0  0
   -1.8978   -0.4486   -0.2716 H   0  0  0  0  0  0  0  0  0  0  0  0
    0.1693   -0.2866    0.0854 C   0  0  1  0  0  0  0  0  0  0  0  0
    0.8425   -0.7905    0.7811 H   0  0  0  0  0  0  0  0  0  0  0  0
    0.7993   -0.3404   -1.3233 C   0  0  0  0  0  0  0  0  0  0  0  0
    1.8531   -0.0668   -1.2463 H   0  0  0  0  0  0  0  0  0  0  0  0
    0.7480   -1.3668   -1.6928 H   0  0  0  0  0  0  0  0  0  0  0  0
    0.1486    0.6007   -2.3492 C   0  0  0  0  0  0  0  0  0  0  0  0
    0.3924    1.8282   -2.2752 O   0  5  0  0  0  0  0  0  0  0  0  0
   -0.6100    0.0802   -3.1952 O   0  0  0  0  0  0  0  0  0  0  0  0
   -0.0374    1.1645    0.5781 C   0  0  0  0  0  0  0  0  0  0  0  0
   -0.9816    1.8416    0.1544 O   0  0  0  0  0  0  0  0  0  0  0  0
    0.8235    1.6462    1.4801 N   0  0  0  0  0  0  0  0  0  0  0  0
    1.6183    1.0435    1.7020 H   0  0  0  0  0  0  0  0  0  0  0  0
    0.7895    2.9929    2.0404 C   0  0  0  0  0  0  0  0  0  0  0  0
   -0.2344    3.2522    2.3130 H   0  0  0  0  0  0  0  0  0  0  0  0
    1.4265    3.0377    2.9233 H   0  0  0  0  0  0  0  0  0  0  0  0
    1.1511    3.7014    1.2950 H   0  0  0  0  0  0  0  0  0  0  0  0
  5  6  2  0  0  0  0
  5  7  1  0  0  0  0
  2  3  1  0  0  0  0
  2  4  1  0  0  0  0
  2  5  1  0  0  0  0
  1  2  1  0  0  0  0
 17 18  2  0  0  0  0
 17 19  1  0  0  0  0
 14 15  1  0  0  0  0
 14 16  2  0  0  0  0
 11 12  1  0  0  0  0
 11 13  1  0  0  0  0
 11 14  1  0  0  0  0
  9 10  1  0  0  0  0
  9 11  1  0  0  0  0
  9 17  1  0  0  0  0
  7  8  1  0  0  0  0
  7  9  1  0  0  0  0
 21 22  1  0  0  0  0
 21 23  1  0  0  0  0
 21 24  1  0  0  0  0
 19 20  1  0  0  0  0
 19 21  1  0  0  0  0
M  CHG  1  15  -1
M  END
$$$$
default_name
  -OEChem-02102213163D

 24 23  0     1  0  0  0  0  0999 V2000
   -2.8347   -3.7166    0.8034 H   0  0  0  0  0  0  0  0  0  0  0  0
   -2.7728   -2.7096    0.3954 C   0  0  0  0  0  0  0  0  0  0  0  0
   -3.4267   -2.0426    0.9524 H   0  0  0  0  0  0  0  0  0  0  0  0
   -3.0538   -2.7186   -0.6556 H   0  0  0  0  0  0  0  0  0  0  0  0
   -1.3498   -2.2206    0.5184 C   0  0  0  0  0  0  0  0  0  0  0  0
   -0.4997   -2.9426    1.0194 O   0  0  0  0  0  0  0  0  0  0  0  0
   -1.1198   -0.9926    0.0674 N   0  0  0  0  0  0  0  0  0  0  0  0
   -1.8978   -0.4486   -0.2716 H   0  0  0  0  0  0  0  0  0  0  0  0
    0.1693   -0.2866    0.0854 C   0  0  1  0  0  0  0  0  0  0  0  0
    0.8425   -0.7905    0.7811 H   0  0  0  0  0  0  0  0  0  0  0  0
    0.7993   -0.3404   -1.3233 C   0  0  0  0  0  0  0  0  0  0  0  0
    1.8531   -0.0668   -1.2463 H   0  0  0  0  0  0  0  0  0  0  0  0
    0.7480   -1.3668   -1.6928 H   0  0  0  0  0  0  0  0  0  0  0  0
    0.1486    0.6007   -2.3492 C   0  0  0  0  0  0  0  0  0  0  0  0
    0.5993    1.7648   -2.4645 O   0  5  0  0  0  0  0  0  0  0  0  0
   -0.8163    0.1482   -3.0020 O   0  0  0  0  0  0  0  0  0  0  0  0
   -0.0374    1.1645    0.5781 C   0  0  0  0  0  0  0  0  0  0  0  0
   -0.9816    1.8416    0.1544 O   0  0  0  0  0  0  0  0  0  0  0  0
    0.8235    1.6462    1.4801 N   0  0  0  0  0  0  0  0  0  0  0  0
    1.6183    1.0435    1.7020 H   0  0  0  0  0  0  0  0  0  0  0  0
    0.7895    2.9929    2.0404 C   0  0  0  0  0  0  0  0  0  0  0  0
   -0.2344    3.2522    2.3130 H   0  0  0  0  0  0  0  0  0  0  0  0
    1.4265    3.0377    2.9233 H   0  0  0  0  0  0  0  0  0  0  0  0
    1.1511    3.7014    1.2950 H   0  0  0  0  0  0  0  0  0  0  0  0
  5  6  2  0  0  0  0
  5  7  1  0  0  0  0
  2  3  1  0  0  0  0
  2  4  1  0  0  0  0
  2  5  1  0  0  0  0
  1  2  1  0  0  0  0
 17 18  2  0  0  0  0
 17 19  1  0  0  0  0
 14 15  1  0  0  0  0
 14 16  2  0  0  0  0
 11 12  1  0  0  0  0
 11 13  1  0  0  0  0
 11 14  1  0  0  0  0
  9 10  1  0  0  0  0
  9 11  1  0  0  0  0
  9 17  1  0  0  0  0
  7  8  1  0  0  0  0
  7  9  1  0  0  0  0
 21 22  1  0  0  0  0
 21 23  1  0  0  0  0
 21 24  1  0  0  0  0
 19 20  1  0  0  0  0
 19 21  1  0  0  0  0
M  CHG  1  15  -1
M  END
$$$$
default_name
  -OEChem-02102213163D

 24 23  0     1  0  0  0  0  0999 V2000
   -2.8347   -3.7166    0.8034 H   0  0  0  0  0  0  0  0  0  0  0  0
   -2.7728   -2.7096    0.3954 C   0  0  0  0  0  0  0  0  0  0  0  0
   -3.4267   -2.0426    0.9524 H   0  0  0  0  0  0  0  0  0  0  0  0
   -3.0538   -2.7186   -0.6556 H   0  0  0  0  0  0  0  0  0  0  0  0
   -1.3498   -2.2206    0.5184 C   0  0  0  0  0  0  0  0  0  0  0  0
   -0.4997   -2.9426    1.0194 O   0  0  0  0  0  0  0  0  0  0  0  0
   -1.1198   -0.9926    0.0674 N   0  0  0  0  0  0  0  0  0  0  0  0
   -1.8978   -0.4486   -0.2716 H   0  0  0  0  0  0  0  0  0  0  0  0
    0.1693   -0.2866    0.0854 C   0  0  1  0  0  0  0  0  0  0  0  0
    0.8425   -0.7905    0.7811 H   0  0  0  0  0  0  0  0  0  0  0  0
    0.7993   -0.3404   -1.3233 C   0  0  0  0  0  0  0  0  0  0  0  0
    1.8531   -0.0668   -1.2463 H   0  0  0  0  0  0  0  0  0  0  0  0
    0.7480   -1.3668   -1.6928 H   0  0  0  0  0  0  0  0  0  0  0  0
    0.1486    0.6007   -2.3492 C   0  0  0  0  0  0  0  0  0  0  0  0
    0.7582    1.6472   -2.6732 O   0  5  0  0  0  0  0  0  0  0  0  0
   -0.9733    0.2706   -2.7901 O   0  0  0  0  0  0  0  0  0  0  0  0
   -0.0374    1.1645    0.5781 C   0  0  0  0  0  0  0  0  0  0  0  0
   -0.9816    1.8416    0.1544 O   0  0  0  0  0  0  0  0  0  0  0  0
    0.8235    1.6462    1.4801 N   0  0  0  0  0  0  0  0  0  0  0  0
    1.6183    1.0435    1.7020 H   0  0  0  0  0  0  0  0  0  0  0  0
    0.7895    2.9929    2.0404 C   0  0  0  0  0  0  0  0  0  0  0  0
   -0.2344    3.2522    2.3130 H   0  0  0  0  0  0  0  0  0  0  0  0
    1.4265    3.0377    2.9233 H   0  0  0  0  0  0  0  0  0  0  0  0
    1.1511    3.7014    1.2950 H   0  0  0  0  0  0  0  0  0  0  0  0
  5  6  2  0  0  0  0
  5  7  1  0  0  0  0
  2  3  1  0  0  0  0
  2  4  1  0  0  0  0
  2  5  1  0  0  0  0
  1  2  1  0  0  0  0
 17 18  2  0  0  0  0
 17 19  1  0  0  0  0
 14 15  1  0  0  0  0
 14 16  2  0  0  0  0
 11 12  1  0  0  0  0
 11 13  1  0  0  0  0
 11 14  1  0  0  0  0
  9 10  1  0  0  0  0
  9 11  1  0  0  0  0
  9 17  1  0  0  0  0
  7  8  1  0  0  0  0
  7  9  1  0  0  0  0
 21 22  1  0  0  0  0
 21 23  1  0  0  0  0
 21 24  1  0  0  0  0
 19 20  1  0  0  0  0
 19 21  1  0  0  0  0
M  CHG  1  15  -1
M  END
$$$$
default_name
  -OEChem-02102213163D

 24 23  0     1  0  0  0  0  0999 V2000
   -2.8347   -3.7166    0.8034 H   0  0  0  0  0  0  0  0  0  0  0  0
   -2.7728   -2.7096    0.3954 C   0  0  0  0  0  0  0  0  0  0  0  0
   -3.4267   -2.0426    0.9524 H   0  0  0  0  0  0  0  0  0  0  0  0
   -3.0538   -2.7186   -0.6556 H   0  0  0  0  0  0  0  0  0  0  0  0
   -1.3498   -2.2206    0.5184 C   0  0  0  0  0  0  0  0  0  0  0  0
   -0.4997   -2.9426    1.0194 O   0  0  0  0  0  0  0  0  0  0  0  0
   -1.1198   -0.9926    0.0674 N   0  0  0  0  0  0  0  0  0  0  0  0
   -1.8978   -0.4486   -0.2716 H   0  0  0  0  0  0  0  0  0  0  0  0
    0.1693   -0.2866    0.0854 C   0  0  1  0  0  0  0  0  0  0  0  0
    0.8425   -0.7905    0.7811 H   0  0  0  0  0  0  0  0  0  0  0  0
    0.7993   -0.3404   -1.3233 C   0  0  0  0  0  0  0  0  0  0  0  0
    1.8531   -0.0668   -1.2463 H   0  0  0  0  0  0  0  0  0  0  0  0
    0.7480   -1.3668   -1.6928 H   0  0  0  0  0  0  0  0  0  0  0  0
    0.1486    0.6007   -2.3492 C   0  0  0  0  0  0  0  0  0  0  0  0
    0.8582    1.4832   -2.8871 O   0  5  0  0  0  0  0  0  0  0  0  0
   -1.0702    0.4392   -2.5740 O   0  0  0  0  0  0  0  0  0  0  0  0
   -0.0374    1.1645    0.5781 C   0  0  0  0  0  0  0  0  0  0  0  0
   -0.9816    1.8416    0.1544 O   0  0  0  0  0  0  0  0  0  0  0  0
    0.8235    1.6462    1.4801 N   0  0  0  0  0  0  0  0  0  0  0  0
    1.6183    1.0435    1.7020 H   0  0  0  0  0  0  0  0  0  0  0  0
    0.7895    2.9929    2.0404 C   0  0  0  0  0  0  0  0  0  0  0  0
   -0.2344    3.2522    2.3130 H   0  0  0  0  0  0  0  0  0  0  0  0
    1.4265    3.0377    2.9233 H   0  0  0  0  0  0  0  0  0  0  0  0
    1.1511    3.7014    1.2950 H   0  0  0  0  0  0  0  0  0  0  0  0
  5  6  2  0  0  0  0
  5  7  1  0  0  0  0
  2  3  1  0  0  0  0
  2  4  1  0  0  0  0
  2  5  1  0  0  0  0
  1  2  1  0  0  0  0
 17 18  2  0  0  0  0
 17 19  1  0  0  0  0
 14 15  1  0  0  0  0
 14 16  2  0  0  0  0
 11 12  1  0  0  0  0
 11 13  1  0  0  0  0
 11 14  1  0  0  0  0
  9 10  1  0  0  0  0
  9 11  1  0  0  0  0
  9 17  1  0  0  0  0
  7  8  1  0  0  0  0
  7  9  1  0  0  0  0
 21 22  1  0  0  0  0
 21 23  1  0  0  0  0
 21 24  1  0  0  0  0
 19 20  1  0  0  0  0
 19 21  1  0  0  0  0
M  CHG  1  15  -1
M  END
$$$$
default_name
  -OEChem-02102213163D

 24 23  0     1  0  0  0  0  0999 V2000
   -2.8347   -3.7166    0.8034 H   0  0  0  0  0  0  0  0  0  0  0  0
   -2.7728   -2.7096    0.3954 C   0  0  0  0  0  0  0  0  0  0  0  0
   -3.4267   -2.0426    0.9524 H   0  0  0  0  0  0  0  0  0  0  0  0
   -3.0538   -2.7186   -0.6556 H   0  0  0  0  0  0  0  0  0  0  0  0
   -1.3498   -2.2206    0.5184 C   0  0  0  0  0  0  0  0  0  0  0  0
   -0.4997   -2.9426    1.0194 O   0  0  0  0  0  0  0  0  0  0  0  0
   -1.1198   -0.9926    0.0674 N   0  0  0  0  0  0  0  0  0  0  0  0
   -1.8978   -0.4486   -0.2716 H   0  0  0  0  0  0  0  0  0  0  0  0
    0.1693   -0.2866    0.0854 C   0  0  1  0  0  0  0  0  0  0  0  0
    0.8425   -0.7905    0.7811 H   0  0  0  0  0  0  0  0  0  0  0  0
    0.7993   -0.3404   -1.3233 C   0  0  0  0  0  0  0  0  0  0  0  0
    1.8531   -0.0668   -1.2463 H   0  0  0  0  0  0  0  0  0  0  0  0
    0.7480   -1.3668   -1.6928 H   0  0  0  0  0  0  0  0  0  0  0  0
    0.1486    0.6007   -2.3492 C   0  0  0  0  0  0  0  0  0  0  0  0
    0.8926    1.2840   -3.0916 O   0  5  0  0  0  0  0  0  0  0  0  0
   -1.1004    0.6425   -2.3684 O   0  0  0  0  0  0  0  0  0  0  0  0
   -0.0374    1.1645    0.5781 C   0  0  0  0  0  0  0  0  0  0  0  0
   -0.9816    1.8416    0.1544 O   0  0  0  0  0  0  0  0  0  0  0  0
    0.8235    1.6462    1.4801 N   0  0  0  0  0  0  0  0  0  0  0  0
    1.6183    1.0435    1.7020 H   0  0  0  0  0  0  0  0  0  0  0  0
    0.7895    2.9929    2.0404 C   0  0  0  0  0  0  0  0  0  0  0  0
   -0.2344    3.2522    2.3130 H   0  0  0  0  0  0  0  0  0  0  0  0
    1.4265    3.0377    2.9233 H   0  0  0  0  0  0  0  0  0  0  0  0
    1.1511    3.7014    1.2950 H   0  0  0  0  0  0  0  0  0  0  0  0
  5  6  2  0  0  0  0
  5  7  1  0  0  0  0
  2  3  1  0  0  0  0
  2  4  1  0  0  0  0
  2  5  1  0  0  0  0
  1  2  1  0  0  0  0
 17 18  2  0  0  0  0
 17 19  1  0  0  0  0
 14 15  1  0  0  0  0
 14 16  2  0  0  0  0
 11 12  1  0  0  0  0
 11 13  1  0  0  0  0
 11 14  1  0  0  0  0
  9 10  1  0  0  0  0
  9 11  1  0  0  0  0
  9 17  1  0  0  0  0
  7  8  1  0  0  0  0
  7  9  1  0  0  0  0
 21 22  1  0  0  0  0
 21 23  1  0  0  0  0
 21 24  1  0  0  0  0
 19 20  1  0  0  0  0
 19 21  1  0  0  0  0
M  CHG  1  15  -1
M  END
$$$$
default_name
  -OEChem-02102213163D

 24 23  0     1  0  0  0  0  0999 V2000
   -2.8347   -3.7166    0.8034 H   0  0  0  0  0  0  0  0  0  0  0  0
   -2.7728   -2.7096    0.3954 C   0  0  0  0  0  0  0  0  0  0  0  0
   -3.4267   -2.0426    0.9524 H   0  0  0  0  0  0  0  0  0  0  0  0
   -3.0538   -2.7186   -0.6556 H   0  0  0  0  0  0  0  0  0  0  0  0
   -1.3498   -2.2206    0.5184 C   0  0  0  0  0  0  0  0  0  0  0  0
   -0.4997   -2.9426    1.0194 O   0  0  0  0  0  0  0  0  0  0  0  0
   -1.1198   -0.9926    0.0674 N   0  0  0  0  0  0  0  0  0  0  0  0
   -1.8978   -0.4486   -0.2716 H   0  0  0  0  0  0  0  0  0  0  0  0
    0.1693   -0.2866    0.0854 C   0  0  1  0  0  0  0  0  0  0  0  0
    0.8425   -0.7905    0.7811 H   0  0  0  0  0  0  0  0  0  0  0  0
    0.7993   -0.3404   -1.3233 C   0  0  0  0  0  0  0  0  0  0  0  0
    1.8531   -0.0668   -1.2463 H   0  0  0  0  0  0  0  0  0  0  0  0
    0.7480   -1.3668   -1.6928 H   0  0  0  0  0  0  0  0  0  0  0  0
    0.1486    0.6007   -2.3492 C   0  0  0  0  0  0  0  0  0  0  0  0
    0.8590    1.0633   -3.2727 O   0  5  0  0  0  0  0  0  0  0  0  0
   -1.0618    0.8666   -2.1872 O   0  0  0  0  0  0  0  0  0  0  0  0
   -0.0374    1.1645    0.5781 C   0  0  0  0  0  0  0  0  0  0  0  0
   -0.9816    1.8416    0.1544 O   0  0  0  0  0  0  0  0  0  0  0  0
    0.8235    1.6462    1.4801 N   0  0  0  0  0  0  0  0  0  0  0  0
    1.6183    1.0435    1.7020 H   0  0  0  0  0  0  0  0  0  0  0  0
    0.7895    2.9929    2.0404 C   0  0  0  0  0  0  0  0  0  0  0  0
   -0.2344    3.2522    2.3130 H   0  0  0  0  0  0  0  0  0  0  0  0
    1.4265    3.0377    2.9233 H   0  0  0  0  0  0  0  0  0  0  0  0
    1.1511    3.7014    1.2950 H   0  0  0  0  0  0  0  0  0  0  0  0
  5  6  2  0  0  0  0
  5  7  1  0  0  0  0
  2  3  1  0  0  0  0
  2  4  1  0  0  0  0
  2  5  1  0  0  0  0
  1  2  1  0  0  0  0
 17 18  2  0  0  0  0
 17 19  1  0  0  0  0
 14 15  1  0  0  0  0
 14 16  2  0  0  0  0
 11 12  1  0  0  0  0
 11 13  1  0  0  0  0
 11 14  1  0  0  0  0
  9 10  1  0  0  0  0
  9 11  1  0  0  0  0
  9 17  1  0  0  0  0
  7  8  1  0  0  0  0
  7  9  1  0  0  0  0
 21 22  1  0  0  0  0
 21 23  1  0  0  0  0
 21 24  1  0  0  0  0
 19 20  1  0  0  0  0
 19 21  1  0  0  0  0
M  CHG  1  15  -1
M  END
$$$$
default_name
  -OEChem-02102213163D

 24 23  0     1  0  0  0  0  0999 V2000
   -2.8347   -3.7166    0.8034 H   0  0  0  0  0  0  0  0  0  0  0  0
   -2.7728   -2.7096    0.3954 C   0  0  0  0  0  0  0  0  0  0  0  0
   -3.4267   -2.0426    0.9524 H   0  0  0  0  0  0  0  0  0  0  0  0
   -3.0538   -2.7186   -0.6556 H   0  0  0  0  0  0  0  0  0  0  0  0
   -1.3498   -2.2206    0.5184 C   0  0  0  0  0  0  0  0  0  0  0  0
   -0.4997   -2.9426    1.0194 O   0  0  0  0  0  0  0  0  0  0  0  0
   -1.1198   -0.9926    0.0674 N   0  0  0  0  0  0  0  0  0  0  0  0
   -1.8978   -0.4486   -0.2716 H   0  0  0  0  0  0  0  0  0  0  0  0
    0.1693   -0.2866    0.0854 C   0  0  1  0  0  0  0  0  0  0  0  0
    0.8425   -0.7905    0.7811 H   0  0  0  0  0  0  0  0  0  0  0  0
    0.7993   -0.3404   -1.3233 C   0  0  0  0  0  0  0  0  0  0  0  0
    1.8531   -0.0668   -1.2463 H   0  0  0  0  0  0  0  0  0  0  0  0
    0.7480   -1.3668   -1.6928 H   0  0  0  0  0  0  0  0  0  0  0  0
    0.1486    0.6007   -2.3492 C   0  0  0  0  0  0  0  0  0  0  0  0
    0.7598    0.8361   -3.4182 O   0  5  0  0  0  0  0  0  0  0  0  0
   -0.9571    1.0963   -2.0430 O   0  0  0  0  0  0  0  0  0  0  0  0
   -0.0374    1.1645    0.5781 C   0  0  0  0  0  0  0  0  0  0  0  0
   -0.9816    1.8416    0.1544 O   0  0  0  0  0  0  0  0  0  0  0  0
    0.8235    1.6462    1.4801 N   0  0  0  0  0  0  0  0  0  0  0  0
    1.6183    1.0435    1.7020 H   0  0  0  0  0  0  0  0  0  0  0  0
    0.7895    2.9929    2.0404 C   0  0  0  0  0  0  0  0  0  0  0  0
   -0.2344    3.2522    2.3130 H   0  0  0  0  0  0  0  0  0  0  0  0
    1.4265    3.0377    2.9233 H   0  0  0  0  0  0  0  0  0  0  0  0
    1.1511    3.7014    1.2950 H   0  0  0  0  0  0  0  0  0  0  0  0
  5  6  2  0  0  0  0
  5  7  1  0  0  0  0
  2  3  1  0  0  0  0
  2  4  1  0  0  0  0
  2  5  1  0  0  0  0
  1  2  1  0  0  0  0
 17 18  2  0  0  0  0
 17 19  1  0  0  0  0
 14 15  1  0  0  0  0
 14 16  2  0  0  0  0
 11 12  1  0  0  0  0
 11 13  1  0  0  0  0
 11 14  1  0  0  0  0
  9 10  1  0  0  0  0
  9 11  1  0  0  0  0
  9 17  1  0  0  0  0
  7  8  1  0  0  0  0
  7  9  1  0  0  0  0
 21 22  1  0  0  0  0
 21 23  1  0  0  0  0
 21 24  1  0  0  0  0
 19 20  1  0  0  0  0
 19 21  1  0  0  0  0
M  CHG  1  15  -1
M  END
$$$$
default_name
  -OEChem-02102213163D

 24 23  0     1  0  0  0  0  0999 V2000
   -2.8347   -3.7166    0.8034 H   0  0  0  0  0  0  0  0  0  0  0  0
   -2.7728   -2.7096    0.3954 C   0  0  0  0  0  0  0  0  0  0  0  0
   -3.4267   -2.0426    0.9524 H   0  0  0  0  0  0  0  0  0  0  0  0
   -3.0538   -2.7186   -0.6556 H   0  0  0  0  0  0  0  0  0  0  0  0
   -1.3498   -2.2206    0.5184 C   0  0  0  0  0  0  0  0  0  0  0  0
   -0.4997   -2.9426    1.0194 O   0  0  0  0  0  0  0  0  0  0  0  0
   -1.1198   -0.9926    0.0674 N   0  0  0  0  0  0  0  0  0  0  0  0
   -1.8978   -0.4486   -0.2716 H   0  0  0  0  0  0  0  0  0  0  0  0
    0.1693   -0.2866    0.0854 C   0  0  1  0  0  0  0  0  0  0  0  0
    0.8425   -0.7905    0.7811 H   0  0  0  0  0  0  0  0  0  0  0  0
    0.7993   -0.3404   -1.3233 C   0  0  0  0  0  0  0  0  0  0  0  0
    1.8860   -0.3334   -1.2215 H   0  0  0  0  0  0  0  0  0  0  0  0
    0.5156   -1.2811   -1.8000 H   0  0  0  0  0  0  0  0  0  0  0  0
    0.4111    0.8299   -2.2405 C   0  0  0  0  0  0  0  0  0  0  0  0
    0.8806    0.8615   -3.4025 O   0  5  0  0  0  0  0  0  0  0  0  0
   -0.3445    1.7014   -1.7592 O   0  0  0  0  0  0  0  0  0  0  0  0
   -0.0374    1.1645    0.5781 C   0  0  0  0  0  0  0  0  0  0  0  0
   -0.9816    1.8416    0.1544 O   0  0  0  0  0  0  0  0  0  0  0  0
    0.8235    1.6462    1.4801 N   0  0  0  0  0  0  0  0  0  0  0  0
    1.6183    1.0435    1.7020 H   0  0  0  0  0  0  0  0  0  0  0  0
    0.7895    2.9929    2.0404 C   0  0  0  0  0  0  0  0  0  0  0  0
   -0.2344    3.2522    2.3130 H   0  0  0  0  0  0  0  0  0  0  0  0
    1.4265    3.0377    2.9233 H   0  0  0  0  0  0  0  0  0  0  0  0
    1.1511    3.7014    1.2950 H   0  0  0  0  0  0  0  0  0  0  0  0
  5  6  2  0  0  0  0
  5  7  1  0  0  0  0
  2  3  1  0  0  0  0
  2  4  1  0  0  0  0
  2  5  1  0  0  0  0
  1  2  1  0  0  0  0
 17 18  2  0  0  0  0
 17 19  1  0  0  0  0
 14 15  1  0  0  0  0
 14 16  2  0  0  0  0
 11 12  1  0  0  0  0
 11 13  1  0  0  0  0
 11 14  1  0  0  0  0
  9 10  1  0  0  0  0
  9 11  1  0  0  0  0
  9 17  1  0  0  0  0
  7  8  1  0  0  0  0
  7  9  1  0  0  0  0
 21 22  1  0  0  0  0
 21 23  1  0  0  0  0
 21 24  1  0  0  0  0
 19 20  1  0  0  0  0
 19 21  1  0  0  0  0
M  CHG  1  15  -1
M  END
$$$$
default_name
  -OEChem-02102213163D

 24 23  0     1  0  0  0  0  0999 V2000
   -2.8347   -3.7166    0.8034 H   0  0  0  0  0  0  0  0  0  0  0  0
   -2.7728   -2.7096    0.3954 C   0  0  0  0  0  0  0  0  0  0  0  0
   -3.4267   -2.0426    0.9524 H   0  0  0  0  0  0  0  0  0  0  0  0
   -3.0538   -2.7186   -0.6556 H   0  0  0  0  0  0  0  0  0  0  0  0
   -1.3498   -2.2206    0.5184 C   0  0  0  0  0  0  0  0  0  0  0  0
   -0.4997   -2.9426    1.0194 O   0  0  0  0  0  0  0  0  0  0  0  0
   -1.1198   -0.9926    0.0674 N   0  0  0  0  0  0  0  0  0  0  0  0
   -1.8978   -0.4486   -0.2716 H   0  0  0  0  0  0  0  0  0  0  0  0
    0.1693   -0.2866    0.0854 C   0  0  1  0  0  0  0  0  0  0  0  0
    0.8425   -0.7905    0.7811 H   0  0  0  0  0  0  0  0  0  0  0  0
    0.7993   -0.3404   -1.3233 C   0  0  0  0  0  0  0  0  0  0  0  0
    1.8860   -0.3334   -1.2215 H   0  0  0  0  0  0  0  0  0  0  0  0
    0.5156   -1.2811   -1.8000 H   0  0  0  0  0  0  0  0  0  0  0  0
    0.4111    0.8299   -2.2405 C   0  0  0  0  0  0  0  0  0  0  0  0
    0.6353    0.7274   -3.4697 O   0  5  0  0  0  0  0  0  0  0  0  0
   -0.0941    1.8346   -1.6952 O   0  0  0  0  0  0  0  0  0  0  0  0
   -0.0374    1.1645    0.5781 C   0  0  0  0  0  0  0  0  0  0  0  0
   -0.9816    1.8416    0.1544 O   0  0  0  0  0  0  0  0  0  0  0  0
    0.8235    1.6462    1.4801 N   0  0  0  0  0  0  0  0  0  0  0  0
    1.6183    1.0435    1.7020 H   0  0  0  0  0  0  0  0  0  0  0  0
    0.7895    2.9929    2.0404 C   0  0  0  0  0  0  0  0  0  0  0  0
   -0.2344    3.2522    2.3130 H   0  0  0  0  0  0  0  0  0  0  0  0
    1.4265    3.0377    2.9233 H   0  0  0  0  0  0  0  0  0  0  0  0
    1.1511    3.7014    1.2950 H   0  0  0  0  0  0  0  0  0  0  0  0
  5  6  2  0  0  0  0
  5  7  1  0  0  0  0
  2  3  1  0  0  0  0
  2  4  1  0  0  0  0
  2  5  1  0  0  0  0
  1  2  1  0  0  0  0
 17 18  2  0  0  0  0
 17 19  1  0  0  0  0
 14 15  1  0  0  0  0
 14 16  2  0  0  0  0
 11 12  1  0  0  0  0
 11 13  1  0  0  0  0
 11 14  1  0  0  0  0
  9 10  1  0  0  0  0
  9 11  1  0  0  0  0
  9 17  1  0  0  0  0
  7  8  1  0  0  0  0
  7  9  1  0  0  0  0
 21 22  1  0  0  0  0
 21 23  1  0  0  0  0
 21 24  1  0  0  0  0
 19 20  1  0  0  0  0
 19 21  1  0  0  0  0
M  CHG  1  15  -1
M  END
$$$$
default_name
  -OEChem-02102213163D

 24 23  0     1  0  0  0  0  0999 V2000
   -2.8347   -3.7166    0.8034 H   0  0  0  0  0  0  0  0  0  0  0  0
   -2.7728   -2.7096    0.3954 C   0  0  0  0  0  0  0  0  0  0  0  0
   -3.4267   -2.0426    0.9524 H   0  0  0  0  0  0  0  0  0  0  0  0
   -3.0538   -2.7186   -0.6556 H   0  0  0  0  0  0  0  0  0  0  0  0
   -1.3498   -2.2206    0.5184 C   0  0  0  0  0  0  0  0  0  0  0  0
   -0.4997   -2.9426    1.0194 O   0  0  0  0  0  0  0  0  0  0  0  0
   -1.1198   -0.9926    0.0674 N   0  0  0  0  0  0  0  0  0  0  0  0
   -1.8978   -0.4486   -0.2716 H   0  0  0  0  0  0  0  0  0  0  0  0
    0.1693   -0.2866    0.0854 C   0  0  1  0  0  0  0  0  0  0  0  0
    0.8425   -0.7905    0.7811 H   0  0  0  0  0  0  0  0  0  0  0  0
    0.7993   -0.3404   -1.3233 C   0  0  0  0  0  0  0  0  0  0  0  0
    1.8860   -0.3334   -1.2215 H   0  0  0  0  0  0  0  0  0  0  0  0
    0.5156   -1.2811   -1.8000 H   0  0  0  0  0  0  0  0  0  0  0  0
    0.4111    0.8299   -2.2405 C   0  0  0  0  0  0  0  0  0  0  0  0
    0.3644    0.6315   -3.4775 O   0  5  0  0  0  0  0  0  0  0  0  0
    0.1809    1.9288   -1.6915 O   0  0  0  0  0  0  0  0  0  0  0  0
   -0.0374    1.1645    0.5781 C   0  0  0  0  0  0  0  0  0  0  0  0
   -0.9816    1.8416    0.1544 O   0  0  0  0  0  0  0  0  0  0  0  0
    0.8235    1.6462    1.4801 N   0  0  0  0  0  0  0  0  0  0  0  0
    1.6183    1.0435    1.7020 H   0  0  0  0  0  0  0  0  0  0  0  0
    0.7895    2.9929    2.0404 C   0  0  0  0  0  0  0  0  0  0  0  0
   -0.2344    3.2522    2.3130 H   0  0  0  0  0  0  0  0  0  0  0  0
    1.4265    3.0377    2.9233 H   0  0  0  0  0  0  0  0  0  0  0  0
    1.1511    3.7014    1.2950 H   0  0  0  0  0  0  0  0  0  0  0  0
  5  6  2  0  0  0  0
  5  7  1  0  0  0  0
  2  3  1  0  0  0  0
  2  4  1  0  0  0  0
  2  5  1  0  0  0  0
  1  2  1  0  0  0  0
 17 18  2  0  0  0  0
 17 19  1  0  0  0  0
 14 15  1  0  0  0  0
 14 16  2  0  0  0  0
 11 12  1  0  0  0  0
 11 13  1  0  0  0  0
 11 14  1  0  0  0  0
  9 10  1  0  0  0  0
  9 11  1  0  0  0  0
  9 17  1  0  0  0  0
  7  8  1  0  0  0  0
  7  9  1  0  0  0  0
 21 22  1  0  0  0  0
 21 23  1  0  0  0  0
 21 24  1  0  0  0  0
 19 20  1  0  0  0  0
 19 21  1  0  0  0  0
M  CHG  1  15  -1
M  END
$$$$
default_name
  -OEChem-02102213163D

 24 23  0     1  0  0  0  0  0999 V2000
   -2.8347   -3.7166    0.8034 H   0  0  0  0  0  0  0  0  0  0  0  0
   -2.7728   -2.7096    0.3954 C   0  0  0  0  0  0  0  0  0  0  0  0
   -3.4267   -2.0426    0.9524 H   0  0  0  0  0  0  0  0  0  0  0  0
   -3.0538   -2.7186   -0.6556 H   0  0  0  0  0  0  0  0  0  0  0  0
   -1.3498   -2.2206    0.5184 C   0  0  0  0  0  0  0  0  0  0  0  0
   -0.4997   -2.9426    1.0194 O   0  0  0  0  0  0  0  0  0  0  0  0
   -1.1198   -0.9926    0.0674 N   0  0  0  0  0  0  0  0  0  0  0  0
   -1.8978   -0.4486   -0.2716 H   0  0  0  0  0  0  0  0  0  0  0  0
    0.1693   -0.2866    0.0854 C   0  0  1  0  0  0  0  0  0  0  0  0
    0.8425   -0.7905    0.7811 H   0  0  0  0  0  0  0  0  0  0  0  0
    0.7993   -0.3404   -1.3233 C   0  0  0  0  0  0  0  0  0  0  0  0
    1.8860   -0.3334   -1.2215 H   0  0  0  0  0  0  0  0  0  0  0  0
    0.5156   -1.2811   -1.8000 H   0  0  0  0  0  0  0  0  0  0  0  0
    0.4111    0.8299   -2.2405 C   0  0  0  0  0  0  0  0  0  0  0  0
    0.0864    0.5801   -3.4253 O   0  5  0  0  0  0  0  0  0  0  0  0
    0.4619    1.9776   -1.7482 O   0  0  0  0  0  0  0  0  0  0  0  0
   -0.0374    1.1645    0.5781 C   0  0  0  0  0  0  0  0  0  0  0  0
   -0.9816    1.8416    0.1544 O   0  0  0  0  0  0  0  0  0  0  0  0
    0.8235    1.6462    1.4801 N   0  0  0  0  0  0  0  0  0  0  0  0
    1.6183    1.0435    1.7020 H   0  0  0  0  0  0  0  0  0  0  0  0
    0.7895    2.9929    2.0404 C   0  0  0  0  0  0  0  0  0  0  0  0
   -0.2344    3.2522    2.3130 H   0  0  0  0  0  0  0  0  0  0  0  0
    1.4265    3.0377    2.9233 H   0  0  0  0  0  0  0  0  0  0  0  0
    1.1511    3.7014    1.2950 H   0  0  0  0  0  0  0  0  0  0  0  0
  5  6  2  0  0  0  0
  5  7  1  0  0  0  0
  2  3  1  0  0  0  0
  2  4  1  0  0  0  0
  2  5  1  0  0  0  0
  1  2  1  0  0  0  0
 17 18  2  0  0  0  0
 17 19  1  0  0  0  0
 14 15  1  0  0  0  0
 14 16  2  0  0  0  0
 11 12  1  0  0  0  0
 11 13  1  0  0  0  0
 11 14  1  0  0  0  0
  9 10  1  0  0  0  0
  9 11  1  0  0  0  0
  9 17  1  0  0  0  0
  7  8  1  0  0  0  0
  7  9  1  0  0  0  0
 21 22  1  0  0  0  0
 21 23  1  0  0  0  0
 21 24  1  0  0  0  0
 19 20  1  0  0  0  0
 19 21  1  0  0  0  0
M  CHG  1  15  -1
M  END
$$$$
default_name
  -OEChem-02102213163D

 24 23  0     1  0  0  0  0  0999 V2000
   -2.8347   -3.7166    0.8034 H   0  0  0  0  0  0  0  0  0  0  0  0
   -2.7728   -2.7096    0.3954 C   0  0  0  0  0  0  0  0  0  0  0  0
   -3.4267   -2.0426    0.9524 H   0  0  0  0  0  0  0  0  0  0  0  0
   -3.0538   -2.7186   -0.6556 H   0  0  0  0  0  0  0  0  0  0  0  0
   -1.3498   -2.2206    0.5184 C   0  0  0  0  0  0  0  0  0  0  0  0
   -0.4997   -2.9426    1.0194 O   0  0  0  0  0  0  0  0  0  0  0  0
   -1.1198   -0.9926    0.0674 N   0  0  0  0  0  0  0  0  0  0  0  0
   -1.8978   -0.4486   -0.2716 H   0  0  0  0  0  0  0  0  0  0  0  0
    0.1693   -0.2866    0.0854 C   0  0  1  0  0  0  0  0  0  0  0  0
    0.8425   -0.7905    0.7811 H   0  0  0  0  0  0  0  0  0  0  0  0
    0.7993   -0.3404   -1.3233 C   0  0  0  0  0  0  0  0  0  0  0  0
    1.8860   -0.3334   -1.2215 H   0  0  0  0  0  0  0  0  0  0  0  0
    0.5156   -1.2811   -1.8000 H   0  0  0  0  0  0  0  0  0  0  0  0
    0.4111    0.8299   -2.2405 C   0  0  0  0  0  0  0  0  0  0  0  0
   -0.1798    0.5769   -3.3168 O   0  5  0  0  0  0  0  0  0  0  0  0
    0.7296    1.9775   -1.8616 O   0  0  0  0  0  0  0  0  0  0  0  0
   -0.0374    1.1645    0.5781 C   0  0  0  0  0  0  0  0  0  0  0  0
   -0.9816    1.8416    0.1544 O   0  0  0  0  0  0  0  0  0  0  0  0
    0.8235    1.6462    1.4801 N   0  0  0  0  0  0  0  0  0  0  0  0
    1.6183    1.0435    1.7020 H   0  0  0  0  0  0  0  0  0  0  0  0
    0.7895    2.9929    2.0404 C   0  0  0  0  0  0  0  0  0  0  0  0
   -0.2344    3.2522    2.3130 H   0  0  0  0  0  0  0  0  0  0  0  0
    1.4265    3.0377    2.9233 H   0  0  0  0  0  0  0  0  0  0  0  0
    1.1511    3.7014    1.2950 H   0  0  0  0  0  0  0  0  0  0  0  0
  5  6  2  0  0  0  0
  5  7  1  0  0  0  0
  2  3  1  0  0  0  0
  2  4  1  0  0  0  0
  2  5  1  0  0  0  0
  1  2  1  0  0  0  0
 17 18  2  0  0  0  0
 17 19  1  0  0  0  0
 14 15  1  0  0  0  0
 14 16  2  0  0  0  0
 11 12  1  0  0  0  0
 11 13  1  0  0  0  0
 11 14  1  0  0  0  0
  9 10  1  0  0  0  0
  9 11  1  0  0  0  0
  9 17  1  0  0  0  0
  7  8  1  0  0  0  0
  7  9  1  0  0  0  0
 21 22  1  0  0  0  0
 21 23  1  0  0  0  0
 21 24  1  0  0  0  0
 19 20  1  0  0  0  0
 19 21  1  0  0  0  0
M  CHG  1  15  -1
M  END
$$$$
default_name
  -OEChem-02102213163D

 24 23  0     1  0  0  0  0  0999 V2000
   -2.8347   -3.7166    0.8034 H   0  0  0  0  0  0  0  0  0  0  0  0
   -2.7728   -2.7096    0.3954 C   0  0  0  0  0  0  0  0  0  0  0  0
   -3.4267   -2.0426    0.9524 H   0  0  0  0  0  0  0  0  0  0  0  0
   -3.0538   -2.7186   -0.6556 H   0  0  0  0  0  0  0  0  0  0  0  0
   -1.3498   -2.2206    0.5184 C   0  0  0  0  0  0  0  0  0  0  0  0
   -0.4997   -2.9426    1.0194 O   0  0  0  0  0  0  0  0  0  0  0  0
   -1.1198   -0.9926    0.0674 N   0  0  0  0  0  0  0  0  0  0  0  0
   -1.8978   -0.4486   -0.2716 H   0  0  0  0  0  0  0  0  0  0  0  0
    0.1693   -0.2866    0.0854 C   0  0  1  0  0  0  0  0  0  0  0  0
    0.8425   -0.7905    0.7811 H   0  0  0  0  0  0  0  0  0  0  0  0
    0.7993   -0.3404   -1.3233 C   0  0  0  0  0  0  0  0  0  0  0  0
    1.8860   -0.3334   -1.2215 H   0  0  0  0  0  0  0  0  0  0  0  0
    0.5156   -1.2811   -1.8000 H   0  0  0  0  0  0  0  0  0  0  0  0
    0.4111    0.8299   -2.2405 C   0  0  0  0  0  0  0  0  0  0  0  0
   -0.4161    0.6219   -3.1593 O   0  5  0  0  0  0  0  0  0  0  0  0
    0.9658    1.9287   -2.0238 O   0  0  0  0  0  0  0  0  0  0  0  0
   -0.0374    1.1645    0.5781 C   0  0  0  0  0  0  0  0  0  0  0  0
   -0.9816    1.8416    0.1544 O   0  0  0  0  0  0  0  0  0  0  0  0
    0.8235    1.6462    1.4801 N   0  0  0  0  0  0  0  0  0  0  0  0
    1.6183    1.0435    1.7020 H   0  0  0  0  0  0  0  0  0  0  0  0
    0.7895    2.9929    2.0404 C   0  0  0  0  0  0  0  0  0  0  0  0
   -0.2344    3.2522    2.3130 H   0  0  0  0  0  0  0  0  0  0  0  0
    1.4265    3.0377    2.9233 H   0  0  0  0  0  0  0  0  0  0  0  0
    1.1511    3.7014    1.2950 H   0  0  0  0  0  0  0  0  0  0  0  0
  5  6  2  0  0  0  0
  5  7  1  0  0  0  0
  2  3  1  0  0  0  0
  2  4  1  0  0  0  0
  2  5  1  0  0  0  0
  1  2  1  0  0  0  0
 17 18  2  0  0  0  0
 17 19  1  0  0  0  0
 14 15  1  0  0  0  0
 14 16  2  0  0  0  0
 11 12  1  0  0  0  0
 11 13  1  0  0  0  0
 11 14  1  0  0  0  0
  9 10  1  0  0  0  0
  9 11  1  0  0  0  0
  9 17  1  0  0  0  0
  7  8  1  0  0  0  0
  7  9  1  0  0  0  0
 21 22  1  0  0  0  0
 21 23  1  0  0  0  0
 21 24  1  0  0  0  0
 19 20  1  0  0  0  0
 19 21  1  0  0  0  0
M  CHG  1  15  -1
M  END
$$$$
default_name
  -OEChem-02102213163D

 24 23  0     1  0  0  0  0  0999 V2000
   -2.8347   -3.7166    0.8034 H   0  0  0  0  0  0  0  0  0  0  0  0
   -2.7728   -2.7096    0.3954 C   0  0  0  0  0  0  0  0  0  0  0  0
   -3.4267   -2.0426    0.9524 H   0  0  0  0  0  0  0  0  0  0  0  0
   -3.0538   -2.7186   -0.6556 H   0  0  0  0  0  0  0  0  0  0  0  0
   -1.3498   -2.2206    0.5184 C   0  0  0  0  0  0  0  0  0  0  0  0
   -0.4997   -2.9426    1.0194 O   0  0  0  0  0  0  0  0  0  0  0  0
   -1.1198   -0.9926    0.0674 N   0  0  0  0  0  0  0  0  0  0  0  0
   -1.8978   -0.4486   -0.2716 H   0  0  0  0  0  0  0  0  0  0  0  0
    0.1693   -0.2866    0.0854 C   0  0  1  0  0  0  0  0  0  0  0  0
    0.8425   -0.7905    0.7811 H   0  0  0  0  0  0  0  0  0  0  0  0
    0.7993   -0.3404   -1.3233 C   0  0  0  0  0  0  0  0  0  0  0  0
    1.8860   -0.3334   -1.2215 H   0  0  0  0  0  0  0  0  0  0  0  0
    0.5156   -1.2811   -1.8000 H   0  0  0  0  0  0  0  0  0  0  0  0
    0.4111    0.8299   -2.2405 C   0  0  0  0  0  0  0  0  0  0  0  0
   -0.6063    0.7123   -2.9636 O   0  5  0  0  0  0  0  0  0  0  0  0
    1.1545    1.8345   -2.2239 O   0  0  0  0  0  0  0  0  0  0  0  0
   -0.0374    1.1645    0.5781 C   0  0  0  0  0  0  0  0  0  0  0  0
   -0.9816    1.8416    0.1544 O   0  0  0  0  0  0  0  0  0  0  0  0
    0.8235    1.6462    1.4801 N   0  0  0  0  0  0  0  0  0  0  0  0
    1.6183    1.0435    1.7020 H   0  0  0  0  0  0  0  0  0  0  0  0
    0.7895    2.9929    2.0404 C   0  0  0  0  0  0  0  0  0  0  0  0
   -0.2344    3.2522    2.3130 H   0  0  0  0  0  0  0  0  0  0  0  0
    1.4265    3.0377    2.9233 H   0  0  0  0  0  0  0  0  0  0  0  0
    1.1511    3.7014    1.2950 H   0  0  0  0  0  0  0  0  0  0  0  0
  5  6  2  0  0  0  0
  5  7  1  0  0  0  0
  2  3  1  0  0  0  0
  2  4  1  0  0  0  0
  2  5  1  0  0  0  0
  1  2  1  0  0  0  0
 17 18  2  0  0  0  0
 17 19  1  0  0  0  0
 14 15  1  0  0  0  0
 14 16  2  0  0  0  0
 11 12  1  0  0  0  0
 11 13  1  0  0  0  0
 11 14  1  0  0  0  0
  9 10  1  0  0  0  0
  9 11  1  0  0  0  0
  9 17  1  0  0  0  0
  7  8  1  0  0  0  0
  7  9  1  0  0  0  0
 21 22  1  0  0  0  0
 21 23  1  0  0  0  0
 21 24  1  0  0  0  0
 19 20  1  0  0  0  0
 19 21  1  0  0  0  0
M  CHG  1  15  -1
M  END
$$$$
default_name
  -OEChem-02102213163D

 24 23  0     1  0  0  0  0  0999 V2000
   -2.8347   -3.7166    0.8034 H   0  0  0  0  0  0  0  0  0  0  0  0
   -2.7728   -2.7096    0.3954 C   0  0  0  0  0  0  0  0  0  0  0  0
   -3.4267   -2.0426    0.9524 H   0  0  0  0  0  0  0  0  0  0  0  0
   -3.0538   -2.7186   -0.6556 H   0  0  0  0  0  0  0  0  0  0  0  0
   -1.3498   -2.2206    0.5184 C   0  0  0  0  0  0  0  0  0  0  0  0
   -0.4997   -2.9426    1.0194 O   0  0  0  0  0  0  0  0  0  0  0  0
   -1.1198   -0.9926    0.0674 N   0  0  0  0  0  0  0  0  0  0  0  0
   -1.8978   -0.4486   -0.2716 H   0  0  0  0  0  0  0  0  0  0  0  0
    0.1693   -0.2866    0.0854 C   0  0  1  0  0  0  0  0  0  0  0  0
    0.8425   -0.7905    0.7811 H   0  0  0  0  0  0  0  0  0  0  0  0
    0.7993   -0.3404   -1.3233 C   0  0  0  0  0  0  0  0  0  0  0  0
    1.8860   -0.3334   -1.2215 H   0  0  0  0  0  0  0  0  0  0  0  0
    0.5156   -1.2811   -1.8000 H   0  0  0  0  0  0  0  0  0  0  0  0
    0.4111    0.8299   -2.2405 C   0  0  0  0  0  0  0  0  0  0  0  0
   -0.7374    0.8417   -2.7429 O   0  5  0  0  0  0  0  0  0  0  0  0
    1.2828    1.7012   -2.4482 O   0  0  0  0  0  0  0  0  0  0  0  0
   -0.0374    1.1645    0.5781 C   0  0  0  0  0  0  0  0  0  0  0  0
   -0.9816    1.8416    0.1544 O   0  0  0  0  0  0  0  0  0  0  0  0
    0.8235    1.6462    1.4801 N   0  0  0  0  0  0  0  0  0  0  0  0
    1.6183    1.0435    1.7020 H   0  0  0  0  0  0  0  0  0  0  0  0
    0.7895    2.9929    2.0404 C   0  0  0  0  0  0  0  0  0  0  0  0
   -0.2344    3.2522    2.3130 H   0  0  0  0  0  0  0  0  0  0  0  0
    1.4265    3.0377    2.9233 H   0  0  0  0  0  0  0  0  0  0  0  0
    1.1511    3.7014    1.2950 H   0  0  0  0  0  0  0  0  0  0  0  0
  5  6  2  0  0  0  0
  5  7  1  0  0  0  0
  2  3  1  0  0  0  0
  2  4  1  0  0  0  0
  2  5  1  0  0  0  0
  1  2  1  0  0  0  0
 17 18  2  0  0  0  0
 17 19  1  0  0  0  0
 14 15  1  0  0  0  0
 14 16  2  0  0  0  0
 11 12  1  0  0  0  0
 11 13  1  0  0  0  0
 11 14  1  0  0  0  0
  9 10  1  0  0  0  0
  9 11  1  0  0  0  0
  9 17  1  0  0  0  0
  7  8  1  0  0  0  0
  7  9  1  0  0  0  0
 21 22  1  0  0  0  0
 21 23  1  0  0  0  0
 21 24  1  0  0  0  0
 19 20  1  0  0  0  0
 19 21  1  0  0  0  0
M  CHG  1  15  -1
M  END
$$$$
default_name
  -OEChem-02102213163D

 24 23  0     1  0  0  0  0  0999 V2000
   -2.8347   -3.7166    0.8034 H   0  0  0  0  0  0  0  0  0  0  0  0
   -2.7728   -2.7096    0.3954 C   0  0  0  0  0  0  0  0  0  0  0  0
   -3.4267   -2.0426    0.9524 H   0  0  0  0  0  0  0  0  0  0  0  0
   -3.0538   -2.7186   -0.6556 H   0  0  0  0  0  0  0  0  0  0  0  0
   -1.3498   -2.2206    0.5184 C   0  0  0  0  0  0  0  0  0  0  0  0
   -0.4997   -2.9426    1.0194 O   0  0  0  0  0  0  0  0  0  0  0  0
   -1.1198   -0.9926    0.0674 N   0  0  0  0  0  0  0  0  0  0  0  0
   -1.8978   -0.4486   -0.2716 H   0  0  0  0  0  0  0  0  0  0  0  0
    0.1693   -0.2866    0.0854 C   0  0  1  0  0  0  0  0  0  0  0  0
    0.8425   -0.7905    0.7811 H   0  0  0  0  0  0  0  0  0  0  0  0
    0.7993   -0.3404   -1.3233 C   0  0  0  0  0  0  0  0  0  0  0  0
    1.8860   -0.3334   -1.2215 H   0  0  0  0  0  0  0  0  0  0  0  0
    0.5156   -1.2811   -1.8000 H   0  0  0  0  0  0  0  0  0  0  0  0
    0.4111    0.8299   -2.2405 C   0  0  0  0  0  0  0  0  0  0  0  0
   -0.8006    1.0015   -2.5124 O   0  5  0  0  0  0  0  0  0  0  0  0
    1.3418    1.5380   -2.6815 O   0  0  0  0  0  0  0  0  0  0  0  0
   -0.0374    1.1645    0.5781 C   0  0  0  0  0  0  0  0  0  0  0  0
   -0.9816    1.8416    0.1544 O   0  0  0  0  0  0  0  0  0  0  0  0
    0.8235    1.6462    1.4801 N   0  0  0  0  0  0  0  0  0  0  0  0
    1.6183    1.0435    1.7020 H   0  0  0  0  0  0  0  0  0  0  0  0
    0.7895    2.9929    2.0404 C   0  0  0  0  0  0  0  0  0  0  0  0
   -0.2344    3.2522    2.3130 H   0  0  0  0  0  0  0  0  0  0  0  0
    1.4265    3.0377    2.9233 H   0  0  0  0  0  0  0  0  0  0  0  0
    1.1511    3.7014    1.2950 H   0  0  0  0  0  0  0  0  0  0  0  0
  5  6  2  0  0  0  0
  5  7  1  0  0  0  0
  2  3  1  0  0  0  0
  2  4  1  0  0  0  0
  2  5  1  0  0  0  0
  1  2  1  0  0  0  0
 17 18  2  0  0  0  0
 17 19  1  0  0  0  0
 14 15  1  0  0  0  0
 14 16  2  0  0  0  0
 11 12  1  0  0  0  0
 11 13  1  0  0  0  0
 11 14  1  0  0  0  0
  9 10  1  0  0  0  0
  9 11  1  0  0  0  0
  9 17  1  0  0  0  0
  7  8  1  0  0  0  0
  7  9  1  0  0  0  0
 21 22  1  0  0  0  0
 21 23  1  0  0  0  0
 21 24  1  0  0  0  0
 19 20  1  0  0  0  0
 19 21  1  0  0  0  0
M  CHG  1  15  -1
M  END
$$$$
default_name
  -OEChem-02102213163D

 24 23  0     1  0  0  0  0  0999 V2000
   -2.8347   -3.7166    0.8034 H   0  0  0  0  0  0  0  0  0  0  0  0
   -2.7728   -2.7096    0.3954 C   0  0  0  0  0  0  0  0  0  0  0  0
   -3.4267   -2.0426    0.9524 H   0  0  0  0  0  0  0  0  0  0  0  0
   -3.0538   -2.7186   -0.6556 H   0  0  0  0  0  0  0  0  0  0  0  0
   -1.3498   -2.2206    0.5184 C   0  0  0  0  0  0  0  0  0  0  0  0
   -0.4997   -2.9426    1.0194 O   0  0  0  0  0  0  0  0  0  0  0  0
   -1.1198   -0.9926    0.0674 N   0  0  0  0  0  0  0  0  0  0  0  0
   -1.8978   -0.4486   -0.2716 H   0  0  0  0  0  0  0  0  0  0  0  0
    0.1693   -0.2866    0.0854 C   0  0  1  0  0  0  0  0  0  0  0  0
    0.8425   -0.7905    0.7811 H   0  0  0  0  0  0  0  0  0  0  0  0
    0.7993   -0.3404   -1.3233 C   0  0  0  0  0  0  0  0  0  0  0  0
    1.8860   -0.3334   -1.2215 H   0  0  0  0  0  0  0  0  0  0  0  0
    0.5156   -1.2811   -1.8000 H   0  0  0  0  0  0  0  0  0  0  0  0
    0.4111    0.8299   -2.2405 C   0  0  0  0  0  0  0  0  0  0  0  0
   -0.7916    1.1806   -2.2877 O   0  5  0  0  0  0  0  0  0  0  0  0
    1.3277    1.3559   -2.9077 O   0  0  0  0  0  0  0  0  0  0  0  0
   -0.0374    1.1645    0.5781 C   0  0  0  0  0  0  0  0  0  0  0  0
   -0.9816    1.8416    0.1544 O   0  0  0  0  0  0  0  0  0  0  0  0
    0.8235    1.6462    1.4801 N   0  0  0  0  0  0  0  0  0  0  0  0
    1.6183    1.0435    1.7020 H   0  0  0  0  0  0  0  0  0  0  0  0
    0.7895    2.9929    2.0404 C   0  0  0  0  0  0  0  0  0  0  0  0
   -0.2344    3.2522    2.3130 H   0  0  0  0  0  0  0  0  0  0  0  0
    1.4265    3.0377    2.9233 H   0  0  0  0  0  0  0  0  0  0  0  0
    1.1511    3.7014    1.2950 H   0  0  0  0  0  0  0  0  0  0  0  0
  5  6  2  0  0  0  0
  5  7  1  0  0  0  0
  2  3  1  0  0  0  0
  2  4  1  0  0  0  0
  2  5  1  0  0  0  0
  1  2  1  0  0  0  0
 17 18  2  0  0  0  0
 17 19  1  0  0  0  0
 14 15  1  0  0  0  0
 14 16  2  0  0  0  0
 11 12  1  0  0  0  0
 11 13  1  0  0  0  0
 11 14  1  0  0  0  0
  9 10  1  0  0  0  0
  9 11  1  0  0  0  0
  9 17  1  0  0  0  0
  7  8  1  0  0  0  0
  7  9  1  0  0  0  0
 21 22  1  0  0  0  0
 21 23  1  0  0  0  0
 21 24  1  0  0  0  0
 19 20  1  0  0  0  0
 19 21  1  0  0  0  0
M  CHG  1  15  -1
M  END
$$$$
default_name
  -OEChem-02102213163D

 24 23  0     1  0  0  0  0  0999 V2000
   -2.8347   -3.7166    0.8034 H   0  0  0  0  0  0  0  0  0  0  0  0
   -2.7728   -2.7096    0.3954 C   0  0  0  0  0  0  0  0  0  0  0  0
   -3.4267   -2.0426    0.9524 H   0  0  0  0  0  0  0  0  0  0  0  0
   -3.0538   -2.7186   -0.6556 H   0  0  0  0  0  0  0  0  0  0  0  0
   -1.3498   -2.2206    0.5184 C   0  0  0  0  0  0  0  0  0  0  0  0
   -0.4997   -2.9426    1.0194 O   0  0  0  0  0  0  0  0  0  0  0  0
   -1.1198   -0.9926    0.0674 N   0  0  0  0  0  0  0  0  0  0  0  0
   -1.8978   -0.4486   -0.2716 H   0  0  0  0  0  0  0  0  0  0  0  0
    0.1693   -0.2866    0.0854 C   0  0  1  0  0  0  0  0  0  0  0  0
    0.8425   -0.7905    0.7811 H   0  0  0  0  0  0  0  0  0  0  0  0
    0.7993   -0.3404   -1.3233 C   0  0  0  0  0  0  0  0  0  0  0  0
    1.8860   -0.3334   -1.2215 H   0  0  0  0  0  0  0  0  0  0  0  0
    0.5156   -1.2811   -1.8000 H   0  0  0  0  0  0  0  0  0  0  0  0
    0.4111    0.8299   -2.2405 C   0  0  0  0  0  0  0  0  0  0  0  0
   -0.7109    1.3669   -2.0842 O   0  5  0  0  0  0  0  0  0  0  0  0
    1.2414    1.1675   -3.1116 O   0  0  0  0  0  0  0  0  0  0  0  0
   -0.0374    1.1645    0.5781 C   0  0  0  0  0  0  0  0  0  0  0  0
   -0.9816    1.8416    0.1544 O   0  0  0  0  0  0  0  0  0  0  0  0
    0.8235    1.6462    1.4801 N   0  0  0  0  0  0  0  0  0  0  0  0
    1.6183    1.0435    1.7020 H   0  0  0  0  0  0  0  0  0  0  0  0
    0.7895    2.9929    2.0404 C   0  0  0  0  0  0  0  0  0  0  0  0
   -0.2344    3.2522    2.3130 H   0  0  0  0  0  0  0  0  0  0  0  0
    1.4265    3.0377    2.9233 H   0  0  0  0  0  0  0  0  0  0  0  0
    1.1511    3.7014    1.2950 H   0  0  0  0  0  0  0  0  0  0  0  0
  5  6  2  0  0  0  0
  5  7  1  0  0  0  0
  2  3  1  0  0  0  0
  2  4  1  0  0  0  0
  2  5  1  0  0  0  0
  1  2  1  0  0  0  0
 17 18  2  0  0  0  0
 17 19  1  0  0  0  0
 14 15  1  0  0  0  0
 14 16  2  0  0  0  0
 11 12  1  0  0  0  0
 11 13  1  0  0  0  0
 11 14  1  0  0  0  0
  9 10  1  0  0  0  0
  9 11  1  0  0  0  0
  9 17  1  0  0  0  0
  7  8  1  0  0  0  0
  7  9  1  0  0  0  0
 21 22  1  0  0  0  0
 21 23  1  0  0  0  0
 21 24  1  0  0  0  0
 19 20  1  0  0  0  0
 19 21  1  0  0  0  0
M  CHG  1  15  -1
M  END
$$$$
default_name
  -OEChem-02102213163D

 24 23  0     1  0  0  0  0  0999 V2000
   -2.8347   -3.7166    0.8034 H   0  0  0  0  0  0  0  0  0  0  0  0
   -2.7728   -2.7096    0.3954 C   0  0  0  0  0  0  0  0  0  0  0  0
   -3.4267   -2.0426    0.9524 H   0  0  0  0  0  0  0  0  0  0  0  0
   -3.0538   -2.7186   -0.6556 H   0  0  0  0  0  0  0  0  0  0  0  0
   -1.3498   -2.2206    0.5184 C   0  0  0  0  0  0  0  0  0  0  0  0
   -0.4997   -2.9426    1.0194 O   0  0  0  0  0  0  0  0  0  0  0  0
   -1.1198   -0.9926    0.0674 N   0  0  0  0  0  0  0  0  0  0  0  0
   -1.8978   -0.4486   -0.2716 H   0  0  0  0  0  0  0  0  0  0  0  0
    0.1693   -0.2866    0.0854 C   0  0  1  0  0  0  0  0  0  0  0  0
    0.8425   -0.7905    0.7811 H   0  0  0  0  0  0  0  0  0  0  0  0
    0.7993   -0.3404   -1.3233 C   0  0  0  0  0  0  0  0  0  0  0  0
    1.8860   -0.3334   -1.2215 H   0  0  0  0  0  0  0  0  0  0  0  0
    0.5156   -1.2811   -1.8000 H   0  0  0  0  0  0  0  0  0  0  0  0
    0.4111    0.8299   -2.2405 C   0  0  0  0  0  0  0  0  0  0  0  0
   -0.5640    1.5477   -1.9156 O   0  5  0  0  0  0  0  0  0  0  0  0
    1.0887    0.9855   -3.2792 O   0  0  0  0  0  0  0  0  0  0  0  0
   -0.0374    1.1645    0.5781 C   0  0  0  0  0  0  0  0  0  0  0  0
   -0.9816    1.8416    0.1544 O   0  0  0  0  0  0  0  0  0  0  0  0
    0.8235    1.6462    1.4801 N   0  0  0  0  0  0  0  0  0  0  0  0
    1.6183    1.0435    1.7020 H   0  0  0  0  0  0  0  0  0  0  0  0
    0.7895    2.9929    2.0404 C   0  0  0  0  0  0  0  0  0  0  0  0
   -0.2344    3.2522    2.3130 H   0  0  0  0  0  0  0  0  0  0  0  0
    1.4265    3.0377    2.9233 H   0  0  0  0  0  0  0  0  0  0  0  0
    1.1511    3.7014    1.2950 H   0  0  0  0  0  0  0  0  0  0  0  0
  5  6  2  0  0  0  0
  5  7  1  0  0  0  0
  2  3  1  0  0  0  0
  2  4  1  0  0  0  0
  2  5  1  0  0  0  0
  1  2  1  0  0  0  0
 17 18  2  0  0  0  0
 17 19  1  0  0  0  0
 14 15  1  0  0  0  0
 14 16  2  0  0  0  0
 11 12  1  0  0  0  0
 11 13  1  0  0  0  0
 11 14  1  0  0  0  0
  9 10  1  0  0  0  0
  9 11  1  0  0  0  0
  9 17  1  0  0  0  0
  7  8  1  0  0  0  0
  7  9  1  0  0  0  0
 21 22  1  0  0  0  0
 21 23  1  0  0  0  0
 21 24  1  0  0  0  0
 19 20  1  0  0  0  0
 19 21  1  0  0  0  0
M  CHG  1  15  -1
M  END
$$$$
default_name
  -OEChem-02102213163D

 24 23  0     1  0  0  0  0  0999 V2000
   -2.8347   -3.7166    0.8034 H   0  0  0  0  0  0  0  0  0  0  0  0
   -2.7728   -2.7096    0.3954 C   0  0  0  0  0  0  0  0  0  0  0  0
   -3.4267   -2.0426    0.9524 H   0  0  0  0  0  0  0  0  0  0  0  0
   -3.0538   -2.7186   -0.6556 H   0  0  0  0  0  0  0  0  0  0  0  0
   -1.3498   -2.2206    0.5184 C   0  0  0  0  0  0  0  0  0  0  0  0
   -0.4997   -2.9426    1.0194 O   0  0  0  0  0  0  0  0  0  0  0  0
   -1.1198   -0.9926    0.0674 N   0  0  0  0  0  0  0  0  0  0  0  0
   -1.8978   -0.4486   -0.2716 H   0  0  0  0  0  0  0  0  0  0  0  0
    0.1693   -0.2866    0.0854 C   0  0  1  0  0  0  0  0  0  0  0  0
    0.8425   -0.7905    0.7811 H   0  0  0  0  0  0  0  0  0  0  0  0
    0.7993   -0.3404   -1.3233 C   0  0  0  0  0  0  0  0  0  0  0  0
    1.8860   -0.3334   -1.2215 H   0  0  0  0  0  0  0  0  0  0  0  0
    0.5156   -1.2811   -1.8000 H   0  0  0  0  0  0  0  0  0  0  0  0
    0.4111    0.8299   -2.2405 C   0  0  0  0  0  0  0  0  0  0  0  0
   -0.3610    1.7106   -1.7936 O   0  5  0  0  0  0  0  0  0  0  0  0
    0.8801    0.8223   -3.3990 O   0  0  0  0  0  0  0  0  0  0  0  0
   -0.0374    1.1645    0.5781 C   0  0  0  0  0  0  0  0  0  0  0  0
   -0.9816    1.8416    0.1544 O   0  0  0  0  0  0  0  0  0  0  0  0
    0.8235    1.6462    1.4801 N   0  0  0  0  0  0  0  0  0  0  0  0
    1.6183    1.0435    1.7020 H   0  0  0  0  0  0  0  0  0  0  0  0
    0.7895    2.9929    2.0404 C   0  0  0  0  0  0  0  0  0  0  0  0
   -0.2344    3.2522    2.3130 H   0  0  0  0  0  0  0  0  0  0  0  0
    1.4265    3.0377    2.9233 H   0  0  0  0  0  0  0  0  0  0  0  0
    1.1511    3.7014    1.2950 H   0  0  0  0  0  0  0  0  0  0  0  0
  5  6  2  0  0  0  0
  5  7  1  0  0  0  0
  2  3  1  0  0  0  0
  2  4  1  0  0  0  0
  2  5  1  0  0  0  0
  1  2  1  0  0  0  0
 17 18  2  0  0  0  0
 17 19  1  0  0  0  0
 14 15  1  0  0  0  0
 14 16  2  0  0  0  0
 11 12  1  0  0  0  0
 11 13  1  0  0  0  0
 11 14  1  0  0  0  0
  9 10  1  0  0  0  0
  9 11  1  0  0  0  0
  9 17  1  0  0  0  0
  7  8  1  0  0  0  0
  7  9  1  0  0  0  0
 21 22  1  0  0  0  0
 21 23  1  0  0  0  0
 21 24  1  0  0  0  0
 19 20  1  0  0  0  0
 19 21  1  0  0  0  0
M  CHG  1  15  -1
M  END
$$$$
default_name
  -OEChem-02102213163D

 24 23  0     1  0  0  0  0  0999 V2000
   -2.8347   -3.7166    0.8034 H   0  0  0  0  0  0  0  0  0  0  0  0
   -2.7728   -2.7096    0.3954 C   0  0  0  0  0  0  0  0  0  0  0  0
   -3.4267   -2.0426    0.9524 H   0  0  0  0  0  0  0  0  0  0  0  0
   -3.0538   -2.7186   -0.6556 H   0  0  0  0  0  0  0  0  0  0  0  0
   -1.3498   -2.2206    0.5184 C   0  0  0  0  0  0  0  0  0  0  0  0
   -0.4997   -2.9426    1.0194 O   0  0  0  0  0  0  0  0  0  0  0  0
   -1.1198   -0.9926    0.0674 N   0  0  0  0  0  0  0  0  0  0  0  0
   -1.8978   -0.4486   -0.2716 H   0  0  0  0  0  0  0  0  0  0  0  0
    0.1693   -0.2866    0.0854 C   0  0  1  0  0  0  0  0  0  0  0  0
    0.8425   -0.7905    0.7811 H   0  0  0  0  0  0  0  0  0  0  0  0
    0.7993   -0.3404   -1.3233 C   0  0  0  0  0  0  0  0  0  0  0  0
    1.8860   -0.3334   -1.2215 H   0  0  0  0  0  0  0  0  0  0  0  0
    0.5156   -1.2811   -1.8000 H   0  0  0  0  0  0  0  0  0  0  0  0
    0.4111    0.8299   -2.2405 C   0  0  0  0  0  0  0  0  0  0  0  0
   -0.1157    1.8447   -1.7265 O   0  5  0  0  0  0  0  0  0  0  0  0
    0.6297    0.6891   -3.4630 O   0  0  0  0  0  0  0  0  0  0  0  0
   -0.0374    1.1645    0.5781 C   0  0  0  0  0  0  0  0  0  0  0  0
   -0.9816    1.8416    0.1544 O   0  0  0  0  0  0  0  0  0  0  0  0
    0.8235    1.6462    1.4801 N   0  0  0  0  0  0  0  0  0  0  0  0
    1.6183    1.0435    1.7020 H   0  0  0  0  0  0  0  0  0  0  0  0
    0.7895    2.9929    2.0404 C   0  0  0  0  0  0  0  0  0  0  0  0
   -0.2344    3.2522    2.3130 H   0  0  0  0  0  0  0  0  0  0  0  0
    1.4265    3.0377    2.9233 H   0  0  0  0  0  0  0  0  0  0  0  0
    1.1511    3.7014    1.2950 H   0  0  0  0  0  0  0  0  0  0  0  0
  5  6  2  0  0  0  0
  5  7  1  0  0  0  0
  2  3  1  0  0  0  0
  2  4  1  0  0  0  0
  2  5  1  0  0  0  0
  1  2  1  0  0  0  0
 17 18  2  0  0  0  0
 17 19  1  0  0  0  0
 14 15  1  0  0  0  0
 14 16  2  0  0  0  0
 11 12  1  0  0  0  0
 11 13  1  0  0  0  0
 11 14  1  0  0  0  0
  9 10  1  0  0  0  0
  9 11  1  0  0  0  0
  9 17  1  0  0  0  0
  7  8  1  0  0  0  0
  7  9  1  0  0  0  0
 21 22  1  0  0  0  0
 21 23  1  0  0  0  0
 21 24  1  0  0  0  0
 19 20  1  0  0  0  0
 19 21  1  0  0  0  0
M  CHG  1  15  -1
M  END
$$$$
default_name
  -OEChem-02102213163D

 24 23  0     1  0  0  0  0  0999 V2000
   -2.8347   -3.7166    0.8034 H   0  0  0  0  0  0  0  0  0  0  0  0
   -2.7728   -2.7096    0.3954 C   0  0  0  0  0  0  0  0  0  0  0  0
   -3.4267   -2.0426    0.9524 H   0  0  0  0  0  0  0  0  0  0  0  0
   -3.0538   -2.7186   -0.6556 H   0  0  0  0  0  0  0  0  0  0  0  0
   -1.3498   -2.2206    0.5184 C   0  0  0  0  0  0  0  0  0  0  0  0
   -0.4997   -2.9426    1.0194 O   0  0  0  0  0  0  0  0  0  0  0  0
   -1.1198   -0.9926    0.0674 N   0  0  0  0  0  0  0  0  0  0  0  0
   -1.8978   -0.4486   -0.2716 H   0  0  0  0  0  0  0  0  0  0  0  0
    0.1693   -0.2866    0.0854 C   0  0  1  0  0  0  0  0  0  0  0  0
    0.8425   -0.7905    0.7811 H   0  0  0  0  0  0  0  0  0  0  0  0
    0.7993   -0.3404   -1.3233 C   0  0  0  0  0  0  0  0  0  0  0  0
    1.8860   -0.3334   -1.2215 H   0  0  0  0  0  0  0  0  0  0  0  0
    0.5156   -1.2811   -1.8000 H   0  0  0  0  0  0  0  0  0  0  0  0
    0.4111    0.8299   -2.2405 C   0  0  0  0  0  0  0  0  0  0  0  0
    0.1552    1.9406   -1.7187 O   0  5  0  0  0  0  0  0  0  0  0  0
    0.3547    0.5949   -3.4668 O   0  0  0  0  0  0  0  0  0  0  0  0
   -0.0374    1.1645    0.5781 C   0  0  0  0  0  0  0  0  0  0  0  0
   -0.9816    1.8416    0.1544 O   0  0  0  0  0  0  0  0  0  0  0  0
    0.8235    1.6462    1.4801 N   0  0  0  0  0  0  0  0  0  0  0  0
    1.6183    1.0435    1.7020 H   0  0  0  0  0  0  0  0  0  0  0  0
    0.7895    2.9929    2.0404 C   0  0  0  0  0  0  0  0  0  0  0  0
   -0.2344    3.2522    2.3130 H   0  0  0  0  0  0  0  0  0  0  0  0
    1.4265    3.0377    2.9233 H   0  0  0  0  0  0  0  0  0  0  0  0
    1.1511    3.7014    1.2950 H   0  0  0  0  0  0  0  0  0  0  0  0
  5  6  2  0  0  0  0
  5  7  1  0  0  0  0
  2  3  1  0  0  0  0
  2  4  1  0  0  0  0
  2  5  1  0  0  0  0
  1  2  1  0  0  0  0
 17 18  2  0  0  0  0
 17 19  1  0  0  0  0
 14 15  1  0  0  0  0
 14 16  2  0  0  0  0
 11 12  1  0  0  0  0
 11 13  1  0  0  0  0
 11 14  1  0  0  0  0
  9 10  1  0  0  0  0
  9 11  1  0  0  0  0
  9 17  1  0  0  0  0
  7  8  1  0  0  0  0
  7  9  1  0  0  0  0
 21 22  1  0  0  0  0
 21 23  1  0  0  0  0
 21 24  1  0  0  0  0
 19 20  1  0  0  0  0
 19 21  1  0  0  0  0
M  CHG  1  15  -1
M  END
$$$$
default_name
  -OEChem-02102213163D

 24 23  0     1  0  0  0  0  0999 V2000
   -2.8347   -3.7166    0.8034 H   0  0  0  0  0  0  0  0  0  0  0  0
   -2.7728   -2.7096    0.3954 C   0  0  0  0  0  0  0  0  0  0  0  0
   -3.4267   -2.0426    0.9524 H   0  0  0  0  0  0  0  0  0  0  0  0
   -3.0538   -2.7186   -0.6556 H   0  0  0  0  0  0  0  0  0  0  0  0
   -1.3498   -2.2206    0.5184 C   0  0  0  0  0  0  0  0  0  0  0  0
   -0.4997   -2.9426    1.0194 O   0  0  0  0  0  0  0  0  0  0  0  0
   -1.1198   -0.9926    0.0674 N   0  0  0  0  0  0  0  0  0  0  0  0
   -1.8978   -0.4486   -0.2716 H   0  0  0  0  0  0  0  0  0  0  0  0
    0.1693   -0.2866    0.0854 C   0  0  1  0  0  0  0  0  0  0  0  0
    0.8425   -0.7905    0.7811 H   0  0  0  0  0  0  0  0  0  0  0  0
    0.7993   -0.3404   -1.3233 C   0  0  0  0  0  0  0  0  0  0  0  0
    1.8860   -0.3334   -1.2215 H   0  0  0  0  0  0  0  0  0  0  0  0
    0.5156   -1.2811   -1.8000 H   0  0  0  0  0  0  0  0  0  0  0  0
    0.4111    0.8299   -2.2405 C   0  0  0  0  0  0  0  0  0  0  0  0
    0.4332    1.9920   -1.7708 O   0  5  0  0  0  0  0  0  0  0  0  0
    0.0737    0.5462   -3.4101 O   0  0  0  0  0  0  0  0  0  0  0  0
   -0.0374    1.1645    0.5781 C   0  0  0  0  0  0  0  0  0  0  0  0
   -0.9816    1.8416    0.1544 O   0  0  0  0  0  0  0  0  0  0  0  0
    0.8235    1.6462    1.4801 N   0  0  0  0  0  0  0  0  0  0  0  0
    1.6183    1.0435    1.7020 H   0  0  0  0  0  0  0  0  0  0  0  0
    0.7895    2.9929    2.0404 C   0  0  0  0  0  0  0  0  0  0  0  0
   -0.2344    3.2522    2.3130 H   0  0  0  0  0  0  0  0  0  0  0  0
    1.4265    3.0377    2.9233 H   0  0  0  0  0  0  0  0  0  0  0  0
    1.1511    3.7014    1.2950 H   0  0  0  0  0  0  0  0  0  0  0  0
  5  6  2  0  0  0  0
  5  7  1  0  0  0  0
  2  3  1  0  0  0  0
  2  4  1  0  0  0  0
  2  5  1  0  0  0  0
  1  2  1  0  0  0  0
 17 18  2  0  0  0  0
 17 19  1  0  0  0  0
 14 15  1  0  0  0  0
 14 16  2  0  0  0  0
 11 12  1  0  0  0  0
 11 13  1  0  0  0  0
 11 14  1  0  0  0  0
  9 10  1  0  0  0  0
  9 11  1  0  0  0  0
  9 17  1  0  0  0  0
  7  8  1  0  0  0  0
  7  9  1  0  0  0  0
 21 22  1  0  0  0  0
 21 23  1  0  0  0  0
 21 24  1  0  0  0  0
 19 20  1  0  0  0  0
 19 21  1  0  0  0  0
M  CHG  1  15  -1
M  END
$$$$
default_name
  -OEChem-02102213163D

 24 23  0     1  0  0  0  0  0999 V2000
   -2.8347   -3.7166    0.8034 H   0  0  0  0  0  0  0  0  0  0  0  0
   -2.7728   -2.7096    0.3954 C   0  0  0  0  0  0  0  0  0  0  0  0
   -3.4267   -2.0426    0.9524 H   0  0  0  0  0  0  0  0  0  0  0  0
   -3.0538   -2.7186   -0.6556 H   0  0  0  0  0  0  0  0  0  0  0  0
   -1.3498   -2.2206    0.5184 C   0  0  0  0  0  0  0  0  0  0  0  0
   -0.4997   -2.9426    1.0194 O   0  0  0  0  0  0  0  0  0  0  0  0
   -1.1198   -0.9926    0.0674 N   0  0  0  0  0  0  0  0  0  0  0  0
   -1.8978   -0.4486   -0.2716 H   0  0  0  0  0  0  0  0  0  0  0  0
    0.1693   -0.2866    0.0854 C   0  0  1  0  0  0  0  0  0  0  0  0
    0.8425   -0.7905    0.7811 H   0  0  0  0  0  0  0  0  0  0  0  0
    0.7993   -0.3404   -1.3233 C   0  0  0  0  0  0  0  0  0  0  0  0
    1.8860   -0.3334   -1.2215 H   0  0  0  0  0  0  0  0  0  0  0  0
    0.5156   -1.2811   -1.8000 H   0  0  0  0  0  0  0  0  0  0  0  0
    0.4111    0.8299   -2.2405 C   0  0  0  0  0  0  0  0  0  0  0  0
    0.6994    1.9952   -1.8794 O   0  5  0  0  0  0  0  0  0  0  0  0
   -0.1940    0.5462   -3.2967 O   0  0  0  0  0  0  0  0  0  0  0  0
   -0.0374    1.1645    0.5781 C   0  0  0  0  0  0  0  0  0  0  0  0
   -0.9816    1.8416    0.1544 O   0  0  0  0  0  0  0  0  0  0  0  0
    0.8235    1.6462    1.4801 N   0  0  0  0  0  0  0  0  0  0  0  0
    1.6183    1.0435    1.7020 H   0  0  0  0  0  0  0  0  0  0  0  0
    0.7895    2.9929    2.0404 C   0  0  0  0  0  0  0  0  0  0  0  0
   -0.2344    3.2522    2.3130 H   0  0  0  0  0  0  0  0  0  0  0  0
    1.4265    3.0377    2.9233 H   0  0  0  0  0  0  0  0  0  0  0  0
    1.1511    3.7014    1.2950 H   0  0  0  0  0  0  0  0  0  0  0  0
  5  6  2  0  0  0  0
  5  7  1  0  0  0  0
  2  3  1  0  0  0  0
  2  4  1  0  0  0  0
  2  5  1  0  0  0  0
  1  2  1  0  0  0  0
 17 18  2  0  0  0  0
 17 19  1  0  0  0  0
 14 15  1  0  0  0  0
 14 16  2  0  0  0  0
 11 12  1  0  0  0  0
 11 13  1  0  0  0  0
 11 14  1  0  0  0  0
  9 10  1  0  0  0  0
  9 11  1  0  0  0  0
  9 17  1  0  0  0  0
  7  8  1  0  0  0  0
  7  9  1  0  0  0  0
 21 22  1  0  0  0  0
 21 23  1  0  0  0  0
 21 24  1  0  0  0  0
 19 20  1  0  0  0  0
 19 21  1  0  0  0  0
M  CHG  1  15  -1
M  END
$$$$
default_name
  -OEChem-02102213163D

 24 23  0     1  0  0  0  0  0999 V2000
   -2.8347   -3.7166    0.8034 H   0  0  0  0  0  0  0  0  0  0  0  0
   -2.7728   -2.7096    0.3954 C   0  0  0  0  0  0  0  0  0  0  0  0
   -3.4267   -2.0426    0.9524 H   0  0  0  0  0  0  0  0  0  0  0  0
   -3.0538   -2.7186   -0.6556 H   0  0  0  0  0  0  0  0  0  0  0  0
   -1.3498   -2.2206    0.5184 C   0  0  0  0  0  0  0  0  0  0  0  0
   -0.4997   -2.9426    1.0194 O   0  0  0  0  0  0  0  0  0  0  0  0
   -1.1198   -0.9926    0.0674 N   0  0  0  0  0  0  0  0  0  0  0  0
   -1.8978   -0.4486   -0.2716 H   0  0  0  0  0  0  0  0  0  0  0  0
    0.1693   -0.2866    0.0854 C   0  0  1  0  0  0  0  0  0  0  0  0
    0.8425   -0.7905    0.7811 H   0  0  0  0  0  0  0  0  0  0  0  0
    0.7993   -0.3404   -1.3233 C   0  0  0  0  0  0  0  0  0  0  0  0
    1.8860   -0.3334   -1.2215 H   0  0  0  0  0  0  0  0  0  0  0  0
    0.5156   -1.2811   -1.8000 H   0  0  0  0  0  0  0  0  0  0  0  0
    0.4111    0.8299   -2.2405 C   0  0  0  0  0  0  0  0  0  0  0  0
    0.9356    1.9502   -2.0369 O   0  5  0  0  0  0  0  0  0  0  0  0
   -0.4303    0.5950   -3.1344 O   0  0  0  0  0  0  0  0  0  0  0  0
   -0.0374    1.1645    0.5781 C   0  0  0  0  0  0  0  0  0  0  0  0
   -0.9816    1.8416    0.1544 O   0  0  0  0  0  0  0  0  0  0  0  0
    0.8235    1.6462    1.4801 N   0  0  0  0  0  0  0  0  0  0  0  0
    1.6183    1.0435    1.7020 H   0  0  0  0  0  0  0  0  0  0  0  0
    0.7895    2.9929    2.0404 C   0  0  0  0  0  0  0  0  0  0  0  0
   -0.2344    3.2522    2.3130 H   0  0  0  0  0  0  0  0  0  0  0  0
    1.4265    3.0377    2.9233 H   0  0  0  0  0  0  0  0  0  0  0  0
    1.1511    3.7014    1.2950 H   0  0  0  0  0  0  0  0  0  0  0  0
  5  6  2  0  0  0  0
  5  7  1  0  0  0  0
  2  3  1  0  0  0  0
  2  4  1  0  0  0  0
  2  5  1  0  0  0  0
  1  2  1  0  0  0  0
 17 18  2  0  0  0  0
 17 19  1  0  0  0  0
 14 15  1  0  0  0  0
 14 16  2  0  0  0  0
 11 12  1  0  0  0  0
 11 13  1  0  0  0  0
 11 14  1  0  0  0  0
  9 10  1  0  0  0  0
  9 11  1  0  0  0  0
  9 17  1  0  0  0  0
  7  8  1  0  0  0  0
  7  9  1  0  0  0  0
 21 22  1  0  0  0  0
 21 23  1  0  0  0  0
 21 24  1  0  0  0  0
 19 20  1  0  0  0  0
 19 21  1  0  0  0  0
M  CHG  1  15  -1
M  END
$$$$
default_name
  -OEChem-02102213163D

 24 23  0     1  0  0  0  0  0999 V2000
   -2.8347   -3.7166    0.8034 H   0  0  0  0  0  0  0  0  0  0  0  0
   -2.7728   -2.7096    0.3954 C   0  0  0  0  0  0  0  0  0  0  0  0
   -3.4267   -2.0426    0.9524 H   0  0  0  0  0  0  0  0  0  0  0  0
   -3.0538   -2.7186   -0.6556 H   0  0  0  0  0  0  0  0  0  0  0  0
   -1.3498   -2.2206    0.5184 C   0  0  0  0  0  0  0  0  0  0  0  0
   -0.4997   -2.9426    1.0194 O   0  0  0  0  0  0  0  0  0  0  0  0
   -1.1198   -0.9926    0.0674 N   0  0  0  0  0  0  0  0  0  0  0  0
   -1.8978   -0.4486   -0.2716 H   0  0  0  0  0  0  0  0  0  0  0  0
    0.1693   -0.2866    0.0854 C   0  0  1  0  0  0  0  0  0  0  0  0
    0.8425   -0.7905    0.7811 H   0  0  0  0  0  0  0  0  0  0  0  0
    0.7993   -0.3404   -1.3233 C   0  0  0  0  0  0  0  0  0  0  0  0
    1.8860   -0.3334   -1.2215 H   0  0  0  0  0  0  0  0  0  0  0  0
    0.5156   -1.2811   -1.8000 H   0  0  0  0  0  0  0  0  0  0  0  0
    0.4111    0.8299   -2.2405 C   0  0  0  0  0  0  0  0  0  0  0  0
    1.1258    1.8598   -2.2326 O   0  5  0  0  0  0  0  0  0  0  0  0
   -0.6189    0.6893   -2.9343 O   0  0  0  0  0  0  0  0  0  0  0  0
   -0.0374    1.1645    0.5781 C   0  0  0  0  0  0  0  0  0  0  0  0
   -0.9816    1.8416    0.1544 O   0  0  0  0  0  0  0  0  0  0  0  0
    0.8235    1.6462    1.4801 N   0  0  0  0  0  0  0  0  0  0  0  0
    1.6183    1.0435    1.7020 H   0  0  0  0  0  0  0  0  0  0  0  0
    0.7895    2.9929    2.0404 C   0  0  0  0  0  0  0  0  0  0  0  0
   -0.2344    3.2522    2.3130 H   0  0  0  0  0  0  0  0  0  0  0  0
    1.4265    3.0377    2.9233 H   0  0  0  0  0  0  0  0  0  0  0  0
    1.1511    3.7014    1.2950 H   0  0  0  0  0  0  0  0  0  0  0  0
  5  6  2  0  0  0  0
  5  7  1  0  0  0  0
  2  3  1  0  0  0  0
  2  4  1  0  0  0  0
  2  5  1  0  0  0  0
  1  2  1  0  0  0  0
 17 18  2  0  0  0  0
 17 19  1  0  0  0  0
 14 15  1  0  0  0  0
 14 16  2  0  0  0  0
 11 12  1  0  0  0  0
 11 13  1  0  0  0  0
 11 14  1  0  0  0  0
  9 10  1  0  0  0  0
  9 11  1  0  0  0  0
  9 17  1  0  0  0  0
  7  8  1  0  0  0  0
  7  9  1  0  0  0  0
 21 22  1  0  0  0  0
 21 23  1  0  0  0  0
 21 24  1  0  0  0  0
 19 20  1  0  0  0  0
 19 21  1  0  0  0  0
M  CHG  1  15  -1
M  END
$$$$
default_name
  -OEChem-02102213163D

 24 23  0     1  0  0  0  0  0999 V2000
   -2.8347   -3.7166    0.8034 H   0  0  0  0  0  0  0  0  0  0  0  0
   -2.7728   -2.7096    0.3954 C   0  0  0  0  0  0  0  0  0  0  0  0
   -3.4267   -2.0426    0.9524 H   0  0  0  0  0  0  0  0  0  0  0  0
   -3.0538   -2.7186   -0.6556 H   0  0  0  0  0  0  0  0  0  0  0  0
   -1.3498   -2.2206    0.5184 C   0  0  0  0  0  0  0  0  0  0  0  0
   -0.4997   -2.9426    1.0194 O   0  0  0  0  0  0  0  0  0  0  0  0
   -1.1198   -0.9926    0.0674 N   0  0  0  0  0  0  0  0  0  0  0  0
   -1.8978   -0.4486   -0.2716 H   0  0  0  0  0  0  0  0  0  0  0  0
    0.1693   -0.2866    0.0854 C   0  0  1  0  0  0  0  0  0  0  0  0
    0.8425   -0.7905    0.7811 H   0  0  0  0  0  0  0  0  0  0  0  0
    0.7993   -0.3404   -1.3233 C   0  0  0  0  0  0  0  0  0  0  0  0
    1.8860   -0.3334   -1.2215 H   0  0  0  0  0  0  0  0  0  0  0  0
    0.5156   -1.2811   -1.8000 H   0  0  0  0  0  0  0  0  0  0  0  0
    0.4111    0.8299   -2.2405 C   0  0  0  0  0  0  0  0  0  0  0  0
    1.2570    1.7304   -2.4533 O   0  5  0  0  0  0  0  0  0  0  0  0
   -0.7472    0.8226   -2.7100 O   0  0  0  0  0  0  0  0  0  0  0  0
   -0.0374    1.1645    0.5781 C   0  0  0  0  0  0  0  0  0  0  0  0
   -0.9816    1.8416    0.1544 O   0  0  0  0  0  0  0  0  0  0  0  0
    0.8235    1.6462    1.4801 N   0  0  0  0  0  0  0  0  0  0  0  0
    1.6183    1.0435    1.7020 H   0  0  0  0  0  0  0  0  0  0  0  0
    0.7895    2.9929    2.0404 C   0  0  0  0  0  0  0  0  0  0  0  0
   -0.2344    3.2522    2.3130 H   0  0  0  0  0  0  0  0  0  0  0  0
    1.4265    3.0377    2.9233 H   0  0  0  0  0  0  0  0  0  0  0  0
    1.1511    3.7014    1.2950 H   0  0  0  0  0  0  0  0  0  0  0  0
  5  6  2  0  0  0  0
  5  7  1  0  0  0  0
  2  3  1  0  0  0  0
  2  4  1  0  0  0  0
  2  5  1  0  0  0  0
  1  2  1  0  0  0  0
 17 18  2  0  0  0  0
 17 19  1  0  0  0  0
 14 15  1  0  0  0  0
 14 16  2  0  0  0  0
 11 12  1  0  0  0  0
 11 13  1  0  0  0  0
 11 14  1  0  0  0  0
  9 10  1  0  0  0  0
  9 11  1  0  0  0  0
  9 17  1  0  0  0  0
  7  8  1  0  0  0  0
  7  9  1  0  0  0  0
 21 22  1  0  0  0  0
 21 23  1  0  0  0  0
 21 24  1  0  0  0  0
 19 20  1  0  0  0  0
 19 21  1  0  0  0  0
M  CHG  1  15  -1
M  END
$$$$
default_name
  -OEChem-02102213163D

 24 23  0     1  0  0  0  0  0999 V2000
   -2.8347   -3.7166    0.8034 H   0  0  0  0  0  0  0  0  0  0  0  0
   -2.7728   -2.7096    0.3954 C   0  0  0  0  0  0  0  0  0  0  0  0
   -3.4267   -2.0426    0.9524 H   0  0  0  0  0  0  0  0  0  0  0  0
   -3.0538   -2.7186   -0.6556 H   0  0  0  0  0  0  0  0  0  0  0  0
   -1.3498   -2.2206    0.5184 C   0  0  0  0  0  0  0  0  0  0  0  0
   -0.4997   -2.9426    1.0194 O   0  0  0  0  0  0  0  0  0  0  0  0
   -1.1198   -0.9926    0.0674 N   0  0  0  0  0  0  0  0  0  0  0  0
   -1.8978   -0.4486   -0.2716 H   0  0  0  0  0  0  0  0  0  0  0  0
    0.1693   -0.2866    0.0854 C   0  0  1  0  0  0  0  0  0  0  0  0
    0.8425   -0.7905    0.7811 H   0  0  0  0  0  0  0  0  0  0  0  0
    0.7993   -0.3404   -1.3233 C   0  0  0  0  0  0  0  0  0  0  0  0
    1.8860   -0.3334   -1.2215 H   0  0  0  0  0  0  0  0  0  0  0  0
    0.5156   -1.2811   -1.8000 H   0  0  0  0  0  0  0  0  0  0  0  0
    0.4111    0.8299   -2.2405 C   0  0  0  0  0  0  0  0  0  0  0  0
    1.3202    1.5706   -2.6838 O   0  5  0  0  0  0  0  0  0  0  0  0
   -0.8063    0.9858   -2.4768 O   0  0  0  0  0  0  0  0  0  0  0  0
   -0.0374    1.1645    0.5781 C   0  0  0  0  0  0  0  0  0  0  0  0
   -0.9816    1.8416    0.1544 O   0  0  0  0  0  0  0  0  0  0  0  0
    0.8235    1.6462    1.4801 N   0  0  0  0  0  0  0  0  0  0  0  0
    1.6183    1.0435    1.7020 H   0  0  0  0  0  0  0  0  0  0  0  0
    0.7895    2.9929    2.0404 C   0  0  0  0  0  0  0  0  0  0  0  0
   -0.2344    3.2522    2.3130 H   0  0  0  0  0  0  0  0  0  0  0  0
    1.4265    3.0377    2.9233 H   0  0  0  0  0  0  0  0  0  0  0  0
    1.1511    3.7014    1.2950 H   0  0  0  0  0  0  0  0  0  0  0  0
  5  6  2  0  0  0  0
  5  7  1  0  0  0  0
  2  3  1  0  0  0  0
  2  4  1  0  0  0  0
  2  5  1  0  0  0  0
  1  2  1  0  0  0  0
 17 18  2  0  0  0  0
 17 19  1  0  0  0  0
 14 15  1  0  0  0  0
 14 16  2  0  0  0  0
 11 12  1  0  0  0  0
 11 13  1  0  0  0  0
 11 14  1  0  0  0  0
  9 10  1  0  0  0  0
  9 11  1  0  0  0  0
  9 17  1  0  0  0  0
  7  8  1  0  0  0  0
  7  9  1  0  0  0  0
 21 22  1  0  0  0  0
 21 23  1  0  0  0  0
 21 24  1  0  0  0  0
 19 20  1  0  0  0  0
 19 21  1  0  0  0  0
M  CHG  1  15  -1
M  END
$$$$
default_name
  -OEChem-02102213163D

 24 23  0     1  0  0  0  0  0999 V2000
   -2.8347   -3.7166    0.8034 H   0  0  0  0  0  0  0  0  0  0  0  0
   -2.7728   -2.7096    0.3954 C   0  0  0  0  0  0  0  0  0  0  0  0
   -3.4267   -2.0426    0.9524 H   0  0  0  0  0  0  0  0  0  0  0  0
   -3.0538   -2.7186   -0.6556 H   0  0  0  0  0  0  0  0  0  0  0  0
   -1.3498   -2.2206    0.5184 C   0  0  0  0  0  0  0  0  0  0  0  0
   -0.4997   -2.9426    1.0194 O   0  0  0  0  0  0  0  0  0  0  0  0
   -1.1198   -0.9926    0.0674 N   0  0  0  0  0  0  0  0  0  0  0  0
   -1.8978   -0.4486   -0.2716 H   0  0  0  0  0  0  0  0  0  0  0  0
    0.1693   -0.2866    0.0854 C   0  0  1  0  0  0  0  0  0  0  0  0
    0.8425   -0.7905    0.7811 H   0  0  0  0  0  0  0  0  0  0  0  0
    0.7993   -0.3404   -1.3233 C   0  0  0  0  0  0  0  0  0  0  0  0
    1.8860   -0.3334   -1.2215 H   0  0  0  0  0  0  0  0  0  0  0  0
    0.5156   -1.2811   -1.8000 H   0  0  0  0  0  0  0  0  0  0  0  0
    0.4111    0.8299   -2.2405 C   0  0  0  0  0  0  0  0  0  0  0  0
    1.3111    1.3915   -2.9085 O   0  5  0  0  0  0  0  0  0  0  0  0
   -0.7922    1.1678   -2.2505 O   0  0  0  0  0  0  0  0  0  0  0  0
   -0.0374    1.1645    0.5781 C   0  0  0  0  0  0  0  0  0  0  0  0
   -0.9816    1.8416    0.1544 O   0  0  0  0  0  0  0  0  0  0  0  0
    0.8235    1.6462    1.4801 N   0  0  0  0  0  0  0  0  0  0  0  0
    1.6183    1.0435    1.7020 H   0  0  0  0  0  0  0  0  0  0  0  0
    0.7895    2.9929    2.0404 C   0  0  0  0  0  0  0  0  0  0  0  0
   -0.2344    3.2522    2.3130 H   0  0  0  0  0  0  0  0  0  0  0  0
    1.4265    3.0377    2.9233 H   0  0  0  0  0  0  0  0  0  0  0  0
    1.1511    3.7014    1.2950 H   0  0  0  0  0  0  0  0  0  0  0  0
  5  6  2  0  0  0  0
  5  7  1  0  0  0  0
  2  3  1  0  0  0  0
  2  4  1  0  0  0  0
  2  5  1  0  0  0  0
  1  2  1  0  0  0  0
 17 18  2  0  0  0  0
 17 19  1  0  0  0  0
 14 15  1  0  0  0  0
 14 16  2  0  0  0  0
 11 12  1  0  0  0  0
 11 13  1  0  0  0  0
 11 14  1  0  0  0  0
  9 10  1  0  0  0  0
  9 11  1  0  0  0  0
  9 17  1  0  0  0  0
  7  8  1  0  0  0  0
  7  9  1  0  0  0  0
 21 22  1  0  0  0  0
 21 23  1  0  0  0  0
 21 24  1  0  0  0  0
 19 20  1  0  0  0  0
 19 21  1  0  0  0  0
M  CHG  1  15  -1
M  END
$$$$
default_name
  -OEChem-02102213163D

 24 23  0     1  0  0  0  0  0999 V2000
   -2.8347   -3.7166    0.8034 H   0  0  0  0  0  0  0  0  0  0  0  0
   -2.7728   -2.7096    0.3954 C   0  0  0  0  0  0  0  0  0  0  0  0
   -3.4267   -2.0426    0.9524 H   0  0  0  0  0  0  0  0  0  0  0  0
   -3.0538   -2.7186   -0.6556 H   0  0  0  0  0  0  0  0  0  0  0  0
   -1.3498   -2.2206    0.5184 C   0  0  0  0  0  0  0  0  0  0  0  0
   -0.4997   -2.9426    1.0194 O   0  0  0  0  0  0  0  0  0  0  0  0
   -1.1198   -0.9926    0.0674 N   0  0  0  0  0  0  0  0  0  0  0  0
   -1.8978   -0.4486   -0.2716 H   0  0  0  0  0  0  0  0  0  0  0  0
    0.1693   -0.2866    0.0854 C   0  0  1  0  0  0  0  0  0  0  0  0
    0.8425   -0.7905    0.7811 H   0  0  0  0  0  0  0  0  0  0  0  0
    0.7993   -0.3404   -1.3233 C   0  0  0  0  0  0  0  0  0  0  0  0
    1.8860   -0.3334   -1.2215 H   0  0  0  0  0  0  0  0  0  0  0  0
    0.5156   -1.2811   -1.8000 H   0  0  0  0  0  0  0  0  0  0  0  0
    0.4111    0.8299   -2.2405 C   0  0  0  0  0  0  0  0  0  0  0  0
    1.2304    1.2052   -3.1120 O   0  5  0  0  0  0  0  0  0  0  0  0
   -0.7058    1.3562   -2.0467 O   0  0  0  0  0  0  0  0  0  0  0  0
   -0.0374    1.1645    0.5781 C   0  0  0  0  0  0  0  0  0  0  0  0
   -0.9816    1.8416    0.1544 O   0  0  0  0  0  0  0  0  0  0  0  0
    0.8235    1.6462    1.4801 N   0  0  0  0  0  0  0  0  0  0  0  0
    1.6183    1.0435    1.7020 H   0  0  0  0  0  0  0  0  0  0  0  0
    0.7895    2.9929    2.0404 C   0  0  0  0  0  0  0  0  0  0  0  0
   -0.2344    3.2522    2.3130 H   0  0  0  0  0  0  0  0  0  0  0  0
    1.4265    3.0377    2.9233 H   0  0  0  0  0  0  0  0  0  0  0  0
    1.1511    3.7014    1.2950 H   0  0  0  0  0  0  0  0  0  0  0  0
  5  6  2  0  0  0  0
  5  7  1  0  0  0  0
  2  3  1  0  0  0  0
  2  4  1  0  0  0  0
  2  5  1  0  0  0  0
  1  2  1  0  0  0  0
 17 18  2  0  0  0  0
 17 19  1  0  0  0  0
 14 15  1  0  0  0  0
 14 16  2  0  0  0  0
 11 12  1  0  0  0  0
 11 13  1  0  0  0  0
 11 14  1  0  0  0  0
  9 10  1  0  0  0  0
  9 11  1  0  0  0  0
  9 17  1  0  0  0  0
  7  8  1  0  0  0  0
  7  9  1  0  0  0  0
 21 22  1  0  0  0  0
 21 23  1  0  0  0  0
 21 24  1  0  0  0  0
 19 20  1  0  0  0  0
 19 21  1  0  0  0  0
M  CHG  1  15  -1
M  END
$$$$
default_name
  -OEChem-02102213163D

 24 23  0     1  0  0  0  0  0999 V2000
   -2.8347   -3.7166    0.8034 H   0  0  0  0  0  0  0  0  0  0  0  0
   -2.7728   -2.7096    0.3954 C   0  0  0  0  0  0  0  0  0  0  0  0
   -3.4267   -2.0426    0.9524 H   0  0  0  0  0  0  0  0  0  0  0  0
   -3.0538   -2.7186   -0.6556 H   0  0  0  0  0  0  0  0  0  0  0  0
   -1.3498   -2.2206    0.5184 C   0  0  0  0  0  0  0  0  0  0  0  0
   -0.4997   -2.9426    1.0194 O   0  0  0  0  0  0  0  0  0  0  0  0
   -1.1198   -0.9926    0.0674 N   0  0  0  0  0  0  0  0  0  0  0  0
   -1.8978   -0.4486   -0.2716 H   0  0  0  0  0  0  0  0  0  0  0  0
    0.1693   -0.2866    0.0854 C   0  0  1  0  0  0  0  0  0  0  0  0
    0.8425   -0.7905    0.7811 H   0  0  0  0  0  0  0  0  0  0  0  0
    0.7993   -0.3404   -1.3233 C   0  0  0  0  0  0  0  0  0  0  0  0
    1.8860   -0.3334   -1.2215 H   0  0  0  0  0  0  0  0  0  0  0  0
    0.5156   -1.2811   -1.8000 H   0  0  0  0  0  0  0  0  0  0  0  0
    0.4111    0.8299   -2.2405 C   0  0  0  0  0  0  0  0  0  0  0  0
    1.0835    1.0244   -3.2805 O   0  5  0  0  0  0  0  0  0  0  0  0
   -0.5531    1.5382   -1.8791 O   0  0  0  0  0  0  0  0  0  0  0  0
   -0.0374    1.1645    0.5781 C   0  0  0  0  0  0  0  0  0  0  0  0
   -0.9816    1.8416    0.1544 O   0  0  0  0  0  0  0  0  0  0  0  0
    0.8235    1.6462    1.4801 N   0  0  0  0  0  0  0  0  0  0  0  0
    1.6183    1.0435    1.7020 H   0  0  0  0  0  0  0  0  0  0  0  0
    0.7895    2.9929    2.0404 C   0  0  0  0  0  0  0  0  0  0  0  0
   -0.2344    3.2522    2.3130 H   0  0  0  0  0  0  0  0  0  0  0  0
    1.4265    3.0377    2.9233 H   0  0  0  0  0  0  0  0  0  0  0  0
    1.1511    3.7014    1.2950 H   0  0  0  0  0  0  0  0  0  0  0  0
  5  6  2  0  0  0  0
  5  7  1  0  0  0  0
  2  3  1  0  0  0  0
  2  4  1  0  0  0  0
  2  5  1  0  0  0  0
  1  2  1  0  0  0  0
 17 18  2  0  0  0  0
 17 19  1  0  0  0  0
 14 15  1  0  0  0  0
 14 16  2  0  0  0  0
 11 12  1  0  0  0  0
 11 13  1  0  0  0  0
 11 14  1  0  0  0  0
  9 10  1  0  0  0  0
  9 11  1  0  0  0  0
  9 17  1  0  0  0  0
  7  8  1  0  0  0  0
  7  9  1  0  0  0  0
 21 22  1  0  0  0  0
 21 23  1  0  0  0  0
 21 24  1  0  0  0  0
 19 20  1  0  0  0  0
 19 21  1  0  0  0  0
M  CHG  1  15  -1
M  END
$$$$
default_name
  -OEChem-02102213163D

 24 23  0     1  0  0  0  0  0999 V2000
   -2.8347   -3.7166    0.8034 H   0  0  0  0  0  0  0  0  0  0  0  0
   -2.7728   -2.7096    0.3954 C   0  0  0  0  0  0  0  0  0  0  0  0
   -3.4267   -2.0426    0.9524 H   0  0  0  0  0  0  0  0  0  0  0  0
   -3.0538   -2.7186   -0.6556 H   0  0  0  0  0  0  0  0  0  0  0  0
   -1.3498   -2.2206    0.5184 C   0  0  0  0  0  0  0  0  0  0  0  0
   -0.4997   -2.9426    1.0194 O   0  0  0  0  0  0  0  0  0  0  0  0
   -1.1198   -0.9926    0.0674 N   0  0  0  0  0  0  0  0  0  0  0  0
   -1.8978   -0.4486   -0.2716 H   0  0  0  0  0  0  0  0  0  0  0  0
    0.1693   -0.2866    0.0854 C   0  0  1  0  0  0  0  0  0  0  0  0
    0.8425   -0.7905    0.7811 H   0  0  0  0  0  0  0  0  0  0  0  0
    0.7993   -0.3404   -1.3233 C   0  0  0  0  0  0  0  0  0  0  0  0
    1.8545   -0.6014   -1.2253 H   0  0  0  0  0  0  0  0  0  0  0  0
    0.3123   -1.1321   -1.8966 H   0  0  0  0  0  0  0  0  0  0  0  0
    0.7178    0.9778   -2.1090 C   0  0  0  0  0  0  0  0  0  0  0  0
    1.2065    1.0187   -3.2627 O   0  5  0  0  0  0  0  0  0  0  0  0
    0.1786    1.9481   -1.5347 O   0  0  0  0  0  0  0  0  0  0  0  0
   -0.0374    1.1645    0.5781 C   0  0  0  0  0  0  0  0  0  0  0  0
   -0.9816    1.8416    0.1544 O   0  0  0  0  0  0  0  0  0  0  0  0
    0.8235    1.6462    1.4801 N   0  0  0  0  0  0  0  0  0  0  0  0
    1.6183    1.0435    1.7020 H   0  0  0  0  0  0  0  0  0  0  0  0
    0.7895    2.9929    2.0404 C   0  0  0  0  0  0  0  0  0  0  0  0
   -0.2344    3.2522    2.3130 H   0  0  0  0  0  0  0  0  0  0  0  0
    1.4265    3.0377    2.9233 H   0  0  0  0  0  0  0  0  0  0  0  0
    1.1511    3.7014    1.2950 H   0  0  0  0  0  0  0  0  0  0  0  0
  5  6  2  0  0  0  0
  5  7  1  0  0  0  0
  2  3  1  0  0  0  0
  2  4  1  0  0  0  0
  2  5  1  0  0  0  0
  1  2  1  0  0  0  0
 17 18  2  0  0  0  0
 17 19  1  0  0  0  0
 14 15  1  0  0  0  0
 14 16  2  0  0  0  0
 11 12  1  0  0  0  0
 11 13  1  0  0  0  0
 11 14  1  0  0  0  0
  9 10  1  0  0  0  0
  9 11  1  0  0  0  0
  9 17  1  0  0  0  0
  7  8  1  0  0  0  0
  7  9  1  0  0  0  0
 21 22  1  0  0  0  0
 21 23  1  0  0  0  0
 21 24  1  0  0  0  0
 19 20  1  0  0  0  0
 19 21  1  0  0  0  0
M  CHG  1  15  -1
M  END
$$$$
default_name
  -OEChem-02102213163D

 24 23  0     1  0  0  0  0  0999 V2000
   -2.8347   -3.7166    0.8034 H   0  0  0  0  0  0  0  0  0  0  0  0
   -2.7728   -2.7096    0.3954 C   0  0  0  0  0  0  0  0  0  0  0  0
   -3.4267   -2.0426    0.9524 H   0  0  0  0  0  0  0  0  0  0  0  0
   -3.0538   -2.7186   -0.6556 H   0  0  0  0  0  0  0  0  0  0  0  0
   -1.3498   -2.2206    0.5184 C   0  0  0  0  0  0  0  0  0  0  0  0
   -0.4997   -2.9426    1.0194 O   0  0  0  0  0  0  0  0  0  0  0  0
   -1.1198   -0.9926    0.0674 N   0  0  0  0  0  0  0  0  0  0  0  0
   -1.8978   -0.4486   -0.2716 H   0  0  0  0  0  0  0  0  0  0  0  0
    0.1693   -0.2866    0.0854 C   0  0  1  0  0  0  0  0  0  0  0  0
    0.8425   -0.7905    0.7811 H   0  0  0  0  0  0  0  0  0  0  0  0
    0.7993   -0.3404   -1.3233 C   0  0  0  0  0  0  0  0  0  0  0  0
    1.8545   -0.6014   -1.2253 H   0  0  0  0  0  0  0  0  0  0  0  0
    0.3123   -1.1321   -1.8966 H   0  0  0  0  0  0  0  0  0  0  0  0
    0.7178    0.9778   -2.1090 C   0  0  0  0  0  0  0  0  0  0  0  0
    0.9381    0.9543   -3.3429 O   0  5  0  0  0  0  0  0  0  0  0  0
    0.4518    2.0109   -1.4578 O   0  0  0  0  0  0  0  0  0  0  0  0
   -0.0374    1.1645    0.5781 C   0  0  0  0  0  0  0  0  0  0  0  0
   -0.9816    1.8416    0.1544 O   0  0  0  0  0  0  0  0  0  0  0  0
    0.8235    1.6462    1.4801 N   0  0  0  0  0  0  0  0  0  0  0  0
    1.6183    1.0435    1.7020 H   0  0  0  0  0  0  0  0  0  0  0  0
    0.7895    2.9929    2.0404 C   0  0  0  0  0  0  0  0  0  0  0  0
   -0.2344    3.2522    2.3130 H   0  0  0  0  0  0  0  0  0  0  0  0
    1.4265    3.0377    2.9233 H   0  0  0  0  0  0  0  0  0  0  0  0
    1.1511    3.7014    1.2950 H   0  0  0  0  0  0  0  0  0  0  0  0
  5  6  2  0  0  0  0
  5  7  1  0  0  0  0
  2  3  1  0  0  0  0
  2  4  1  0  0  0  0
  2  5  1  0  0  0  0
  1  2  1  0  0  0  0
 17 18  2  0  0  0  0
 17 19  1  0  0  0  0
 14 15  1  0  0  0  0
 14 16  2  0  0  0  0
 11 12  1  0  0  0  0
 11 13  1  0  0  0  0
 11 14  1  0  0  0  0
  9 10  1  0  0  0  0
  9 11  1  0  0  0  0
  9 17  1  0  0  0  0
  7  8  1  0  0  0  0
  7  9  1  0  0  0  0
 21 22  1  0  0  0  0
 21 23  1  0  0  0  0
 21 24  1  0  0  0  0
 19 20  1  0  0  0  0
 19 21  1  0  0  0  0
M  CHG  1  15  -1
M  END
$$$$
default_name
  -OEChem-02102213163D

 24 23  0     1  0  0  0  0  0999 V2000
   -2.8347   -3.7166    0.8034 H   0  0  0  0  0  0  0  0  0  0  0  0
   -2.7728   -2.7096    0.3954 C   0  0  0  0  0  0  0  0  0  0  0  0
   -3.4267   -2.0426    0.9524 H   0  0  0  0  0  0  0  0  0  0  0  0
   -3.0538   -2.7186   -0.6556 H   0  0  0  0  0  0  0  0  0  0  0  0
   -1.3498   -2.2206    0.5184 C   0  0  0  0  0  0  0  0  0  0  0  0
   -0.4997   -2.9426    1.0194 O   0  0  0  0  0  0  0  0  0  0  0  0
   -1.1198   -0.9926    0.0674 N   0  0  0  0  0  0  0  0  0  0  0  0
   -1.8978   -0.4486   -0.2716 H   0  0  0  0  0  0  0  0  0  0  0  0
    0.1693   -0.2866    0.0854 C   0  0  1  0  0  0  0  0  0  0  0  0
    0.8425   -0.7905    0.7811 H   0  0  0  0  0  0  0  0  0  0  0  0
    0.7993   -0.3404   -1.3233 C   0  0  0  0  0  0  0  0  0  0  0  0
    1.8545   -0.6014   -1.2253 H   0  0  0  0  0  0  0  0  0  0  0  0
    0.3123   -1.1321   -1.8966 H   0  0  0  0  0  0  0  0  0  0  0  0
    0.7178    0.9778   -2.1090 C   0  0  0  0  0  0  0  0  0  0  0  0
    0.6524    0.9265   -3.3599 O   0  5  0  0  0  0  0  0  0  0  0  0
    0.7412    2.0364   -1.4450 O   0  0  0  0  0  0  0  0  0  0  0  0
   -0.0374    1.1645    0.5781 C   0  0  0  0  0  0  0  0  0  0  0  0
   -0.9816    1.8416    0.1544 O   0  0  0  0  0  0  0  0  0  0  0  0
    0.8235    1.6462    1.4801 N   0  0  0  0  0  0  0  0  0  0  0  0
    1.6183    1.0435    1.7020 H   0  0  0  0  0  0  0  0  0  0  0  0
    0.7895    2.9929    2.0404 C   0  0  0  0  0  0  0  0  0  0  0  0
   -0.2344    3.2522    2.3130 H   0  0  0  0  0  0  0  0  0  0  0  0
    1.4265    3.0377    2.9233 H   0  0  0  0  0  0  0  0  0  0  0  0
    1.1511    3.7014    1.2950 H   0  0  0  0  0  0  0  0  0  0  0  0
  5  6  2  0  0  0  0
  5  7  1  0  0  0  0
  2  3  1  0  0  0  0
  2  4  1  0  0  0  0
  2  5  1  0  0  0  0
  1  2  1  0  0  0  0
 17 18  2  0  0  0  0
 17 19  1  0  0  0  0
 14 15  1  0  0  0  0
 14 16  2  0  0  0  0
 11 12  1  0  0  0  0
 11 13  1  0  0  0  0
 11 14  1  0  0  0  0
  9 10  1  0  0  0  0
  9 11  1  0  0  0  0
  9 17  1  0  0  0  0
  7  8  1  0  0  0  0
  7  9  1  0  0  0  0
 21 22  1  0  0  0  0
 21 23  1  0  0  0  0
 21 24  1  0  0  0  0
 19 20  1  0  0  0  0
 19 21  1  0  0  0  0
M  CHG  1  15  -1
M  END
$$$$
default_name
  -OEChem-02102213163D

 24 23  0     1  0  0  0  0  0999 V2000
   -2.8347   -3.7166    0.8034 H   0  0  0  0  0  0  0  0  0  0  0  0
   -2.7728   -2.7096    0.3954 C   0  0  0  0  0  0  0  0  0  0  0  0
   -3.4267   -2.0426    0.9524 H   0  0  0  0  0  0  0  0  0  0  0  0
   -3.0538   -2.7186   -0.6556 H   0  0  0  0  0  0  0  0  0  0  0  0
   -1.3498   -2.2206    0.5184 C   0  0  0  0  0  0  0  0  0  0  0  0
   -0.4997   -2.9426    1.0194 O   0  0  0  0  0  0  0  0  0  0  0  0
   -1.1198   -0.9926    0.0674 N   0  0  0  0  0  0  0  0  0  0  0  0
   -1.8978   -0.4486   -0.2716 H   0  0  0  0  0  0  0  0  0  0  0  0
    0.1693   -0.2866    0.0854 C   0  0  1  0  0  0  0  0  0  0  0  0
    0.8425   -0.7905    0.7811 H   0  0  0  0  0  0  0  0  0  0  0  0
    0.7993   -0.3404   -1.3233 C   0  0  0  0  0  0  0  0  0  0  0  0
    1.8545   -0.6014   -1.2253 H   0  0  0  0  0  0  0  0  0  0  0  0
    0.3123   -1.1321   -1.8966 H   0  0  0  0  0  0  0  0  0  0  0  0
    0.7178    0.9778   -2.1090 C   0  0  0  0  0  0  0  0  0  0  0  0
    0.3691    0.9372   -3.3125 O   0  5  0  0  0  0  0  0  0  0  0  0
    1.0269    2.0229   -1.4972 O   0  0  0  0  0  0  0  0  0  0  0  0
   -0.0374    1.1645    0.5781 C   0  0  0  0  0  0  0  0  0  0  0  0
   -0.9816    1.8416    0.1544 O   0  0  0  0  0  0  0  0  0  0  0  0
    0.8235    1.6462    1.4801 N   0  0  0  0  0  0  0  0  0  0  0  0
    1.6183    1.0435    1.7020 H   0  0  0  0  0  0  0  0  0  0  0  0
    0.7895    2.9929    2.0404 C   0  0  0  0  0  0  0  0  0  0  0  0
   -0.2344    3.2522    2.3130 H   0  0  0  0  0  0  0  0  0  0  0  0
    1.4265    3.0377    2.9233 H   0  0  0  0  0  0  0  0  0  0  0  0
    1.1511    3.7014    1.2950 H   0  0  0  0  0  0  0  0  0  0  0  0
  5  6  2  0  0  0  0
  5  7  1  0  0  0  0
  2  3  1  0  0  0  0
  2  4  1  0  0  0  0
  2  5  1  0  0  0  0
  1  2  1  0  0  0  0
 17 18  2  0  0  0  0
 17 19  1  0  0  0  0
 14 15  1  0  0  0  0
 14 16  2  0  0  0  0
 11 12  1  0  0  0  0
 11 13  1  0  0  0  0
 11 14  1  0  0  0  0
  9 10  1  0  0  0  0
  9 11  1  0  0  0  0
  9 17  1  0  0  0  0
  7  8  1  0  0  0  0
  7  9  1  0  0  0  0
 21 22  1  0  0  0  0
 21 23  1  0  0  0  0
 21 24  1  0  0  0  0
 19 20  1  0  0  0  0
 19 21  1  0  0  0  0
M  CHG  1  15  -1
M  END
$$$$
default_name
  -OEChem-02102213163D

 24 23  0     1  0  0  0  0  0999 V2000
   -2.8347   -3.7166    0.8034 H   0  0  0  0  0  0  0  0  0  0  0  0
   -2.7728   -2.7096    0.3954 C   0  0  0  0  0  0  0  0  0  0  0  0
   -3.4267   -2.0426    0.9524 H   0  0  0  0  0  0  0  0  0  0  0  0
   -3.0538   -2.7186   -0.6556 H   0  0  0  0  0  0  0  0  0  0  0  0
   -1.3498   -2.2206    0.5184 C   0  0  0  0  0  0  0  0  0  0  0  0
   -0.4997   -2.9426    1.0194 O   0  0  0  0  0  0  0  0  0  0  0  0
   -1.1198   -0.9926    0.0674 N   0  0  0  0  0  0  0  0  0  0  0  0
   -1.8978   -0.4486   -0.2716 H   0  0  0  0  0  0  0  0  0  0  0  0
    0.1693   -0.2866    0.0854 C   0  0  1  0  0  0  0  0  0  0  0  0
    0.8425   -0.7905    0.7811 H   0  0  0  0  0  0  0  0  0  0  0  0
    0.7993   -0.3404   -1.3233 C   0  0  0  0  0  0  0  0  0  0  0  0
    1.8545   -0.6014   -1.2253 H   0  0  0  0  0  0  0  0  0  0  0  0
    0.3123   -1.1321   -1.8966 H   0  0  0  0  0  0  0  0  0  0  0  0
    0.7178    0.9778   -2.1090 C   0  0  0  0  0  0  0  0  0  0  0  0
    0.1073    0.9857   -3.2040 O   0  5  0  0  0  0  0  0  0  0  0  0
    1.2894    1.9714   -1.6109 O   0  0  0  0  0  0  0  0  0  0  0  0
   -0.0374    1.1645    0.5781 C   0  0  0  0  0  0  0  0  0  0  0  0
   -0.9816    1.8416    0.1544 O   0  0  0  0  0  0  0  0  0  0  0  0
    0.8235    1.6462    1.4801 N   0  0  0  0  0  0  0  0  0  0  0  0
    1.6183    1.0435    1.7020 H   0  0  0  0  0  0  0  0  0  0  0  0
    0.7895    2.9929    2.0404 C   0  0  0  0  0  0  0  0  0  0  0  0
   -0.2344    3.2522    2.3130 H   0  0  0  0  0  0  0  0  0  0  0  0
    1.4265    3.0377    2.9233 H   0  0  0  0  0  0  0  0  0  0  0  0
    1.1511    3.7014    1.2950 H   0  0  0  0  0  0  0  0  0  0  0  0
  5  6  2  0  0  0  0
  5  7  1  0  0  0  0
  2  3  1  0  0  0  0
  2  4  1  0  0  0  0
  2  5  1  0  0  0  0
  1  2  1  0  0  0  0
 17 18  2  0  0  0  0
 17 19  1  0  0  0  0
 14 15  1  0  0  0  0
 14 16  2  0  0  0  0
 11 12  1  0  0  0  0
 11 13  1  0  0  0  0
 11 14  1  0  0  0  0
  9 10  1  0  0  0  0
  9 11  1  0  0  0  0
  9 17  1  0  0  0  0
  7  8  1  0  0  0  0
  7  9  1  0  0  0  0
 21 22  1  0  0  0  0
 21 23  1  0  0  0  0
 21 24  1  0  0  0  0
 19 20  1  0  0  0  0
 19 21  1  0  0  0  0
M  CHG  1  15  -1
M  END
$$$$
default_name
  -OEChem-02102213163D

 24 23  0     1  0  0  0  0  0999 V2000
   -2.8347   -3.7166    0.8034 H   0  0  0  0  0  0  0  0  0  0  0  0
   -2.7728   -2.7096    0.3954 C   0  0  0  0  0  0  0  0  0  0  0  0
   -3.4267   -2.0426    0.9524 H   0  0  0  0  0  0  0  0  0  0  0  0
   -3.0538   -2.7186   -0.6556 H   0  0  0  0  0  0  0  0  0  0  0  0
   -1.3498   -2.2206    0.5184 C   0  0  0  0  0  0  0  0  0  0  0  0
   -0.4997   -2.9426    1.0194 O   0  0  0  0  0  0  0  0  0  0  0  0
   -1.1198   -0.9926    0.0674 N   0  0  0  0  0  0  0  0  0  0  0  0
   -1.8978   -0.4486   -0.2716 H   0  0  0  0  0  0  0  0  0  0  0  0
    0.1693   -0.2866    0.0854 C   0  0  1  0  0  0  0  0  0  0  0  0
    0.8425   -0.7905    0.7811 H   0  0  0  0  0  0  0  0  0  0  0  0
    0.7993   -0.3404   -1.3233 C   0  0  0  0  0  0  0  0  0  0  0  0
    1.8545   -0.6014   -1.2253 H   0  0  0  0  0  0  0  0  0  0  0  0
    0.3123   -1.1321   -1.8966 H   0  0  0  0  0  0  0  0  0  0  0  0
    0.7178    0.9778   -2.1090 C   0  0  0  0  0  0  0  0  0  0  0  0
   -0.1150    1.0687   -3.0417 O   0  5  0  0  0  0  0  0  0  0  0  0
    1.5110    1.8853   -1.7783 O   0  0  0  0  0  0  0  0  0  0  0  0
   -0.0374    1.1645    0.5781 C   0  0  0  0  0  0  0  0  0  0  0  0
   -0.9816    1.8416    0.1544 O   0  0  0  0  0  0  0  0  0  0  0  0
    0.8235    1.6462    1.4801 N   0  0  0  0  0  0  0  0  0  0  0  0
    1.6183    1.0435    1.7020 H   0  0  0  0  0  0  0  0  0  0  0  0
    0.7895    2.9929    2.0404 C   0  0  0  0  0  0  0  0  0  0  0  0
   -0.2344    3.2522    2.3130 H   0  0  0  0  0  0  0  0  0  0  0  0
    1.4265    3.0377    2.9233 H   0  0  0  0  0  0  0  0  0  0  0  0
    1.1511    3.7014    1.2950 H   0  0  0  0  0  0  0  0  0  0  0  0
  5  6  2  0  0  0  0
  5  7  1  0  0  0  0
  2  3  1  0  0  0  0
  2  4  1  0  0  0  0
  2  5  1  0  0  0  0
  1  2  1  0  0  0  0
 17 18  2  0  0  0  0
 17 19  1  0  0  0  0
 14 15  1  0  0  0  0
 14 16  2  0  0  0  0
 11 12  1  0  0  0  0
 11 13  1  0  0  0  0
 11 14  1  0  0  0  0
  9 10  1  0  0  0  0
  9 11  1  0  0  0  0
  9 17  1  0  0  0  0
  7  8  1  0  0  0  0
  7  9  1  0  0  0  0
 21 22  1  0  0  0  0
 21 23  1  0  0  0  0
 21 24  1  0  0  0  0
 19 20  1  0  0  0  0
 19 21  1  0  0  0  0
M  CHG  1  15  -1
M  END
$$$$
default_name
  -OEChem-02102213163D

 24 23  0     1  0  0  0  0  0999 V2000
   -2.8347   -3.7166    0.8034 H   0  0  0  0  0  0  0  0  0  0  0  0
   -2.7728   -2.7096    0.3954 C   0  0  0  0  0  0  0  0  0  0  0  0
   -3.4267   -2.0426    0.9524 H   0  0  0  0  0  0  0  0  0  0  0  0
   -3.0538   -2.7186   -0.6556 H   0  0  0  0  0  0  0  0  0  0  0  0
   -1.3498   -2.2206    0.5184 C   0  0  0  0  0  0  0  0  0  0  0  0
   -0.4997   -2.9426    1.0194 O   0  0  0  0  0  0  0  0  0  0  0  0
   -1.1198   -0.9926    0.0674 N   0  0  0  0  0  0  0  0  0  0  0  0
   -1.8978   -0.4486   -0.2716 H   0  0  0  0  0  0  0  0  0  0  0  0
    0.1693   -0.2866    0.0854 C   0  0  1  0  0  0  0  0  0  0  0  0
    0.8425   -0.7905    0.7811 H   0  0  0  0  0  0  0  0  0  0  0  0
    0.7993   -0.3404   -1.3233 C   0  0  0  0  0  0  0  0  0  0  0  0
    1.8545   -0.6014   -1.2253 H   0  0  0  0  0  0  0  0  0  0  0  0
    0.3123   -1.1321   -1.8966 H   0  0  0  0  0  0  0  0  0  0  0  0
    0.7178    0.9778   -2.1090 C   0  0  0  0  0  0  0  0  0  0  0  0
   -0.2827    1.1805   -2.8367 O   0  5  0  0  0  0  0  0  0  0  0  0
    1.6764    1.7705   -1.9881 O   0  0  0  0  0  0  0  0  0  0  0  0
   -0.0374    1.1645    0.5781 C   0  0  0  0  0  0  0  0  0  0  0  0
   -0.9816    1.8416    0.1544 O   0  0  0  0  0  0  0  0  0  0  0  0
    0.8235    1.6462    1.4801 N   0  0  0  0  0  0  0  0  0  0  0  0
    1.6183    1.0435    1.7020 H   0  0  0  0  0  0  0  0  0  0  0  0
    0.7895    2.9929    2.0404 C   0  0  0  0  0  0  0  0  0  0  0  0
   -0.2344    3.2522    2.3130 H   0  0  0  0  0  0  0  0  0  0  0  0
    1.4265    3.0377    2.9233 H   0  0  0  0  0  0  0  0  0  0  0  0
    1.1511    3.7014    1.2950 H   0  0  0  0  0  0  0  0  0  0  0  0
  5  6  2  0  0  0  0
  5  7  1  0  0  0  0
  2  3  1  0  0  0  0
  2  4  1  0  0  0  0
  2  5  1  0  0  0  0
  1  2  1  0  0  0  0
 17 18  2  0  0  0  0
 17 19  1  0  0  0  0
 14 15  1  0  0  0  0
 14 16  2  0  0  0  0
 11 12  1  0  0  0  0
 11 13  1  0  0  0  0
 11 14  1  0  0  0  0
  9 10  1  0  0  0  0
  9 11  1  0  0  0  0
  9 17  1  0  0  0  0
  7  8  1  0  0  0  0
  7  9  1  0  0  0  0
 21 22  1  0  0  0  0
 21 23  1  0  0  0  0
 21 24  1  0  0  0  0
 19 20  1  0  0  0  0
 19 21  1  0  0  0  0
M  CHG  1  15  -1
M  END
$$$$
default_name
  -OEChem-02102213163D

 24 23  0     1  0  0  0  0  0999 V2000
   -2.8347   -3.7166    0.8034 H   0  0  0  0  0  0  0  0  0  0  0  0
   -2.7728   -2.7096    0.3954 C   0  0  0  0  0  0  0  0  0  0  0  0
   -3.4267   -2.0426    0.9524 H   0  0  0  0  0  0  0  0  0  0  0  0
   -3.0538   -2.7186   -0.6556 H   0  0  0  0  0  0  0  0  0  0  0  0
   -1.3498   -2.2206    0.5184 C   0  0  0  0  0  0  0  0  0  0  0  0
   -0.4997   -2.9426    1.0194 O   0  0  0  0  0  0  0  0  0  0  0  0
   -1.1198   -0.9926    0.0674 N   0  0  0  0  0  0  0  0  0  0  0  0
   -1.8978   -0.4486   -0.2716 H   0  0  0  0  0  0  0  0  0  0  0  0
    0.1693   -0.2866    0.0854 C   0  0  1  0  0  0  0  0  0  0  0  0
    0.8425   -0.7905    0.7811 H   0  0  0  0  0  0  0  0  0  0  0  0
    0.7993   -0.3404   -1.3233 C   0  0  0  0  0  0  0  0  0  0  0  0
    1.8545   -0.6014   -1.2253 H   0  0  0  0  0  0  0  0  0  0  0  0
    0.3123   -1.1321   -1.8966 H   0  0  0  0  0  0  0  0  0  0  0  0
    0.7178    0.9778   -2.1090 C   0  0  0  0  0  0  0  0  0  0  0  0
   -0.3844    1.3135   -2.6030 O   0  5  0  0  0  0  0  0  0  0  0  0
    1.7745    1.6349   -2.2258 O   0  0  0  0  0  0  0  0  0  0  0  0
   -0.0374    1.1645    0.5781 C   0  0  0  0  0  0  0  0  0  0  0  0
   -0.9816    1.8416    0.1544 O   0  0  0  0  0  0  0  0  0  0  0  0
    0.8235    1.6462    1.4801 N   0  0  0  0  0  0  0  0  0  0  0  0
    1.6183    1.0435    1.7020 H   0  0  0  0  0  0  0  0  0  0  0  0
    0.7895    2.9929    2.0404 C   0  0  0  0  0  0  0  0  0  0  0  0
   -0.2344    3.2522    2.3130 H   0  0  0  0  0  0  0  0  0  0  0  0
    1.4265    3.0377    2.9233 H   0  0  0  0  0  0  0  0  0  0  0  0
    1.1511    3.7014    1.2950 H   0  0  0  0  0  0  0  0  0  0  0  0
  5  6  2  0  0  0  0
  5  7  1  0  0  0  0
  2  3  1  0  0  0  0
  2  4  1  0  0  0  0
  2  5  1  0  0  0  0
  1  2  1  0  0  0  0
 17 18  2  0  0  0  0
 17 19  1  0  0  0  0
 14 15  1  0  0  0  0
 14 16  2  0  0  0  0
 11 12  1  0  0  0  0
 11 13  1  0  0  0  0
 11 14  1  0  0  0  0
  9 10  1  0  0  0  0
  9 11  1  0  0  0  0
  9 17  1  0  0  0  0
  7  8  1  0  0  0  0
  7  9  1  0  0  0  0
 21 22  1  0  0  0  0
 21 23  1  0  0  0  0
 21 24  1  0  0  0  0
 19 20  1  0  0  0  0
 19 21  1  0  0  0  0
M  CHG  1  15  -1
M  END
$$$$
default_name
  -OEChem-02102213163D

 24 23  0     1  0  0  0  0  0999 V2000
   -2.8347   -3.7166    0.8034 H   0  0  0  0  0  0  0  0  0  0  0  0
   -2.7728   -2.7096    0.3954 C   0  0  0  0  0  0  0  0  0  0  0  0
   -3.4267   -2.0426    0.9524 H   0  0  0  0  0  0  0  0  0  0  0  0
   -3.0538   -2.7186   -0.6556 H   0  0  0  0  0  0  0  0  0  0  0  0
   -1.3498   -2.2206    0.5184 C   0  0  0  0  0  0  0  0  0  0  0  0
   -0.4997   -2.9426    1.0194 O   0  0  0  0  0  0  0  0  0  0  0  0
   -1.1198   -0.9926    0.0674 N   0  0  0  0  0  0  0  0  0  0  0  0
   -1.8978   -0.4486   -0.2716 H   0  0  0  0  0  0  0  0  0  0  0  0
    0.1693   -0.2866    0.0854 C   0  0  1  0  0  0  0  0  0  0  0  0
    0.8425   -0.7905    0.7811 H   0  0  0  0  0  0  0  0  0  0  0  0
    0.7993   -0.3404   -1.3233 C   0  0  0  0  0  0  0  0  0  0  0  0
    1.8545   -0.6014   -1.2253 H   0  0  0  0  0  0  0  0  0  0  0  0
    0.3123   -1.1321   -1.8966 H   0  0  0  0  0  0  0  0  0  0  0  0
    0.7178    0.9778   -2.1090 C   0  0  0  0  0  0  0  0  0  0  0  0
   -0.4132    1.4586   -2.3565 O   0  5  0  0  0  0  0  0  0  0  0  0
    1.7985    1.4877   -2.4753 O   0  0  0  0  0  0  0  0  0  0  0  0
   -0.0374    1.1645    0.5781 C   0  0  0  0  0  0  0  0  0  0  0  0
   -0.9816    1.8416    0.1544 O   0  0  0  0  0  0  0  0  0  0  0  0
    0.8235    1.6462    1.4801 N   0  0  0  0  0  0  0  0  0  0  0  0
    1.6183    1.0435    1.7020 H   0  0  0  0  0  0  0  0  0  0  0  0
    0.7895    2.9929    2.0404 C   0  0  0  0  0  0  0  0  0  0  0  0
   -0.2344    3.2522    2.3130 H   0  0  0  0  0  0  0  0  0  0  0  0
    1.4265    3.0377    2.9233 H   0  0  0  0  0  0  0  0  0  0  0  0
    1.1511    3.7014    1.2950 H   0  0  0  0  0  0  0  0  0  0  0  0
  5  6  2  0  0  0  0
  5  7  1  0  0  0  0
  2  3  1  0  0  0  0
  2  4  1  0  0  0  0
  2  5  1  0  0  0  0
  1  2  1  0  0  0  0
 17 18  2  0  0  0  0
 17 19  1  0  0  0  0
 14 15  1  0  0  0  0
 14 16  2  0  0  0  0
 11 12  1  0  0  0  0
 11 13  1  0  0  0  0
 11 14  1  0  0  0  0
  9 10  1  0  0  0  0
  9 11  1  0  0  0  0
  9 17  1  0  0  0  0
  7  8  1  0  0  0  0
  7  9  1  0  0  0  0
 21 22  1  0  0  0  0
 21 23  1  0  0  0  0
 21 24  1  0  0  0  0
 19 20  1  0  0  0  0
 19 21  1  0  0  0  0
M  CHG  1  15  -1
M  END
$$$$
default_name
  -OEChem-02102213163D

 24 23  0     1  0  0  0  0  0999 V2000
   -2.8347   -3.7166    0.8034 H   0  0  0  0  0  0  0  0  0  0  0  0
   -2.7728   -2.7096    0.3954 C   0  0  0  0  0  0  0  0  0  0  0  0
   -3.4267   -2.0426    0.9524 H   0  0  0  0  0  0  0  0  0  0  0  0
   -3.0538   -2.7186   -0.6556 H   0  0  0  0  0  0  0  0  0  0  0  0
   -1.3498   -2.2206    0.5184 C   0  0  0  0  0  0  0  0  0  0  0  0
   -0.4997   -2.9426    1.0194 O   0  0  0  0  0  0  0  0  0  0  0  0
   -1.1198   -0.9926    0.0674 N   0  0  0  0  0  0  0  0  0  0  0  0
   -1.8978   -0.4486   -0.2716 H   0  0  0  0  0  0  0  0  0  0  0  0
    0.1693   -0.2866    0.0854 C   0  0  1  0  0  0  0  0  0  0  0  0
    0.8425   -0.7905    0.7811 H   0  0  0  0  0  0  0  0  0  0  0  0
    0.7993   -0.3404   -1.3233 C   0  0  0  0  0  0  0  0  0  0  0  0
    1.8545   -0.6014   -1.2253 H   0  0  0  0  0  0  0  0  0  0  0  0
    0.3123   -1.1321   -1.8966 H   0  0  0  0  0  0  0  0  0  0  0  0
    0.7178    0.9778   -2.1090 C   0  0  0  0  0  0  0  0  0  0  0  0
   -0.3671    1.6060   -2.1141 O   0  5  0  0  0  0  0  0  0  0  0  0
    1.7468    1.3388   -2.7196 O   0  0  0  0  0  0  0  0  0  0  0  0
   -0.0374    1.1645    0.5781 C   0  0  0  0  0  0  0  0  0  0  0  0
   -0.9816    1.8416    0.1544 O   0  0  0  0  0  0  0  0  0  0  0  0
    0.8235    1.6462    1.4801 N   0  0  0  0  0  0  0  0  0  0  0  0
    1.6183    1.0435    1.7020 H   0  0  0  0  0  0  0  0  0  0  0  0
    0.7895    2.9929    2.0404 C   0  0  0  0  0  0  0  0  0  0  0  0
   -0.2344    3.2522    2.3130 H   0  0  0  0  0  0  0  0  0  0  0  0
    1.4265    3.0377    2.9233 H   0  0  0  0  0  0  0  0  0  0  0  0
    1.1511    3.7014    1.2950 H   0  0  0  0  0  0  0  0  0  0  0  0
  5  6  2  0  0  0  0
  5  7  1  0  0  0  0
  2  3  1  0  0  0  0
  2  4  1  0  0  0  0
  2  5  1  0  0  0  0
  1  2  1  0  0  0  0
 17 18  2  0  0  0  0
 17 19  1  0  0  0  0
 14 15  1  0  0  0  0
 14 16  2  0  0  0  0
 11 12  1  0  0  0  0
 11 13  1  0  0  0  0
 11 14  1  0  0  0  0
  9 10  1  0  0  0  0
  9 11  1  0  0  0  0
  9 17  1  0  0  0  0
  7  8  1  0  0  0  0
  7  9  1  0  0  0  0
 21 22  1  0  0  0  0
 21 23  1  0  0  0  0
 21 24  1  0  0  0  0
 19 20  1  0  0  0  0
 19 21  1  0  0  0  0
M  CHG  1  15  -1
M  END
$$$$
default_name
  -OEChem-02102213163D

 24 23  0     1  0  0  0  0  0999 V2000
   -2.8347   -3.7166    0.8034 H   0  0  0  0  0  0  0  0  0  0  0  0
   -2.7728   -2.7096    0.3954 C   0  0  0  0  0  0  0  0  0  0  0  0
   -3.4267   -2.0426    0.9524 H   0  0  0  0  0  0  0  0  0  0  0  0
   -3.0538   -2.7186   -0.6556 H   0  0  0  0  0  0  0  0  0  0  0  0
   -1.3498   -2.2206    0.5184 C   0  0  0  0  0  0  0  0  0  0  0  0
   -0.4997   -2.9426    1.0194 O   0  0  0  0  0  0  0  0  0  0  0  0
   -1.1198   -0.9926    0.0674 N   0  0  0  0  0  0  0  0  0  0  0  0
   -1.8978   -0.4486   -0.2716 H   0  0  0  0  0  0  0  0  0  0  0  0
    0.1693   -0.2866    0.0854 C   0  0  1  0  0  0  0  0  0  0  0  0
    0.8425   -0.7905    0.7811 H   0  0  0  0  0  0  0  0  0  0  0  0
    0.7993   -0.3404   -1.3233 C   0  0  0  0  0  0  0  0  0  0  0  0
    1.8545   -0.6014   -1.2253 H   0  0  0  0  0  0  0  0  0  0  0  0
    0.3123   -1.1321   -1.8966 H   0  0  0  0  0  0  0  0  0  0  0  0
    0.7178    0.9778   -2.1090 C   0  0  0  0  0  0  0  0  0  0  0  0
   -0.2492    1.7456   -1.8921 O   0  5  0  0  0  0  0  0  0  0  0  0
    1.6229    1.1985   -2.9421 O   0  0  0  0  0  0  0  0  0  0  0  0
   -0.0374    1.1645    0.5781 C   0  0  0  0  0  0  0  0  0  0  0  0
   -0.9816    1.8416    0.1544 O   0  0  0  0  0  0  0  0  0  0  0  0
    0.8235    1.6462    1.4801 N   0  0  0  0  0  0  0  0  0  0  0  0
    1.6183    1.0435    1.7020 H   0  0  0  0  0  0  0  0  0  0  0  0
    0.7895    2.9929    2.0404 C   0  0  0  0  0  0  0  0  0  0  0  0
   -0.2344    3.2522    2.3130 H   0  0  0  0  0  0  0  0  0  0  0  0
    1.4265    3.0377    2.9233 H   0  0  0  0  0  0  0  0  0  0  0  0
    1.1511    3.7014    1.2950 H   0  0  0  0  0  0  0  0  0  0  0  0
  5  6  2  0  0  0  0
  5  7  1  0  0  0  0
  2  3  1  0  0  0  0
  2  4  1  0  0  0  0
  2  5  1  0  0  0  0
  1  2  1  0  0  0  0
 17 18  2  0  0  0  0
 17 19  1  0  0  0  0
 14 15  1  0  0  0  0
 14 16  2  0  0  0  0
 11 12  1  0  0  0  0
 11 13  1  0  0  0  0
 11 14  1  0  0  0  0
  9 10  1  0  0  0  0
  9 11  1  0  0  0  0
  9 17  1  0  0  0  0
  7  8  1  0  0  0  0
  7  9  1  0  0  0  0
 21 22  1  0  0  0  0
 21 23  1  0  0  0  0
 21 24  1  0  0  0  0
 19 20  1  0  0  0  0
 19 21  1  0  0  0  0
M  CHG  1  15  -1
M  END
$$$$
default_name
  -OEChem-02102213163D

 24 23  0     1  0  0  0  0  0999 V2000
   -2.8347   -3.7166    0.8034 H   0  0  0  0  0  0  0  0  0  0  0  0
   -2.7728   -2.7096    0.3954 C   0  0  0  0  0  0  0  0  0  0  0  0
   -3.4267   -2.0426    0.9524 H   0  0  0  0  0  0  0  0  0  0  0  0
   -3.0538   -2.7186   -0.6556 H   0  0  0  0  0  0  0  0  0  0  0  0
   -1.3498   -2.2206    0.5184 C   0  0  0  0  0  0  0  0  0  0  0  0
   -0.4997   -2.9426    1.0194 O   0  0  0  0  0  0  0  0  0  0  0  0
   -1.1198   -0.9926    0.0674 N   0  0  0  0  0  0  0  0  0  0  0  0
   -1.8978   -0.4486   -0.2716 H   0  0  0  0  0  0  0  0  0  0  0  0
    0.1693   -0.2866    0.0854 C   0  0  1  0  0  0  0  0  0  0  0  0
    0.8425   -0.7905    0.7811 H   0  0  0  0  0  0  0  0  0  0  0  0
    0.7993   -0.3404   -1.3233 C   0  0  0  0  0  0  0  0  0  0  0  0
    1.8545   -0.6014   -1.2253 H   0  0  0  0  0  0  0  0  0  0  0  0
    0.3123   -1.1321   -1.8966 H   0  0  0  0  0  0  0  0  0  0  0  0
    0.7178    0.9778   -2.1090 C   0  0  0  0  0  0  0  0  0  0  0  0
   -0.0675    1.8679   -1.7058 O   0  5  0  0  0  0  0  0  0  0  0  0
    1.4353    1.0764   -3.1276 O   0  0  0  0  0  0  0  0  0  0  0  0
   -0.0374    1.1645    0.5781 C   0  0  0  0  0  0  0  0  0  0  0  0
   -0.9816    1.8416    0.1544 O   0  0  0  0  0  0  0  0  0  0  0  0
    0.8235    1.6462    1.4801 N   0  0  0  0  0  0  0  0  0  0  0  0
    1.6183    1.0435    1.7020 H   0  0  0  0  0  0  0  0  0  0  0  0
    0.7895    2.9929    2.0404 C   0  0  0  0  0  0  0  0  0  0  0  0
   -0.2344    3.2522    2.3130 H   0  0  0  0  0  0  0  0  0  0  0  0
    1.4265    3.0377    2.9233 H   0  0  0  0  0  0  0  0  0  0  0  0
    1.1511    3.7014    1.2950 H   0  0  0  0  0  0  0  0  0  0  0  0
  5  6  2  0  0  0  0
  5  7  1  0  0  0  0
  2  3  1  0  0  0  0
  2  4  1  0  0  0  0
  2  5  1  0  0  0  0
  1  2  1  0  0  0  0
 17 18  2  0  0  0  0
 17 19  1  0  0  0  0
 14 15  1  0  0  0  0
 14 16  2  0  0  0  0
 11 12  1  0  0  0  0
 11 13  1  0  0  0  0
 11 14  1  0  0  0  0
  9 10  1  0  0  0  0
  9 11  1  0  0  0  0
  9 17  1  0  0  0  0
  7  8  1  0  0  0  0
  7  9  1  0  0  0  0
 21 22  1  0  0  0  0
 21 23  1  0  0  0  0
 21 24  1  0  0  0  0
 19 20  1  0  0  0  0
 19 21  1  0  0  0  0
M  CHG  1  15  -1
M  END
$$$$
default_name
  -OEChem-02102213163D

 24 23  0     1  0  0  0  0  0999 V2000
   -2.8347   -3.7166    0.8034 H   0  0  0  0  0  0  0  0  0  0  0  0
   -2.7728   -2.7096    0.3954 C   0  0  0  0  0  0  0  0  0  0  0  0
   -3.4267   -2.0426    0.9524 H   0  0  0  0  0  0  0  0  0  0  0  0
   -3.0538   -2.7186   -0.6556 H   0  0  0  0  0  0  0  0  0  0  0  0
   -1.3498   -2.2206    0.5184 C   0  0  0  0  0  0  0  0  0  0  0  0
   -0.4997   -2.9426    1.0194 O   0  0  0  0  0  0  0  0  0  0  0  0
   -1.1198   -0.9926    0.0674 N   0  0  0  0  0  0  0  0  0  0  0  0
   -1.8978   -0.4486   -0.2716 H   0  0  0  0  0  0  0  0  0  0  0  0
    0.1693   -0.2866    0.0854 C   0  0  1  0  0  0  0  0  0  0  0  0
    0.8425   -0.7905    0.7811 H   0  0  0  0  0  0  0  0  0  0  0  0
    0.7993   -0.3404   -1.3233 C   0  0  0  0  0  0  0  0  0  0  0  0
    1.8545   -0.6014   -1.2253 H   0  0  0  0  0  0  0  0  0  0  0  0
    0.3123   -1.1321   -1.8966 H   0  0  0  0  0  0  0  0  0  0  0  0
    0.7178    0.9778   -2.1090 C   0  0  0  0  0  0  0  0  0  0  0  0
    0.1654    1.9645   -1.5679 O   0  5  0  0  0  0  0  0  0  0  0  0
    1.1968    0.9806   -3.2634 O   0  0  0  0  0  0  0  0  0  0  0  0
   -0.0374    1.1645    0.5781 C   0  0  0  0  0  0  0  0  0  0  0  0
   -0.9816    1.8416    0.1544 O   0  0  0  0  0  0  0  0  0  0  0  0
    0.8235    1.6462    1.4801 N   0  0  0  0  0  0  0  0  0  0  0  0
    1.6183    1.0435    1.7020 H   0  0  0  0  0  0  0  0  0  0  0  0
    0.7895    2.9929    2.0404 C   0  0  0  0  0  0  0  0  0  0  0  0
   -0.2344    3.2522    2.3130 H   0  0  0  0  0  0  0  0  0  0  0  0
    1.4265    3.0377    2.9233 H   0  0  0  0  0  0  0  0  0  0  0  0
    1.1511    3.7014    1.2950 H   0  0  0  0  0  0  0  0  0  0  0  0
  5  6  2  0  0  0  0
  5  7  1  0  0  0  0
  2  3  1  0  0  0  0
  2  4  1  0  0  0  0
  2  5  1  0  0  0  0
  1  2  1  0  0  0  0
 17 18  2  0  0  0  0
 17 19  1  0  0  0  0
 14 15  1  0  0  0  0
 14 16  2  0  0  0  0
 11 12  1  0  0  0  0
 11 13  1  0  0  0  0
 11 14  1  0  0  0  0
  9 10  1  0  0  0  0
  9 11  1  0  0  0  0
  9 17  1  0  0  0  0
  7  8  1  0  0  0  0
  7  9  1  0  0  0  0
 21 22  1  0  0  0  0
 21 23  1  0  0  0  0
 21 24  1  0  0  0  0
 19 20  1  0  0  0  0
 19 21  1  0  0  0  0
M  CHG  1  15  -1
M  END
$$$$
default_name
  -OEChem-02102213163D

 24 23  0     1  0  0  0  0  0999 V2000
   -2.8347   -3.7166    0.8034 H   0  0  0  0  0  0  0  0  0  0  0  0
   -2.7728   -2.7096    0.3954 C   0  0  0  0  0  0  0  0  0  0  0  0
   -3.4267   -2.0426    0.9524 H   0  0  0  0  0  0  0  0  0  0  0  0
   -3.0538   -2.7186   -0.6556 H   0  0  0  0  0  0  0  0  0  0  0  0
   -1.3498   -2.2206    0.5184 C   0  0  0  0  0  0  0  0  0  0  0  0
   -0.4997   -2.9426    1.0194 O   0  0  0  0  0  0  0  0  0  0  0  0
   -1.1198   -0.9926    0.0674 N   0  0  0  0  0  0  0  0  0  0  0  0
   -1.8978   -0.4486   -0.2716 H   0  0  0  0  0  0  0  0  0  0  0  0
    0.1693   -0.2866    0.0854 C   0  0  1  0  0  0  0  0  0  0  0  0
    0.8425   -0.7905    0.7811 H   0  0  0  0  0  0  0  0  0  0  0  0
    0.7993   -0.3404   -1.3233 C   0  0  0  0  0  0  0  0  0  0  0  0
    1.8545   -0.6014   -1.2253 H   0  0  0  0  0  0  0  0  0  0  0  0
    0.3123   -1.1321   -1.8966 H   0  0  0  0  0  0  0  0  0  0  0  0
    0.7178    0.9778   -2.1090 C   0  0  0  0  0  0  0  0  0  0  0  0
    0.4339    2.0290   -1.4877 O   0  5  0  0  0  0  0  0  0  0  0  0
    0.9235    0.9179   -3.3403 O   0  0  0  0  0  0  0  0  0  0  0  0
   -0.0374    1.1645    0.5781 C   0  0  0  0  0  0  0  0  0  0  0  0
   -0.9816    1.8416    0.1544 O   0  0  0  0  0  0  0  0  0  0  0  0
    0.8235    1.6462    1.4801 N   0  0  0  0  0  0  0  0  0  0  0  0
    1.6183    1.0435    1.7020 H   0  0  0  0  0  0  0  0  0  0  0  0
    0.7895    2.9929    2.0404 C   0  0  0  0  0  0  0  0  0  0  0  0
   -0.2344    3.2522    2.3130 H   0  0  0  0  0  0  0  0  0  0  0  0
    1.4265    3.0377    2.9233 H   0  0  0  0  0  0  0  0  0  0  0  0
    1.1511    3.7014    1.2950 H   0  0  0  0  0  0  0  0  0  0  0  0
  5  6  2  0  0  0  0
  5  7  1  0  0  0  0
  2  3  1  0  0  0  0
  2  4  1  0  0  0  0
  2  5  1  0  0  0  0
  1  2  1  0  0  0  0
 17 18  2  0  0  0  0
 17 19  1  0  0  0  0
 14 15  1  0  0  0  0
 14 16  2  0  0  0  0
 11 12  1  0  0  0  0
 11 13  1  0  0  0  0
 11 14  1  0  0  0  0
  9 10  1  0  0  0  0
  9 11  1  0  0  0  0
  9 17  1  0  0  0  0
  7  8  1  0  0  0  0
  7  9  1  0  0  0  0
 21 22  1  0  0  0  0
 21 23  1  0  0  0  0
 21 24  1  0  0  0  0
 19 20  1  0  0  0  0
 19 21  1  0  0  0  0
M  CHG  1  15  -1
M  END
$$$$
default_name
  -OEChem-02102213163D

 24 23  0     1  0  0  0  0  0999 V2000
   -2.8347   -3.7166    0.8034 H   0  0  0  0  0  0  0  0  0  0  0  0
   -2.7728   -2.7096    0.3954 C   0  0  0  0  0  0  0  0  0  0  0  0
   -3.4267   -2.0426    0.9524 H   0  0  0  0  0  0  0  0  0  0  0  0
   -3.0538   -2.7186   -0.6556 H   0  0  0  0  0  0  0  0  0  0  0  0
   -1.3498   -2.2206    0.5184 C   0  0  0  0  0  0  0  0  0  0  0  0
   -0.4997   -2.9426    1.0194 O   0  0  0  0  0  0  0  0  0  0  0  0
   -1.1198   -0.9926    0.0674 N   0  0  0  0  0  0  0  0  0  0  0  0
   -1.8978   -0.4486   -0.2716 H   0  0  0  0  0  0  0  0  0  0  0  0
    0.1693   -0.2866    0.0854 C   0  0  1  0  0  0  0  0  0  0  0  0
    0.8425   -0.7905    0.7811 H   0  0  0  0  0  0  0  0  0  0  0  0
    0.7993   -0.3404   -1.3233 C   0  0  0  0  0  0  0  0  0  0  0  0
    1.8545   -0.6014   -1.2253 H   0  0  0  0  0  0  0  0  0  0  0  0
    0.3123   -1.1321   -1.8966 H   0  0  0  0  0  0  0  0  0  0  0  0
    0.7178    0.9778   -2.1090 C   0  0  0  0  0  0  0  0  0  0  0  0
    0.7195    2.0567   -1.4707 O   0  5  0  0  0  0  0  0  0  0  0  0
    0.6342    0.8924   -3.3531 O   0  0  0  0  0  0  0  0  0  0  0  0
   -0.0374    1.1645    0.5781 C   0  0  0  0  0  0  0  0  0  0  0  0
   -0.9816    1.8416    0.1544 O   0  0  0  0  0  0  0  0  0  0  0  0
    0.8235    1.6462    1.4801 N   0  0  0  0  0  0  0  0  0  0  0  0
    1.6183    1.0435    1.7020 H   0  0  0  0  0  0  0  0  0  0  0  0
    0.7895    2.9929    2.0404 C   0  0  0  0  0  0  0  0  0  0  0  0
   -0.2344    3.2522    2.3130 H   0  0  0  0  0  0  0  0  0  0  0  0
    1.4265    3.0377    2.9233 H   0  0  0  0  0  0  0  0  0  0  0  0
    1.1511    3.7014    1.2950 H   0  0  0  0  0  0  0  0  0  0  0  0
  5  6  2  0  0  0  0
  5  7  1  0  0  0  0
  2  3  1  0  0  0  0
  2  4  1  0  0  0  0
  2  5  1  0  0  0  0
  1  2  1  0  0  0  0
 17 18  2  0  0  0  0
 17 19  1  0  0  0  0
 14 15  1  0  0  0  0
 14 16  2  0  0  0  0
 11 12  1  0  0  0  0
 11 13  1  0  0  0  0
 11 14  1  0  0  0  0
  9 10  1  0  0  0  0
  9 11  1  0  0  0  0
  9 17  1  0  0  0  0
  7  8  1  0  0  0  0
  7  9  1  0  0  0  0
 21 22  1  0  0  0  0
 21 23  1  0  0  0  0
 21 24  1  0  0  0  0
 19 20  1  0  0  0  0
 19 21  1  0  0  0  0
M  CHG  1  15  -1
M  END
$$$$
default_name
  -OEChem-02102213163D

 24 23  0     1  0  0  0  0  0999 V2000
   -2.8347   -3.7166    0.8034 H   0  0  0  0  0  0  0  0  0  0  0  0
   -2.7728   -2.7096    0.3954 C   0  0  0  0  0  0  0  0  0  0  0  0
   -3.4267   -2.0426    0.9524 H   0  0  0  0  0  0  0  0  0  0  0  0
   -3.0538   -2.7186   -0.6556 H   0  0  0  0  0  0  0  0  0  0  0  0
   -1.3498   -2.2206    0.5184 C   0  0  0  0  0  0  0  0  0  0  0  0
   -0.4997   -2.9426    1.0194 O   0  0  0  0  0  0  0  0  0  0  0  0
   -1.1198   -0.9926    0.0674 N   0  0  0  0  0  0  0  0  0  0  0  0
   -1.8978   -0.4486   -0.2716 H   0  0  0  0  0  0  0  0  0  0  0  0
    0.1693   -0.2866    0.0854 C   0  0  1  0  0  0  0  0  0  0  0  0
    0.8425   -0.7905    0.7811 H   0  0  0  0  0  0  0  0  0  0  0  0
    0.7993   -0.3404   -1.3233 C   0  0  0  0  0  0  0  0  0  0  0  0
    1.8545   -0.6014   -1.2253 H   0  0  0  0  0  0  0  0  0  0  0  0
    0.3123   -1.1321   -1.8966 H   0  0  0  0  0  0  0  0  0  0  0  0
    0.7178    0.9778   -2.1090 C   0  0  0  0  0  0  0  0  0  0  0  0
    1.0029    2.0460   -1.5181 O   0  5  0  0  0  0  0  0  0  0  0  0
    0.3485    0.9058   -3.3009 O   0  0  0  0  0  0  0  0  0  0  0  0
   -0.0374    1.1645    0.5781 C   0  0  0  0  0  0  0  0  0  0  0  0
   -0.9816    1.8416    0.1544 O   0  0  0  0  0  0  0  0  0  0  0  0
    0.8235    1.6462    1.4801 N   0  0  0  0  0  0  0  0  0  0  0  0
    1.6183    1.0435    1.7020 H   0  0  0  0  0  0  0  0  0  0  0  0
    0.7895    2.9929    2.0404 C   0  0  0  0  0  0  0  0  0  0  0  0
   -0.2344    3.2522    2.3130 H   0  0  0  0  0  0  0  0  0  0  0  0
    1.4265    3.0377    2.9233 H   0  0  0  0  0  0  0  0  0  0  0  0
    1.1511    3.7014    1.2950 H   0  0  0  0  0  0  0  0  0  0  0  0
  5  6  2  0  0  0  0
  5  7  1  0  0  0  0
  2  3  1  0  0  0  0
  2  4  1  0  0  0  0
  2  5  1  0  0  0  0
  1  2  1  0  0  0  0
 17 18  2  0  0  0  0
 17 19  1  0  0  0  0
 14 15  1  0  0  0  0
 14 16  2  0  0  0  0
 11 12  1  0  0  0  0
 11 13  1  0  0  0  0
 11 14  1  0  0  0  0
  9 10  1  0  0  0  0
  9 11  1  0  0  0  0
  9 17  1  0  0  0  0
  7  8  1  0  0  0  0
  7  9  1  0  0  0  0
 21 22  1  0  0  0  0
 21 23  1  0  0  0  0
 21 24  1  0  0  0  0
 19 20  1  0  0  0  0
 19 21  1  0  0  0  0
M  CHG  1  15  -1
M  END
$$$$
default_name
  -OEChem-02102213163D

 24 23  0     1  0  0  0  0  0999 V2000
   -2.8347   -3.7166    0.8034 H   0  0  0  0  0  0  0  0  0  0  0  0
   -2.7728   -2.7096    0.3954 C   0  0  0  0  0  0  0  0  0  0  0  0
   -3.4267   -2.0426    0.9524 H   0  0  0  0  0  0  0  0  0  0  0  0
   -3.0538   -2.7186   -0.6556 H   0  0  0  0  0  0  0  0  0  0  0  0
   -1.3498   -2.2206    0.5184 C   0  0  0  0  0  0  0  0  0  0  0  0
   -0.4997   -2.9426    1.0194 O   0  0  0  0  0  0  0  0  0  0  0  0
   -1.1198   -0.9926    0.0674 N   0  0  0  0  0  0  0  0  0  0  0  0
   -1.8978   -0.4486   -0.2716 H   0  0  0  0  0  0  0  0  0  0  0  0
    0.1693   -0.2866    0.0854 C   0  0  1  0  0  0  0  0  0  0  0  0
    0.8425   -0.7905    0.7811 H   0  0  0  0  0  0  0  0  0  0  0  0
    0.7993   -0.3404   -1.3233 C   0  0  0  0  0  0  0  0  0  0  0  0
    1.8545   -0.6014   -1.2253 H   0  0  0  0  0  0  0  0  0  0  0  0
    0.3123   -1.1321   -1.8966 H   0  0  0  0  0  0  0  0  0  0  0  0
    0.7178    0.9778   -2.1090 C   0  0  0  0  0  0  0  0  0  0  0  0
    1.2646    1.9975   -1.6266 O   0  5  0  0  0  0  0  0  0  0  0  0
    0.0859    0.9574   -3.1872 O   0  0  0  0  0  0  0  0  0  0  0  0
   -0.0374    1.1645    0.5781 C   0  0  0  0  0  0  0  0  0  0  0  0
   -0.9816    1.8416    0.1544 O   0  0  0  0  0  0  0  0  0  0  0  0
    0.8235    1.6462    1.4801 N   0  0  0  0  0  0  0  0  0  0  0  0
    1.6183    1.0435    1.7020 H   0  0  0  0  0  0  0  0  0  0  0  0
    0.7895    2.9929    2.0404 C   0  0  0  0  0  0  0  0  0  0  0  0
   -0.2344    3.2522    2.3130 H   0  0  0  0  0  0  0  0  0  0  0  0
    1.4265    3.0377    2.9233 H   0  0  0  0  0  0  0  0  0  0  0  0
    1.1511    3.7014    1.2950 H   0  0  0  0  0  0  0  0  0  0  0  0
  5  6  2  0  0  0  0
  5  7  1  0  0  0  0
  2  3  1  0  0  0  0
  2  4  1  0  0  0  0
  2  5  1  0  0  0  0
  1  2  1  0  0  0  0
 17 18  2  0  0  0  0
 17 19  1  0  0  0  0
 14 15  1  0  0  0  0
 14 16  2  0  0  0  0
 11 12  1  0  0  0  0
 11 13  1  0  0  0  0
 11 14  1  0  0  0  0
  9 10  1  0  0  0  0
  9 11  1  0  0  0  0
  9 17  1  0  0  0  0
  7  8  1  0  0  0  0
  7  9  1  0  0  0  0
 21 22  1  0  0  0  0
 21 23  1  0  0  0  0
 21 24  1  0  0  0  0
 19 20  1  0  0  0  0
 19 21  1  0  0  0  0
M  CHG  1  15  -1
M  END
$$$$
default_name
  -OEChem-02102213163D

 24 23  0     1  0  0  0  0  0999 V2000
   -2.8347   -3.7166    0.8034 H   0  0  0  0  0  0  0  0  0  0  0  0
   -2.7728   -2.7096    0.3954 C   0  0  0  0  0  0  0  0  0  0  0  0
   -3.4267   -2.0426    0.9524 H   0  0  0  0  0  0  0  0  0  0  0  0
   -3.0538   -2.7186   -0.6556 H   0  0  0  0  0  0  0  0  0  0  0  0
   -1.3498   -2.2206    0.5184 C   0  0  0  0  0  0  0  0  0  0  0  0
   -0.4997   -2.9426    1.0194 O   0  0  0  0  0  0  0  0  0  0  0  0
   -1.1198   -0.9926    0.0674 N   0  0  0  0  0  0  0  0  0  0  0  0
   -1.8978   -0.4486   -0.2716 H   0  0  0  0  0  0  0  0  0  0  0  0
    0.1693   -0.2866    0.0854 C   0  0  1  0  0  0  0  0  0  0  0  0
    0.8425   -0.7905    0.7811 H   0  0  0  0  0  0  0  0  0  0  0  0
    0.7993   -0.3404   -1.3233 C   0  0  0  0  0  0  0  0  0  0  0  0
    1.8545   -0.6014   -1.2253 H   0  0  0  0  0  0  0  0  0  0  0  0
    0.3123   -1.1321   -1.8966 H   0  0  0  0  0  0  0  0  0  0  0  0
    0.7178    0.9778   -2.1090 C   0  0  0  0  0  0  0  0  0  0  0  0
    1.4870    1.9145   -1.7889 O   0  5  0  0  0  0  0  0  0  0  0  0
   -0.1356    1.0434   -3.0198 O   0  0  0  0  0  0  0  0  0  0  0  0
   -0.0374    1.1645    0.5781 C   0  0  0  0  0  0  0  0  0  0  0  0
   -0.9816    1.8416    0.1544 O   0  0  0  0  0  0  0  0  0  0  0  0
    0.8235    1.6462    1.4801 N   0  0  0  0  0  0  0  0  0  0  0  0
    1.6183    1.0435    1.7020 H   0  0  0  0  0  0  0  0  0  0  0  0
    0.7895    2.9929    2.0404 C   0  0  0  0  0  0  0  0  0  0  0  0
   -0.2344    3.2522    2.3130 H   0  0  0  0  0  0  0  0  0  0  0  0
    1.4265    3.0377    2.9233 H   0  0  0  0  0  0  0  0  0  0  0  0
    1.1511    3.7014    1.2950 H   0  0  0  0  0  0  0  0  0  0  0  0
  5  6  2  0  0  0  0
  5  7  1  0  0  0  0
  2  3  1  0  0  0  0
  2  4  1  0  0  0  0
  2  5  1  0  0  0  0
  1  2  1  0  0  0  0
 17 18  2  0  0  0  0
 17 19  1  0  0  0  0
 14 15  1  0  0  0  0
 14 16  2  0  0  0  0
 11 12  1  0  0  0  0
 11 13  1  0  0  0  0
 11 14  1  0  0  0  0
  9 10  1  0  0  0  0
  9 11  1  0  0  0  0
  9 17  1  0  0  0  0
  7  8  1  0  0  0  0
  7  9  1  0  0  0  0
 21 22  1  0  0  0  0
 21 23  1  0  0  0  0
 21 24  1  0  0  0  0
 19 20  1  0  0  0  0
 19 21  1  0  0  0  0
M  CHG  1  15  -1
M  END
$$$$
default_name
  -OEChem-02102213163D

 24 23  0     1  0  0  0  0  0999 V2000
   -2.8347   -3.7166    0.8034 H   0  0  0  0  0  0  0  0  0  0  0  0
   -2.7728   -2.7096    0.3954 C   0  0  0  0  0  0  0  0  0  0  0  0
   -3.4267   -2.0426    0.9524 H   0  0  0  0  0  0  0  0  0  0  0  0
   -3.0538   -2.7186   -0.6556 H   0  0  0  0  0  0  0  0  0  0  0  0
   -1.3498   -2.2206    0.5184 C   0  0  0  0  0  0  0  0  0  0  0  0
   -0.4997   -2.9426    1.0194 O   0  0  0  0  0  0  0  0  0  0  0  0
   -1.1198   -0.9926    0.0674 N   0  0  0  0  0  0  0  0  0  0  0  0
   -1.8978   -0.4486   -0.2716 H   0  0  0  0  0  0  0  0  0  0  0  0
    0.1693   -0.2866    0.0854 C   0  0  1  0  0  0  0  0  0  0  0  0
    0.8425   -0.7905    0.7811 H   0  0  0  0  0  0  0  0  0  0  0  0
    0.7993   -0.3404   -1.3233 C   0  0  0  0  0  0  0  0  0  0  0  0
    1.8545   -0.6014   -1.2253 H   0  0  0  0  0  0  0  0  0  0  0  0
    0.3123   -1.1321   -1.8966 H   0  0  0  0  0  0  0  0  0  0  0  0
    0.7178    0.9778   -2.1090 C   0  0  0  0  0  0  0  0  0  0  0  0
    1.6547    1.8027   -1.9939 O   0  5  0  0  0  0  0  0  0  0  0  0
   -0.3011    1.1582   -2.8101 O   0  0  0  0  0  0  0  0  0  0  0  0
   -0.0374    1.1645    0.5781 C   0  0  0  0  0  0  0  0  0  0  0  0
   -0.9816    1.8416    0.1544 O   0  0  0  0  0  0  0  0  0  0  0  0
    0.8235    1.6462    1.4801 N   0  0  0  0  0  0  0  0  0  0  0  0
    1.6183    1.0435    1.7020 H   0  0  0  0  0  0  0  0  0  0  0  0
    0.7895    2.9929    2.0404 C   0  0  0  0  0  0  0  0  0  0  0  0
   -0.2344    3.2522    2.3130 H   0  0  0  0  0  0  0  0  0  0  0  0
    1.4265    3.0377    2.9233 H   0  0  0  0  0  0  0  0  0  0  0  0
    1.1511    3.7014    1.2950 H   0  0  0  0  0  0  0  0  0  0  0  0
  5  6  2  0  0  0  0
  5  7  1  0  0  0  0
  2  3  1  0  0  0  0
  2  4  1  0  0  0  0
  2  5  1  0  0  0  0
  1  2  1  0  0  0  0
 17 18  2  0  0  0  0
 17 19  1  0  0  0  0
 14 15  1  0  0  0  0
 14 16  2  0  0  0  0
 11 12  1  0  0  0  0
 11 13  1  0  0  0  0
 11 14  1  0  0  0  0
  9 10  1  0  0  0  0
  9 11  1  0  0  0  0
  9 17  1  0  0  0  0
  7  8  1  0  0  0  0
  7  9  1  0  0  0  0
 21 22  1  0  0  0  0
 21 23  1  0  0  0  0
 21 24  1  0  0  0  0
 19 20  1  0  0  0  0
 19 21  1  0  0  0  0
M  CHG  1  15  -1
M  END
$$$$
default_name
  -OEChem-02102213163D

 24 23  0     1  0  0  0  0  0999 V2000
   -2.8347   -3.7166    0.8034 H   0  0  0  0  0  0  0  0  0  0  0  0
   -2.7728   -2.7096    0.3954 C   0  0  0  0  0  0  0  0  0  0  0  0
   -3.4267   -2.0426    0.9524 H   0  0  0  0  0  0  0  0  0  0  0  0
   -3.0538   -2.7186   -0.6556 H   0  0  0  0  0  0  0  0  0  0  0  0
   -1.3498   -2.2206    0.5184 C   0  0  0  0  0  0  0  0  0  0  0  0
   -0.4997   -2.9426    1.0194 O   0  0  0  0  0  0  0  0  0  0  0  0
   -1.1198   -0.9926    0.0674 N   0  0  0  0  0  0  0  0  0  0  0  0
   -1.8978   -0.4486   -0.2716 H   0  0  0  0  0  0  0  0  0  0  0  0
    0.1693   -0.2866    0.0854 C   0  0  1  0  0  0  0  0  0  0  0  0
    0.8425   -0.7905    0.7811 H   0  0  0  0  0  0  0  0  0  0  0  0
    0.7993   -0.3404   -1.3233 C   0  0  0  0  0  0  0  0  0  0  0  0
    1.8545   -0.6014   -1.2253 H   0  0  0  0  0  0  0  0  0  0  0  0
    0.3123   -1.1321   -1.8966 H   0  0  0  0  0  0  0  0  0  0  0  0
    0.7178    0.9778   -2.1090 C   0  0  0  0  0  0  0  0  0  0  0  0
    1.7564    1.6697   -2.2276 O   0  5  0  0  0  0  0  0  0  0  0  0
   -0.3992    1.2938   -2.5723 O   0  0  0  0  0  0  0  0  0  0  0  0
   -0.0374    1.1645    0.5781 C   0  0  0  0  0  0  0  0  0  0  0  0
   -0.9816    1.8416    0.1544 O   0  0  0  0  0  0  0  0  0  0  0  0
    0.8235    1.6462    1.4801 N   0  0  0  0  0  0  0  0  0  0  0  0
    1.6183    1.0435    1.7020 H   0  0  0  0  0  0  0  0  0  0  0  0
    0.7895    2.9929    2.0404 C   0  0  0  0  0  0  0  0  0  0  0  0
   -0.2344    3.2522    2.3130 H   0  0  0  0  0  0  0  0  0  0  0  0
    1.4265    3.0377    2.9233 H   0  0  0  0  0  0  0  0  0  0  0  0
    1.1511    3.7014    1.2950 H   0  0  0  0  0  0  0  0  0  0  0  0
  5  6  2  0  0  0  0
  5  7  1  0  0  0  0
  2  3  1  0  0  0  0
  2  4  1  0  0  0  0
  2  5  1  0  0  0  0
  1  2  1  0  0  0  0
 17 18  2  0  0  0  0
 17 19  1  0  0  0  0
 14 15  1  0  0  0  0
 14 16  2  0  0  0  0
 11 12  1  0  0  0  0
 11 13  1  0  0  0  0
 11 14  1  0  0  0  0
  9 10  1  0  0  0  0
  9 11  1  0  0  0  0
  9 17  1  0  0  0  0
  7  8  1  0  0  0  0
  7  9  1  0  0  0  0
 21 22  1  0  0  0  0
 21 23  1  0  0  0  0
 21 24  1  0  0  0  0
 19 20  1  0  0  0  0
 19 21  1  0  0  0  0
M  CHG  1  15  -1
M  END
$$$$
default_name
  -OEChem-02102213163D

 24 23  0     1  0  0  0  0  0999 V2000
   -2.8347   -3.7166    0.8034 H   0  0  0  0  0  0  0  0  0  0  0  0
   -2.7728   -2.7096    0.3954 C   0  0  0  0  0  0  0  0  0  0  0  0
   -3.4267   -2.0426    0.9524 H   0  0  0  0  0  0  0  0  0  0  0  0
   -3.0538   -2.7186   -0.6556 H   0  0  0  0  0  0  0  0  0  0  0  0
   -1.3498   -2.2206    0.5184 C   0  0  0  0  0  0  0  0  0  0  0  0
   -0.4997   -2.9426    1.0194 O   0  0  0  0  0  0  0  0  0  0  0  0
   -1.1198   -0.9926    0.0674 N   0  0  0  0  0  0  0  0  0  0  0  0
   -1.8978   -0.4486   -0.2716 H   0  0  0  0  0  0  0  0  0  0  0  0
    0.1693   -0.2866    0.0854 C   0  0  1  0  0  0  0  0  0  0  0  0
    0.8425   -0.7905    0.7811 H   0  0  0  0  0  0  0  0  0  0  0  0
    0.7993   -0.3404   -1.3233 C   0  0  0  0  0  0  0  0  0  0  0  0
    1.8545   -0.6014   -1.2253 H   0  0  0  0  0  0  0  0  0  0  0  0
    0.3123   -1.1321   -1.8966 H   0  0  0  0  0  0  0  0  0  0  0  0
    0.7178    0.9778   -2.1090 C   0  0  0  0  0  0  0  0  0  0  0  0
    1.7852    1.5246   -2.4741 O   0  5  0  0  0  0  0  0  0  0  0  0
   -0.4232    1.4411   -2.3228 O   0  0  0  0  0  0  0  0  0  0  0  0
   -0.0374    1.1645    0.5781 C   0  0  0  0  0  0  0  0  0  0  0  0
   -0.9816    1.8416    0.1544 O   0  0  0  0  0  0  0  0  0  0  0  0
    0.8235    1.6462    1.4801 N   0  0  0  0  0  0  0  0  0  0  0  0
    1.6183    1.0435    1.7020 H   0  0  0  0  0  0  0  0  0  0  0  0
    0.7895    2.9929    2.0404 C   0  0  0  0  0  0  0  0  0  0  0  0
   -0.2344    3.2522    2.3130 H   0  0  0  0  0  0  0  0  0  0  0  0
    1.4265    3.0377    2.9233 H   0  0  0  0  0  0  0  0  0  0  0  0
    1.1511    3.7014    1.2950 H   0  0  0  0  0  0  0  0  0  0  0  0
  5  6  2  0  0  0  0
  5  7  1  0  0  0  0
  2  3  1  0  0  0  0
  2  4  1  0  0  0  0
  2  5  1  0  0  0  0
  1  2  1  0  0  0  0
 17 18  2  0  0  0  0
 17 19  1  0  0  0  0
 14 15  1  0  0  0  0
 14 16  2  0  0  0  0
 11 12  1  0  0  0  0
 11 13  1  0  0  0  0
 11 14  1  0  0  0  0
  9 10  1  0  0  0  0
  9 11  1  0  0  0  0
  9 17  1  0  0  0  0
  7  8  1  0  0  0  0
  7  9  1  0  0  0  0
 21 22  1  0  0  0  0
 21 23  1  0  0  0  0
 21 24  1  0  0  0  0
 19 20  1  0  0  0  0
 19 21  1  0  0  0  0
M  CHG  1  15  -1
M  END
$$$$
default_name
  -OEChem-02102213163D

 24 23  0     1  0  0  0  0  0999 V2000
   -2.8347   -3.7166    0.8034 H   0  0  0  0  0  0  0  0  0  0  0  0
   -2.7728   -2.7096    0.3954 C   0  0  0  0  0  0  0  0  0  0  0  0
   -3.4267   -2.0426    0.9524 H   0  0  0  0  0  0  0  0  0  0  0  0
   -3.0538   -2.7186   -0.6556 H   0  0  0  0  0  0  0  0  0  0  0  0
   -1.3498   -2.2206    0.5184 C   0  0  0  0  0  0  0  0  0  0  0  0
   -0.4997   -2.9426    1.0194 O   0  0  0  0  0  0  0  0  0  0  0  0
   -1.1198   -0.9926    0.0674 N   0  0  0  0  0  0  0  0  0  0  0  0
   -1.8978   -0.4486   -0.2716 H   0  0  0  0  0  0  0  0  0  0  0  0
    0.1693   -0.2866    0.0854 C   0  0  1  0  0  0  0  0  0  0  0  0
    0.8425   -0.7905    0.7811 H   0  0  0  0  0  0  0  0  0  0  0  0
    0.7993   -0.3404   -1.3233 C   0  0  0  0  0  0  0  0  0  0  0  0
    1.8545   -0.6014   -1.2253 H   0  0  0  0  0  0  0  0  0  0  0  0
    0.3123   -1.1321   -1.8966 H   0  0  0  0  0  0  0  0  0  0  0  0
    0.7178    0.9778   -2.1090 C   0  0  0  0  0  0  0  0  0  0  0  0
    1.7390    1.3772   -2.7165 O   0  5  0  0  0  0  0  0  0  0  0  0
   -0.3715    1.5899   -2.0785 O   0  0  0  0  0  0  0  0  0  0  0  0
   -0.0374    1.1645    0.5781 C   0  0  0  0  0  0  0  0  0  0  0  0
   -0.9816    1.8416    0.1544 O   0  0  0  0  0  0  0  0  0  0  0  0
    0.8235    1.6462    1.4801 N   0  0  0  0  0  0  0  0  0  0  0  0
    1.6183    1.0435    1.7020 H   0  0  0  0  0  0  0  0  0  0  0  0
    0.7895    2.9929    2.0404 C   0  0  0  0  0  0  0  0  0  0  0  0
   -0.2344    3.2522    2.3130 H   0  0  0  0  0  0  0  0  0  0  0  0
    1.4265    3.0377    2.9233 H   0  0  0  0  0  0  0  0  0  0  0  0
    1.1511    3.7014    1.2950 H   0  0  0  0  0  0  0  0  0  0  0  0
  5  6  2  0  0  0  0
  5  7  1  0  0  0  0
  2  3  1  0  0  0  0
  2  4  1  0  0  0  0
  2  5  1  0  0  0  0
  1  2  1  0  0  0  0
 17 18  2  0  0  0  0
 17 19  1  0  0  0  0
 14 15  1  0  0  0  0
 14 16  2  0  0  0  0
 11 12  1  0  0  0  0
 11 13  1  0  0  0  0
 11 14  1  0  0  0  0
  9 10  1  0  0  0  0
  9 11  1  0  0  0  0
  9 17  1  0  0  0  0
  7  8  1  0  0  0  0
  7  9  1  0  0  0  0
 21 22  1  0  0  0  0
 21 23  1  0  0  0  0
 21 24  1  0  0  0  0
 19 20  1  0  0  0  0
 19 21  1  0  0  0  0
M  CHG  1  15  -1
M  END
$$$$
default_name
  -OEChem-02102213163D

 24 23  0     1  0  0  0  0  0999 V2000
   -2.8347   -3.7166    0.8034 H   0  0  0  0  0  0  0  0  0  0  0  0
   -2.7728   -2.7096    0.3954 C   0  0  0  0  0  0  0  0  0  0  0  0
   -3.4267   -2.0426    0.9524 H   0  0  0  0  0  0  0  0  0  0  0  0
   -3.0538   -2.7186   -0.6556 H   0  0  0  0  0  0  0  0  0  0  0  0
   -1.3498   -2.2206    0.5184 C   0  0  0  0  0  0  0  0  0  0  0  0
   -0.4997   -2.9426    1.0194 O   0  0  0  0  0  0  0  0  0  0  0  0
   -1.1198   -0.9926    0.0674 N   0  0  0  0  0  0  0  0  0  0  0  0
   -1.8978   -0.4486   -0.2716 H   0  0  0  0  0  0  0  0  0  0  0  0
    0.1693   -0.2866    0.0854 C   0  0  1  0  0  0  0  0  0  0  0  0
    0.8425   -0.7905    0.7811 H   0  0  0  0  0  0  0  0  0  0  0  0
    0.7993   -0.3404   -1.3233 C   0  0  0  0  0  0  0  0  0  0  0  0
    1.8545   -0.6014   -1.2253 H   0  0  0  0  0  0  0  0  0  0  0  0
    0.3123   -1.1321   -1.8966 H   0  0  0  0  0  0  0  0  0  0  0  0
    0.7178    0.9778   -2.1090 C   0  0  0  0  0  0  0  0  0  0  0  0
    1.6211    1.2376   -2.9385 O   0  5  0  0  0  0  0  0  0  0  0  0
   -0.2476    1.7302   -1.8560 O   0  0  0  0  0  0  0  0  0  0  0  0
   -0.0374    1.1645    0.5781 C   0  0  0  0  0  0  0  0  0  0  0  0
   -0.9816    1.8416    0.1544 O   0  0  0  0  0  0  0  0  0  0  0  0
    0.8235    1.6462    1.4801 N   0  0  0  0  0  0  0  0  0  0  0  0
    1.6183    1.0435    1.7020 H   0  0  0  0  0  0  0  0  0  0  0  0
    0.7895    2.9929    2.0404 C   0  0  0  0  0  0  0  0  0  0  0  0
   -0.2344    3.2522    2.3130 H   0  0  0  0  0  0  0  0  0  0  0  0
    1.4265    3.0377    2.9233 H   0  0  0  0  0  0  0  0  0  0  0  0
    1.1511    3.7014    1.2950 H   0  0  0  0  0  0  0  0  0  0  0  0
  5  6  2  0  0  0  0
  5  7  1  0  0  0  0
  2  3  1  0  0  0  0
  2  4  1  0  0  0  0
  2  5  1  0  0  0  0
  1  2  1  0  0  0  0
 17 18  2  0  0  0  0
 17 19  1  0  0  0  0
 14 15  1  0  0  0  0
 14 16  2  0  0  0  0
 11 12  1  0  0  0  0
 11 13  1  0  0  0  0
 11 14  1  0  0  0  0
  9 10  1  0  0  0  0
  9 11  1  0  0  0  0
  9 17  1  0  0  0  0
  7  8  1  0  0  0  0
  7  9  1  0  0  0  0
 21 22  1  0  0  0  0
 21 23  1  0  0  0  0
 21 24  1  0  0  0  0
 19 20  1  0  0  0  0
 19 21  1  0  0  0  0
M  CHG  1  15  -1
M  END
$$$$
default_name
  -OEChem-02102213163D

 24 23  0     1  0  0  0  0  0999 V2000
   -2.8347   -3.7166    0.8034 H   0  0  0  0  0  0  0  0  0  0  0  0
   -2.7728   -2.7096    0.3954 C   0  0  0  0  0  0  0  0  0  0  0  0
   -3.4267   -2.0426    0.9524 H   0  0  0  0  0  0  0  0  0  0  0  0
   -3.0538   -2.7186   -0.6556 H   0  0  0  0  0  0  0  0  0  0  0  0
   -1.3498   -2.2206    0.5184 C   0  0  0  0  0  0  0  0  0  0  0  0
   -0.4997   -2.9426    1.0194 O   0  0  0  0  0  0  0  0  0  0  0  0
   -1.1198   -0.9926    0.0674 N   0  0  0  0  0  0  0  0  0  0  0  0
   -1.8978   -0.4486   -0.2716 H   0  0  0  0  0  0  0  0  0  0  0  0
    0.1693   -0.2866    0.0854 C   0  0  1  0  0  0  0  0  0  0  0  0
    0.8425   -0.7905    0.7811 H   0  0  0  0  0  0  0  0  0  0  0  0
    0.7993   -0.3404   -1.3233 C   0  0  0  0  0  0  0  0  0  0  0  0
    1.8545   -0.6014   -1.2253 H   0  0  0  0  0  0  0  0  0  0  0  0
    0.3123   -1.1321   -1.8966 H   0  0  0  0  0  0  0  0  0  0  0  0
    0.7178    0.9778   -2.1090 C   0  0  0  0  0  0  0  0  0  0  0  0
    1.4395    1.1153   -3.1248 O   0  5  0  0  0  0  0  0  0  0  0  0
   -0.0600    1.8524   -1.6705 O   0  0  0  0  0  0  0  0  0  0  0  0
   -0.0374    1.1645    0.5781 C   0  0  0  0  0  0  0  0  0  0  0  0
   -0.9816    1.8416    0.1544 O   0  0  0  0  0  0  0  0  0  0  0  0
    0.8235    1.6462    1.4801 N   0  0  0  0  0  0  0  0  0  0  0  0
    1.6183    1.0435    1.7020 H   0  0  0  0  0  0  0  0  0  0  0  0
    0.7895    2.9929    2.0404 C   0  0  0  0  0  0  0  0  0  0  0  0
   -0.2344    3.2522    2.3130 H   0  0  0  0  0  0  0  0  0  0  0  0
    1.4265    3.0377    2.9233 H   0  0  0  0  0  0  0  0  0  0  0  0
    1.1511    3.7014    1.2950 H   0  0  0  0  0  0  0  0  0  0  0  0
  5  6  2  0  0  0  0
  5  7  1  0  0  0  0
  2  3  1  0  0  0  0
  2  4  1  0  0  0  0
  2  5  1  0  0  0  0
  1  2  1  0  0  0  0
 17 18  2  0  0  0  0
 17 19  1  0  0  0  0
 14 15  1  0  0  0  0
 14 16  2  0  0  0  0
 11 12  1  0  0  0  0
 11 13  1  0  0  0  0
 11 14  1  0  0  0  0
  9 10  1  0  0  0  0
  9 11  1  0  0  0  0
  9 17  1  0  0  0  0
  7  8  1  0  0  0  0
  7  9  1  0  0  0  0
 21 22  1  0  0  0  0
 21 23  1  0  0  0  0
 21 24  1  0  0  0  0
 19 20  1  0  0  0  0
 19 21  1  0  0  0  0
M  CHG  1  15  -1
M  END
$$$$
default_name
  -OEChem-02102213163D

 24 23  0     1  0  0  0  0  0999 V2000
   -2.8347   -3.7166    0.8034 H   0  0  0  0  0  0  0  0  0  0  0  0
   -2.7728   -2.7096    0.3954 C   0  0  0  0  0  0  0  0  0  0  0  0
   -3.4267   -2.0426    0.9524 H   0  0  0  0  0  0  0  0  0  0  0  0
   -3.0538   -2.7186   -0.6556 H   0  0  0  0  0  0  0  0  0  0  0  0
   -1.3498   -2.2206    0.5184 C   0  0  0  0  0  0  0  0  0  0  0  0
   -0.4997   -2.9426    1.0194 O   0  0  0  0  0  0  0  0  0  0  0  0
   -1.1198   -0.9926    0.0674 N   0  0  0  0  0  0  0  0  0  0  0  0
   -1.8978   -0.4486   -0.2716 H   0  0  0  0  0  0  0  0  0  0  0  0
    0.1693   -0.2866    0.0854 C   0  0  1  0  0  0  0  0  0  0  0  0
    0.8425   -0.7905    0.7811 H   0  0  0  0  0  0  0  0  0  0  0  0
    0.7993   -0.3404   -1.3233 C   0  0  0  0  0  0  0  0  0  0  0  0
    1.7609   -0.8524   -1.2576 H   0  0  0  0  0  0  0  0  0  0  0  0
    0.1520   -0.9300   -1.9760 H   0  0  0  0  0  0  0  0  0  0  0  0
    1.0477    1.0343   -1.9636 C   0  0  0  0  0  0  0  0  0  0  0  0
    1.5573    1.0788   -3.1081 O   0  5  0  0  0  0  0  0  0  0  0  0
    0.7401    2.0392   -1.2870 O   0  0  0  0  0  0  0  0  0  0  0  0
   -0.0374    1.1645    0.5781 C   0  0  0  0  0  0  0  0  0  0  0  0
   -0.9816    1.8416    0.1544 O   0  0  0  0  0  0  0  0  0  0  0  0
    0.8235    1.6462    1.4801 N   0  0  0  0  0  0  0  0  0  0  0  0
    1.6183    1.0435    1.7020 H   0  0  0  0  0  0  0  0  0  0  0  0
    0.7895    2.9929    2.0404 C   0  0  0  0  0  0  0  0  0  0  0  0
   -0.2344    3.2522    2.3130 H   0  0  0  0  0  0  0  0  0  0  0  0
    1.4265    3.0377    2.9233 H   0  0  0  0  0  0  0  0  0  0  0  0
    1.1511    3.7014    1.2950 H   0  0  0  0  0  0  0  0  0  0  0  0
  5  6  2  0  0  0  0
  5  7  1  0  0  0  0
  2  3  1  0  0  0  0
  2  4  1  0  0  0  0
  2  5  1  0  0  0  0
  1  2  1  0  0  0  0
 17 18  2  0  0  0  0
 17 19  1  0  0  0  0
 14 15  1  0  0  0  0
 14 16  2  0  0  0  0
 11 12  1  0  0  0  0
 11 13  1  0  0  0  0
 11 14  1  0  0  0  0
  9 10  1  0  0  0  0
  9 11  1  0  0  0  0
  9 17  1  0  0  0  0
  7  8  1  0  0  0  0
  7  9  1  0  0  0  0
 21 22  1  0  0  0  0
 21 23  1  0  0  0  0
 21 24  1  0  0  0  0
 19 20  1  0  0  0  0
 19 21  1  0  0  0  0
M  CHG  1  15  -1
M  END
$$$$
default_name
  -OEChem-02102213163D

 24 23  0     1  0  0  0  0  0999 V2000
   -2.8347   -3.7166    0.8034 H   0  0  0  0  0  0  0  0  0  0  0  0
   -2.7728   -2.7096    0.3954 C   0  0  0  0  0  0  0  0  0  0  0  0
   -3.4267   -2.0426    0.9524 H   0  0  0  0  0  0  0  0  0  0  0  0
   -3.0538   -2.7186   -0.6556 H   0  0  0  0  0  0  0  0  0  0  0  0
   -1.3498   -2.2206    0.5184 C   0  0  0  0  0  0  0  0  0  0  0  0
   -0.4997   -2.9426    1.0194 O   0  0  0  0  0  0  0  0  0  0  0  0
   -1.1198   -0.9926    0.0674 N   0  0  0  0  0  0  0  0  0  0  0  0
   -1.8978   -0.4486   -0.2716 H   0  0  0  0  0  0  0  0  0  0  0  0
    0.1693   -0.2866    0.0854 C   0  0  1  0  0  0  0  0  0  0  0  0
    0.8425   -0.7905    0.7811 H   0  0  0  0  0  0  0  0  0  0  0  0
    0.7993   -0.3404   -1.3233 C   0  0  0  0  0  0  0  0  0  0  0  0
    1.7609   -0.8524   -1.2576 H   0  0  0  0  0  0  0  0  0  0  0  0
    0.1520   -0.9300   -1.9760 H   0  0  0  0  0  0  0  0  0  0  0  0
    1.0477    1.0343   -1.9636 C   0  0  0  0  0  0  0  0  0  0  0  0
    1.2830    1.0885   -3.1938 O   0  5  0  0  0  0  0  0  0  0  0  0
    1.0187    2.0271   -1.2049 O   0  0  0  0  0  0  0  0  0  0  0  0
   -0.0374    1.1645    0.5781 C   0  0  0  0  0  0  0  0  0  0  0  0
   -0.9816    1.8416    0.1544 O   0  0  0  0  0  0  0  0  0  0  0  0
    0.8235    1.6462    1.4801 N   0  0  0  0  0  0  0  0  0  0  0  0
    1.6183    1.0435    1.7020 H   0  0  0  0  0  0  0  0  0  0  0  0
    0.7895    2.9929    2.0404 C   0  0  0  0  0  0  0  0  0  0  0  0
   -0.2344    3.2522    2.3130 H   0  0  0  0  0  0  0  0  0  0  0  0
    1.4265    3.0377    2.9233 H   0  0  0  0  0  0  0  0  0  0  0  0
    1.1511    3.7014    1.2950 H   0  0  0  0  0  0  0  0  0  0  0  0
  5  6  2  0  0  0  0
  5  7  1  0  0  0  0
  2  3  1  0  0  0  0
  2  4  1  0  0  0  0
  2  5  1  0  0  0  0
  1  2  1  0  0  0  0
 17 18  2  0  0  0  0
 17 19  1  0  0  0  0
 14 15  1  0  0  0  0
 14 16  2  0  0  0  0
 11 12  1  0  0  0  0
 11 13  1  0  0  0  0
 11 14  1  0  0  0  0
  9 10  1  0  0  0  0
  9 11  1  0  0  0  0
  9 17  1  0  0  0  0
  7  8  1  0  0  0  0
  7  9  1  0  0  0  0
 21 22  1  0  0  0  0
 21 23  1  0  0  0  0
 21 24  1  0  0  0  0
 19 20  1  0  0  0  0
 19 21  1  0  0  0  0
M  CHG  1  15  -1
M  END
$$$$
default_name
  -OEChem-02102213163D

 24 23  0     1  0  0  0  0  0999 V2000
   -2.8347   -3.7166    0.8034 H   0  0  0  0  0  0  0  0  0  0  0  0
   -2.7728   -2.7096    0.3954 C   0  0  0  0  0  0  0  0  0  0  0  0
   -3.4267   -2.0426    0.9524 H   0  0  0  0  0  0  0  0  0  0  0  0
   -3.0538   -2.7186   -0.6556 H   0  0  0  0  0  0  0  0  0  0  0  0
   -1.3498   -2.2206    0.5184 C   0  0  0  0  0  0  0  0  0  0  0  0
   -0.4997   -2.9426    1.0194 O   0  0  0  0  0  0  0  0  0  0  0  0
   -1.1198   -0.9926    0.0674 N   0  0  0  0  0  0  0  0  0  0  0  0
   -1.8978   -0.4486   -0.2716 H   0  0  0  0  0  0  0  0  0  0  0  0
    0.1693   -0.2866    0.0854 C   0  0  1  0  0  0  0  0  0  0  0  0
    0.8425   -0.7905    0.7811 H   0  0  0  0  0  0  0  0  0  0  0  0
    0.7993   -0.3404   -1.3233 C   0  0  0  0  0  0  0  0  0  0  0  0
    1.7609   -0.8524   -1.2576 H   0  0  0  0  0  0  0  0  0  0  0  0
    0.1520   -0.9300   -1.9760 H   0  0  0  0  0  0  0  0  0  0  0  0
    1.0477    1.0343   -1.9636 C   0  0  0  0  0  0  0  0  0  0  0  0
    0.9993    1.1310   -3.2125 O   0  5  0  0  0  0  0  0  0  0  0  0
    1.3055    1.9820   -1.1905 O   0  0  0  0  0  0  0  0  0  0  0  0
   -0.0374    1.1645    0.5781 C   0  0  0  0  0  0  0  0  0  0  0  0
   -0.9816    1.8416    0.1544 O   0  0  0  0  0  0  0  0  0  0  0  0
    0.8235    1.6462    1.4801 N   0  0  0  0  0  0  0  0  0  0  0  0
    1.6183    1.0435    1.7020 H   0  0  0  0  0  0  0  0  0  0  0  0
    0.7895    2.9929    2.0404 C   0  0  0  0  0  0  0  0  0  0  0  0
   -0.2344    3.2522    2.3130 H   0  0  0  0  0  0  0  0  0  0  0  0
    1.4265    3.0377    2.9233 H   0  0  0  0  0  0  0  0  0  0  0  0
    1.1511    3.7014    1.2950 H   0  0  0  0  0  0  0  0  0  0  0  0
  5  6  2  0  0  0  0
  5  7  1  0  0  0  0
  2  3  1  0  0  0  0
  2  4  1  0  0  0  0
  2  5  1  0  0  0  0
  1  2  1  0  0  0  0
 17 18  2  0  0  0  0
 17 19  1  0  0  0  0
 14 15  1  0  0  0  0
 14 16  2  0  0  0  0
 11 12  1  0  0  0  0
 11 13  1  0  0  0  0
 11 14  1  0  0  0  0
  9 10  1  0  0  0  0
  9 11  1  0  0  0  0
  9 17  1  0  0  0  0
  7  8  1  0  0  0  0
  7  9  1  0  0  0  0
 21 22  1  0  0  0  0
 21 23  1  0  0  0  0
 21 24  1  0  0  0  0
 19 20  1  0  0  0  0
 19 21  1  0  0  0  0
M  CHG  1  15  -1
M  END
$$$$
default_name
  -OEChem-02102213163D

 24 23  0     1  0  0  0  0  0999 V2000
   -2.8347   -3.7166    0.8034 H   0  0  0  0  0  0  0  0  0  0  0  0
   -2.7728   -2.7096    0.3954 C   0  0  0  0  0  0  0  0  0  0  0  0
   -3.4267   -2.0426    0.9524 H   0  0  0  0  0  0  0  0  0  0  0  0
   -3.0538   -2.7186   -0.6556 H   0  0  0  0  0  0  0  0  0  0  0  0
   -1.3498   -2.2206    0.5184 C   0  0  0  0  0  0  0  0  0  0  0  0
   -0.4997   -2.9426    1.0194 O   0  0  0  0  0  0  0  0  0  0  0  0
   -1.1198   -0.9926    0.0674 N   0  0  0  0  0  0  0  0  0  0  0  0
   -1.8978   -0.4486   -0.2716 H   0  0  0  0  0  0  0  0  0  0  0  0
    0.1693   -0.2866    0.0854 C   0  0  1  0  0  0  0  0  0  0  0  0
    0.8425   -0.7905    0.7811 H   0  0  0  0  0  0  0  0  0  0  0  0
    0.7993   -0.3404   -1.3233 C   0  0  0  0  0  0  0  0  0  0  0  0
    1.7609   -0.8524   -1.2576 H   0  0  0  0  0  0  0  0  0  0  0  0
    0.1520   -0.9300   -1.9760 H   0  0  0  0  0  0  0  0  0  0  0  0
    1.0477    1.0343   -1.9636 C   0  0  0  0  0  0  0  0  0  0  0  0
    0.7255    1.2034   -3.1632 O   0  5  0  0  0  0  0  0  0  0  0  0
    1.5810    1.9069   -1.2449 O   0  0  0  0  0  0  0  0  0  0  0  0
   -0.0374    1.1645    0.5781 C   0  0  0  0  0  0  0  0  0  0  0  0
   -0.9816    1.8416    0.1544 O   0  0  0  0  0  0  0  0  0  0  0  0
    0.8235    1.6462    1.4801 N   0  0  0  0  0  0  0  0  0  0  0  0
    1.6183    1.0435    1.7020 H   0  0  0  0  0  0  0  0  0  0  0  0
    0.7895    2.9929    2.0404 C   0  0  0  0  0  0  0  0  0  0  0  0
   -0.2344    3.2522    2.3130 H   0  0  0  0  0  0  0  0  0  0  0  0
    1.4265    3.0377    2.9233 H   0  0  0  0  0  0  0  0  0  0  0  0
    1.1511    3.7014    1.2950 H   0  0  0  0  0  0  0  0  0  0  0  0
  5  6  2  0  0  0  0
  5  7  1  0  0  0  0
  2  3  1  0  0  0  0
  2  4  1  0  0  0  0
  2  5  1  0  0  0  0
  1  2  1  0  0  0  0
 17 18  2  0  0  0  0
 17 19  1  0  0  0  0
 14 15  1  0  0  0  0
 14 16  2  0  0  0  0
 11 12  1  0  0  0  0
 11 13  1  0  0  0  0
 11 14  1  0  0  0  0
  9 10  1  0  0  0  0
  9 11  1  0  0  0  0
  9 17  1  0  0  0  0
  7  8  1  0  0  0  0
  7  9  1  0  0  0  0
 21 22  1  0  0  0  0
 21 23  1  0  0  0  0
 21 24  1  0  0  0  0
 19 20  1  0  0  0  0
 19 21  1  0  0  0  0
M  CHG  1  15  -1
M  END
$$$$
default_name
  -OEChem-02102213163D

 24 23  0     1  0  0  0  0  0999 V2000
   -2.8347   -3.7166    0.8034 H   0  0  0  0  0  0  0  0  0  0  0  0
   -2.7728   -2.7096    0.3954 C   0  0  0  0  0  0  0  0  0  0  0  0
   -3.4267   -2.0426    0.9524 H   0  0  0  0  0  0  0  0  0  0  0  0
   -3.0538   -2.7186   -0.6556 H   0  0  0  0  0  0  0  0  0  0  0  0
   -1.3498   -2.2206    0.5184 C   0  0  0  0  0  0  0  0  0  0  0  0
   -0.4997   -2.9426    1.0194 O   0  0  0  0  0  0  0  0  0  0  0  0
   -1.1198   -0.9926    0.0674 N   0  0  0  0  0  0  0  0  0  0  0  0
   -1.8978   -0.4486   -0.2716 H   0  0  0  0  0  0  0  0  0  0  0  0
    0.1693   -0.2866    0.0854 C   0  0  1  0  0  0  0  0  0  0  0  0
    0.8425   -0.7905    0.7811 H   0  0  0  0  0  0  0  0  0  0  0  0
    0.7993   -0.3404   -1.3233 C   0  0  0  0  0  0  0  0  0  0  0  0
    1.7609   -0.8524   -1.2576 H   0  0  0  0  0  0  0  0  0  0  0  0
    0.1520   -0.9300   -1.9760 H   0  0  0  0  0  0  0  0  0  0  0  0
    1.0477    1.0343   -1.9636 C   0  0  0  0  0  0  0  0  0  0  0  0
    0.4803    1.3009   -3.0492 O   0  5  0  0  0  0  0  0  0  0  0  0
    1.8265    1.8068   -1.3644 O   0  0  0  0  0  0  0  0  0  0  0  0
   -0.0374    1.1645    0.5781 C   0  0  0  0  0  0  0  0  0  0  0  0
   -0.9816    1.8416    0.1544 O   0  0  0  0  0  0  0  0  0  0  0  0
    0.8235    1.6462    1.4801 N   0  0  0  0  0  0  0  0  0  0  0  0
    1.6183    1.0435    1.7020 H   0  0  0  0  0  0  0  0  0  0  0  0
    0.7895    2.9929    2.0404 C   0  0  0  0  0  0  0  0  0  0  0  0
   -0.2344    3.2522    2.3130 H   0  0  0  0  0  0  0  0  0  0  0  0
    1.4265    3.0377    2.9233 H   0  0  0  0  0  0  0  0  0  0  0  0
    1.1511    3.7014    1.2950 H   0  0  0  0  0  0  0  0  0  0  0  0
  5  6  2  0  0  0  0
  5  7  1  0  0  0  0
  2  3  1  0  0  0  0
  2  4  1  0  0  0  0
  2  5  1  0  0  0  0
  1  2  1  0  0  0  0
 17 18  2  0  0  0  0
 17 19  1  0  0  0  0
 14 15  1  0  0  0  0
 14 16  2  0  0  0  0
 11 12  1  0  0  0  0
 11 13  1  0  0  0  0
 11 14  1  0  0  0  0
  9 10  1  0  0  0  0
  9 11  1  0  0  0  0
  9 17  1  0  0  0  0
  7  8  1  0  0  0  0
  7  9  1  0  0  0  0
 21 22  1  0  0  0  0
 21 23  1  0  0  0  0
 21 24  1  0  0  0  0
 19 20  1  0  0  0  0
 19 21  1  0  0  0  0
M  CHG  1  15  -1
M  END
$$$$
default_name
  -OEChem-02102213163D

 24 23  0     1  0  0  0  0  0999 V2000
   -2.8347   -3.7166    0.8034 H   0  0  0  0  0  0  0  0  0  0  0  0
   -2.7728   -2.7096    0.3954 C   0  0  0  0  0  0  0  0  0  0  0  0
   -3.4267   -2.0426    0.9524 H   0  0  0  0  0  0  0  0  0  0  0  0
   -3.0538   -2.7186   -0.6556 H   0  0  0  0  0  0  0  0  0  0  0  0
   -1.3498   -2.2206    0.5184 C   0  0  0  0  0  0  0  0  0  0  0  0
   -0.4997   -2.9426    1.0194 O   0  0  0  0  0  0  0  0  0  0  0  0
   -1.1198   -0.9926    0.0674 N   0  0  0  0  0  0  0  0  0  0  0  0
   -1.8978   -0.4486   -0.2716 H   0  0  0  0  0  0  0  0  0  0  0  0
    0.1693   -0.2866    0.0854 C   0  0  1  0  0  0  0  0  0  0  0  0
    0.8425   -0.7905    0.7811 H   0  0  0  0  0  0  0  0  0  0  0  0
    0.7993   -0.3404   -1.3233 C   0  0  0  0  0  0  0  0  0  0  0  0
    1.7609   -0.8524   -1.2576 H   0  0  0  0  0  0  0  0  0  0  0  0
    0.1520   -0.9300   -1.9760 H   0  0  0  0  0  0  0  0  0  0  0  0
    1.0477    1.0343   -1.9636 C   0  0  0  0  0  0  0  0  0  0  0  0
    0.2803    1.4167   -2.8782 O   0  5  0  0  0  0  0  0  0  0  0  0
    2.0251    1.6888   -1.5409 O   0  0  0  0  0  0  0  0  0  0  0  0
   -0.0374    1.1645    0.5781 C   0  0  0  0  0  0  0  0  0  0  0  0
   -0.9816    1.8416    0.1544 O   0  0  0  0  0  0  0  0  0  0  0  0
    0.8235    1.6462    1.4801 N   0  0  0  0  0  0  0  0  0  0  0  0
    1.6183    1.0435    1.7020 H   0  0  0  0  0  0  0  0  0  0  0  0
    0.7895    2.9929    2.0404 C   0  0  0  0  0  0  0  0  0  0  0  0
   -0.2344    3.2522    2.3130 H   0  0  0  0  0  0  0  0  0  0  0  0
    1.4265    3.0377    2.9233 H   0  0  0  0  0  0  0  0  0  0  0  0
    1.1511    3.7014    1.2950 H   0  0  0  0  0  0  0  0  0  0  0  0
  5  6  2  0  0  0  0
  5  7  1  0  0  0  0
  2  3  1  0  0  0  0
  2  4  1  0  0  0  0
  2  5  1  0  0  0  0
  1  2  1  0  0  0  0
 17 18  2  0  0  0  0
 17 19  1  0  0  0  0
 14 15  1  0  0  0  0
 14 16  2  0  0  0  0
 11 12  1  0  0  0  0
 11 13  1  0  0  0  0
 11 14  1  0  0  0  0
  9 10  1  0  0  0  0
  9 11  1  0  0  0  0
  9 17  1  0  0  0  0
  7  8  1  0  0  0  0
  7  9  1  0  0  0  0
 21 22  1  0  0  0  0
 21 23  1  0  0  0  0
 21 24  1  0  0  0  0
 19 20  1  0  0  0  0
 19 21  1  0  0  0  0
M  CHG  1  15  -1
M  END
$$$$
default_name
  -OEChem-02102213163D

 24 23  0     1  0  0  0  0  0999 V2000
   -2.8347   -3.7166    0.8034 H   0  0  0  0  0  0  0  0  0  0  0  0
   -2.7728   -2.7096    0.3954 C   0  0  0  0  0  0  0  0  0  0  0  0
   -3.4267   -2.0426    0.9524 H   0  0  0  0  0  0  0  0  0  0  0  0
   -3.0538   -2.7186   -0.6556 H   0  0  0  0  0  0  0  0  0  0  0  0
   -1.3498   -2.2206    0.5184 C   0  0  0  0  0  0  0  0  0  0  0  0
   -0.4997   -2.9426    1.0194 O   0  0  0  0  0  0  0  0  0  0  0  0
   -1.1198   -0.9926    0.0674 N   0  0  0  0  0  0  0  0  0  0  0  0
   -1.8978   -0.4486   -0.2716 H   0  0  0  0  0  0  0  0  0  0  0  0
    0.1693   -0.2866    0.0854 C   0  0  1  0  0  0  0  0  0  0  0  0
    0.8425   -0.7905    0.7811 H   0  0  0  0  0  0  0  0  0  0  0  0
    0.7993   -0.3404   -1.3233 C   0  0  0  0  0  0  0  0  0  0  0  0
    1.7609   -0.8524   -1.2576 H   0  0  0  0  0  0  0  0  0  0  0  0
    0.1520   -0.9300   -1.9760 H   0  0  0  0  0  0  0  0  0  0  0  0
    1.0477    1.0343   -1.9636 C   0  0  0  0  0  0  0  0  0  0  0  0
    0.1392    1.5429   -2.6618 O   0  5  0  0  0  0  0  0  0  0  0  0
    2.1633    1.5607   -1.7623 O   0  0  0  0  0  0  0  0  0  0  0  0
   -0.0374    1.1645    0.5781 C   0  0  0  0  0  0  0  0  0  0  0  0
   -0.9816    1.8416    0.1544 O   0  0  0  0  0  0  0  0  0  0  0  0
    0.8235    1.6462    1.4801 N   0  0  0  0  0  0  0  0  0  0  0  0
    1.6183    1.0435    1.7020 H   0  0  0  0  0  0  0  0  0  0  0  0
    0.7895    2.9929    2.0404 C   0  0  0  0  0  0  0  0  0  0  0  0
   -0.2344    3.2522    2.3130 H   0  0  0  0  0  0  0  0  0  0  0  0
    1.4265    3.0377    2.9233 H   0  0  0  0  0  0  0  0  0  0  0  0
    1.1511    3.7014    1.2950 H   0  0  0  0  0  0  0  0  0  0  0  0
  5  6  2  0  0  0  0
  5  7  1  0  0  0  0
  2  3  1  0  0  0  0
  2  4  1  0  0  0  0
  2  5  1  0  0  0  0
  1  2  1  0  0  0  0
 17 18  2  0  0  0  0
 17 19  1  0  0  0  0
 14 15  1  0  0  0  0
 14 16  2  0  0  0  0
 11 12  1  0  0  0  0
 11 13  1  0  0  0  0
 11 14  1  0  0  0  0
  9 10  1  0  0  0  0
  9 11  1  0  0  0  0
  9 17  1  0  0  0  0
  7  8  1  0  0  0  0
  7  9  1  0  0  0  0
 21 22  1  0  0  0  0
 21 23  1  0  0  0  0
 21 24  1  0  0  0  0
 19 20  1  0  0  0  0
 19 21  1  0  0  0  0
M  CHG  1  15  -1
M  END
$$$$
default_name
  -OEChem-02102213163D

 24 23  0     1  0  0  0  0  0999 V2000
   -2.8347   -3.7166    0.8034 H   0  0  0  0  0  0  0  0  0  0  0  0
   -2.7728   -2.7096    0.3954 C   0  0  0  0  0  0  0  0  0  0  0  0
   -3.4267   -2.0426    0.9524 H   0  0  0  0  0  0  0  0  0  0  0  0
   -3.0538   -2.7186   -0.6556 H   0  0  0  0  0  0  0  0  0  0  0  0
   -1.3498   -2.2206    0.5184 C   0  0  0  0  0  0  0  0  0  0  0  0
   -0.4997   -2.9426    1.0194 O   0  0  0  0  0  0  0  0  0  0  0  0
   -1.1198   -0.9926    0.0674 N   0  0  0  0  0  0  0  0  0  0  0  0
   -1.8978   -0.4486   -0.2716 H   0  0  0  0  0  0  0  0  0  0  0  0
    0.1693   -0.2866    0.0854 C   0  0  1  0  0  0  0  0  0  0  0  0
    0.8425   -0.7905    0.7811 H   0  0  0  0  0  0  0  0  0  0  0  0
    0.7993   -0.3404   -1.3233 C   0  0  0  0  0  0  0  0  0  0  0  0
    1.7609   -0.8524   -1.2576 H   0  0  0  0  0  0  0  0  0  0  0  0
    0.1520   -0.9300   -1.9760 H   0  0  0  0  0  0  0  0  0  0  0  0
    1.0477    1.0343   -1.9636 C   0  0  0  0  0  0  0  0  0  0  0  0
    0.0667    1.6711   -2.4149 O   0  5  0  0  0  0  0  0  0  0  0  0
    2.2318    1.4313   -2.0135 O   0  0  0  0  0  0  0  0  0  0  0  0
   -0.0374    1.1645    0.5781 C   0  0  0  0  0  0  0  0  0  0  0  0
   -0.9816    1.8416    0.1544 O   0  0  0  0  0  0  0  0  0  0  0  0
    0.8235    1.6462    1.4801 N   0  0  0  0  0  0  0  0  0  0  0  0
    1.6183    1.0435    1.7020 H   0  0  0  0  0  0  0  0  0  0  0  0
    0.7895    2.9929    2.0404 C   0  0  0  0  0  0  0  0  0  0  0  0
   -0.2344    3.2522    2.3130 H   0  0  0  0  0  0  0  0  0  0  0  0
    1.4265    3.0377    2.9233 H   0  0  0  0  0  0  0  0  0  0  0  0
    1.1511    3.7014    1.2950 H   0  0  0  0  0  0  0  0  0  0  0  0
  5  6  2  0  0  0  0
  5  7  1  0  0  0  0
  2  3  1  0  0  0  0
  2  4  1  0  0  0  0
  2  5  1  0  0  0  0
  1  2  1  0  0  0  0
 17 18  2  0  0  0  0
 17 19  1  0  0  0  0
 14 15  1  0  0  0  0
 14 16  2  0  0  0  0
 11 12  1  0  0  0  0
 11 13  1  0  0  0  0
 11 14  1  0  0  0  0
  9 10  1  0  0  0  0
  9 11  1  0  0  0  0
  9 17  1  0  0  0  0
  7  8  1  0  0  0  0
  7  9  1  0  0  0  0
 21 22  1  0  0  0  0
 21 23  1  0  0  0  0
 21 24  1  0  0  0  0
 19 20  1  0  0  0  0
 19 21  1  0  0  0  0
M  CHG  1  15  -1
M  END
$$$$
default_name
  -OEChem-02102213163D

 24 23  0     1  0  0  0  0  0999 V2000
   -2.8347   -3.7166    0.8034 H   0  0  0  0  0  0  0  0  0  0  0  0
   -2.7728   -2.7096    0.3954 C   0  0  0  0  0  0  0  0  0  0  0  0
   -3.4267   -2.0426    0.9524 H   0  0  0  0  0  0  0  0  0  0  0  0
   -3.0538   -2.7186   -0.6556 H   0  0  0  0  0  0  0  0  0  0  0  0
   -1.3498   -2.2206    0.5184 C   0  0  0  0  0  0  0  0  0  0  0  0
   -0.4997   -2.9426    1.0194 O   0  0  0  0  0  0  0  0  0  0  0  0
   -1.1198   -0.9926    0.0674 N   0  0  0  0  0  0  0  0  0  0  0  0
   -1.8978   -0.4486   -0.2716 H   0  0  0  0  0  0  0  0  0  0  0  0
    0.1693   -0.2866    0.0854 C   0  0  1  0  0  0  0  0  0  0  0  0
    0.8425   -0.7905    0.7811 H   0  0  0  0  0  0  0  0  0  0  0  0
    0.7993   -0.3404   -1.3233 C   0  0  0  0  0  0  0  0  0  0  0  0
    1.7609   -0.8524   -1.2576 H   0  0  0  0  0  0  0  0  0  0  0  0
    0.1520   -0.9300   -1.9760 H   0  0  0  0  0  0  0  0  0  0  0  0
    1.0477    1.0343   -1.9636 C   0  0  0  0  0  0  0  0  0  0  0  0
    0.0676    1.7923   -2.1542 O   0  5  0  0  0  0  0  0  0  0  0  0
    2.2259    1.3095   -2.2774 O   0  0  0  0  0  0  0  0  0  0  0  0
   -0.0374    1.1645    0.5781 C   0  0  0  0  0  0  0  0  0  0  0  0
   -0.9816    1.8416    0.1544 O   0  0  0  0  0  0  0  0  0  0  0  0
    0.8235    1.6462    1.4801 N   0  0  0  0  0  0  0  0  0  0  0  0
    1.6183    1.0435    1.7020 H   0  0  0  0  0  0  0  0  0  0  0  0
    0.7895    2.9929    2.0404 C   0  0  0  0  0  0  0  0  0  0  0  0
   -0.2344    3.2522    2.3130 H   0  0  0  0  0  0  0  0  0  0  0  0
    1.4265    3.0377    2.9233 H   0  0  0  0  0  0  0  0  0  0  0  0
    1.1511    3.7014    1.2950 H   0  0  0  0  0  0  0  0  0  0  0  0
  5  6  2  0  0  0  0
  5  7  1  0  0  0  0
  2  3  1  0  0  0  0
  2  4  1  0  0  0  0
  2  5  1  0  0  0  0
  1  2  1  0  0  0  0
 17 18  2  0  0  0  0
 17 19  1  0  0  0  0
 14 15  1  0  0  0  0
 14 16  2  0  0  0  0
 11 12  1  0  0  0  0
 11 13  1  0  0  0  0
 11 14  1  0  0  0  0
  9 10  1  0  0  0  0
  9 11  1  0  0  0  0
  9 17  1  0  0  0  0
  7  8  1  0  0  0  0
  7  9  1  0  0  0  0
 21 22  1  0  0  0  0
 21 23  1  0  0  0  0
 21 24  1  0  0  0  0
 19 20  1  0  0  0  0
 19 21  1  0  0  0  0
M  CHG  1  15  -1
M  END
$$$$
default_name
  -OEChem-02102213163D

 24 23  0     1  0  0  0  0  0999 V2000
   -2.8347   -3.7166    0.8034 H   0  0  0  0  0  0  0  0  0  0  0  0
   -2.7728   -2.7096    0.3954 C   0  0  0  0  0  0  0  0  0  0  0  0
   -3.4267   -2.0426    0.9524 H   0  0  0  0  0  0  0  0  0  0  0  0
   -3.0538   -2.7186   -0.6556 H   0  0  0  0  0  0  0  0  0  0  0  0
   -1.3498   -2.2206    0.5184 C   0  0  0  0  0  0  0  0  0  0  0  0
   -0.4997   -2.9426    1.0194 O   0  0  0  0  0  0  0  0  0  0  0  0
   -1.1198   -0.9926    0.0674 N   0  0  0  0  0  0  0  0  0  0  0  0
   -1.8978   -0.4486   -0.2716 H   0  0  0  0  0  0  0  0  0  0  0  0
    0.1693   -0.2866    0.0854 C   0  0  1  0  0  0  0  0  0  0  0  0
    0.8425   -0.7905    0.7811 H   0  0  0  0  0  0  0  0  0  0  0  0
    0.7993   -0.3404   -1.3233 C   0  0  0  0  0  0  0  0  0  0  0  0
    1.7609   -0.8524   -1.2576 H   0  0  0  0  0  0  0  0  0  0  0  0
    0.1520   -0.9300   -1.9760 H   0  0  0  0  0  0  0  0  0  0  0  0
    1.0477    1.0343   -1.9636 C   0  0  0  0  0  0  0  0  0  0  0  0
    0.1418    1.8984   -1.8976 O   0  5  0  0  0  0  0  0  0  0  0  0
    2.1459    1.2035   -2.5360 O   0  0  0  0  0  0  0  0  0  0  0  0
   -0.0374    1.1645    0.5781 C   0  0  0  0  0  0  0  0  0  0  0  0
   -0.9816    1.8416    0.1544 O   0  0  0  0  0  0  0  0  0  0  0  0
    0.8235    1.6462    1.4801 N   0  0  0  0  0  0  0  0  0  0  0  0
    1.6183    1.0435    1.7020 H   0  0  0  0  0  0  0  0  0  0  0  0
    0.7895    2.9929    2.0404 C   0  0  0  0  0  0  0  0  0  0  0  0
   -0.2344    3.2522    2.3130 H   0  0  0  0  0  0  0  0  0  0  0  0
    1.4265    3.0377    2.9233 H   0  0  0  0  0  0  0  0  0  0  0  0
    1.1511    3.7014    1.2950 H   0  0  0  0  0  0  0  0  0  0  0  0
  5  6  2  0  0  0  0
  5  7  1  0  0  0  0
  2  3  1  0  0  0  0
  2  4  1  0  0  0  0
  2  5  1  0  0  0  0
  1  2  1  0  0  0  0
 17 18  2  0  0  0  0
 17 19  1  0  0  0  0
 14 15  1  0  0  0  0
 14 16  2  0  0  0  0
 11 12  1  0  0  0  0
 11 13  1  0  0  0  0
 11 14  1  0  0  0  0
  9 10  1  0  0  0  0
  9 11  1  0  0  0  0
  9 17  1  0  0  0  0
  7  8  1  0  0  0  0
  7  9  1  0  0  0  0
 21 22  1  0  0  0  0
 21 23  1  0  0  0  0
 21 24  1  0  0  0  0
 19 20  1  0  0  0  0
 19 21  1  0  0  0  0
M  CHG  1  15  -1
M  END
$$$$
default_name
  -OEChem-02102213163D

 24 23  0     1  0  0  0  0  0999 V2000
   -2.8347   -3.7166    0.8034 H   0  0  0  0  0  0  0  0  0  0  0  0
   -2.7728   -2.7096    0.3954 C   0  0  0  0  0  0  0  0  0  0  0  0
   -3.4267   -2.0426    0.9524 H   0  0  0  0  0  0  0  0  0  0  0  0
   -3.0538   -2.7186   -0.6556 H   0  0  0  0  0  0  0  0  0  0  0  0
   -1.3498   -2.2206    0.5184 C   0  0  0  0  0  0  0  0  0  0  0  0
   -0.4997   -2.9426    1.0194 O   0  0  0  0  0  0  0  0  0  0  0  0
   -1.1198   -0.9926    0.0674 N   0  0  0  0  0  0  0  0  0  0  0  0
   -1.8978   -0.4486   -0.2716 H   0  0  0  0  0  0  0  0  0  0  0  0
    0.1693   -0.2866    0.0854 C   0  0  1  0  0  0  0  0  0  0  0  0
    0.8425   -0.7905    0.7811 H   0  0  0  0  0  0  0  0  0  0  0  0
    0.7993   -0.3404   -1.3233 C   0  0  0  0  0  0  0  0  0  0  0  0
    1.7609   -0.8524   -1.2576 H   0  0  0  0  0  0  0  0  0  0  0  0
    0.1520   -0.9300   -1.9760 H   0  0  0  0  0  0  0  0  0  0  0  0
    1.0477    1.0343   -1.9636 C   0  0  0  0  0  0  0  0  0  0  0  0
    0.2845    1.9822   -1.6624 O   0  5  0  0  0  0  0  0  0  0  0  0
    1.9973    1.1205   -2.7717 O   0  0  0  0  0  0  0  0  0  0  0  0
   -0.0374    1.1645    0.5781 C   0  0  0  0  0  0  0  0  0  0  0  0
   -0.9816    1.8416    0.1544 O   0  0  0  0  0  0  0  0  0  0  0  0
    0.8235    1.6462    1.4801 N   0  0  0  0  0  0  0  0  0  0  0  0
    1.6183    1.0435    1.7020 H   0  0  0  0  0  0  0  0  0  0  0  0
    0.7895    2.9929    2.0404 C   0  0  0  0  0  0  0  0  0  0  0  0
   -0.2344    3.2522    2.3130 H   0  0  0  0  0  0  0  0  0  0  0  0
    1.4265    3.0377    2.9233 H   0  0  0  0  0  0  0  0  0  0  0  0
    1.1511    3.7014    1.2950 H   0  0  0  0  0  0  0  0  0  0  0  0
  5  6  2  0  0  0  0
  5  7  1  0  0  0  0
  2  3  1  0  0  0  0
  2  4  1  0  0  0  0
  2  5  1  0  0  0  0
  1  2  1  0  0  0  0
 17 18  2  0  0  0  0
 17 19  1  0  0  0  0
 14 15  1  0  0  0  0
 14 16  2  0  0  0  0
 11 12  1  0  0  0  0
 11 13  1  0  0  0  0
 11 14  1  0  0  0  0
  9 10  1  0  0  0  0
  9 11  1  0  0  0  0
  9 17  1  0  0  0  0
  7  8  1  0  0  0  0
  7  9  1  0  0  0  0
 21 22  1  0  0  0  0
 21 23  1  0  0  0  0
 21 24  1  0  0  0  0
 19 20  1  0  0  0  0
 19 21  1  0  0  0  0
M  CHG  1  15  -1
M  END
$$$$
default_name
  -OEChem-02102213163D

 24 23  0     1  0  0  0  0  0999 V2000
   -2.8347   -3.7166    0.8034 H   0  0  0  0  0  0  0  0  0  0  0  0
   -2.7728   -2.7096    0.3954 C   0  0  0  0  0  0  0  0  0  0  0  0
   -3.4267   -2.0426    0.9524 H   0  0  0  0  0  0  0  0  0  0  0  0
   -3.0538   -2.7186   -0.6556 H   0  0  0  0  0  0  0  0  0  0  0  0
   -1.3498   -2.2206    0.5184 C   0  0  0  0  0  0  0  0  0  0  0  0
   -0.4997   -2.9426    1.0194 O   0  0  0  0  0  0  0  0  0  0  0  0
   -1.1198   -0.9926    0.0674 N   0  0  0  0  0  0  0  0  0  0  0  0
   -1.8978   -0.4486   -0.2716 H   0  0  0  0  0  0  0  0  0  0  0  0
    0.1693   -0.2866    0.0854 C   0  0  1  0  0  0  0  0  0  0  0  0
    0.8425   -0.7905    0.7811 H   0  0  0  0  0  0  0  0  0  0  0  0
    0.7993   -0.3404   -1.3233 C   0  0  0  0  0  0  0  0  0  0  0  0
    1.7609   -0.8524   -1.2576 H   0  0  0  0  0  0  0  0  0  0  0  0
    0.1520   -0.9300   -1.9760 H   0  0  0  0  0  0  0  0  0  0  0  0
    1.0477    1.0343   -1.9636 C   0  0  0  0  0  0  0  0  0  0  0  0
    0.4857    2.0378   -1.4648 O   0  5  0  0  0  0  0  0  0  0  0  0
    1.7902    1.0663   -2.9685 O   0  0  0  0  0  0  0  0  0  0  0  0
   -0.0374    1.1645    0.5781 C   0  0  0  0  0  0  0  0  0  0  0  0
   -0.9816    1.8416    0.1544 O   0  0  0  0  0  0  0  0  0  0  0  0
    0.8235    1.6462    1.4801 N   0  0  0  0  0  0  0  0  0  0  0  0
    1.6183    1.0435    1.7020 H   0  0  0  0  0  0  0  0  0  0  0  0
    0.7895    2.9929    2.0404 C   0  0  0  0  0  0  0  0  0  0  0  0
   -0.2344    3.2522    2.3130 H   0  0  0  0  0  0  0  0  0  0  0  0
    1.4265    3.0377    2.9233 H   0  0  0  0  0  0  0  0  0  0  0  0
    1.1511    3.7014    1.2950 H   0  0  0  0  0  0  0  0  0  0  0  0
  5  6  2  0  0  0  0
  5  7  1  0  0  0  0
  2  3  1  0  0  0  0
  2  4  1  0  0  0  0
  2  5  1  0  0  0  0
  1  2  1  0  0  0  0
 17 18  2  0  0  0  0
 17 19  1  0  0  0  0
 14 15  1  0  0  0  0
 14 16  2  0  0  0  0
 11 12  1  0  0  0  0
 11 13  1  0  0  0  0
 11 14  1  0  0  0  0
  9 10  1  0  0  0  0
  9 11  1  0  0  0  0
  9 17  1  0  0  0  0
  7  8  1  0  0  0  0
  7  9  1  0  0  0  0
 21 22  1  0  0  0  0
 21 23  1  0  0  0  0
 21 24  1  0  0  0  0
 19 20  1  0  0  0  0
 19 21  1  0  0  0  0
M  CHG  1  15  -1
M  END
$$$$
default_name
  -OEChem-02102213163D

 24 23  0     1  0  0  0  0  0999 V2000
   -2.8347   -3.7166    0.8034 H   0  0  0  0  0  0  0  0  0  0  0  0
   -2.7728   -2.7096    0.3954 C   0  0  0  0  0  0  0  0  0  0  0  0
   -3.4267   -2.0426    0.9524 H   0  0  0  0  0  0  0  0  0  0  0  0
   -3.0538   -2.7186   -0.6556 H   0  0  0  0  0  0  0  0  0  0  0  0
   -1.3498   -2.2206    0.5184 C   0  0  0  0  0  0  0  0  0  0  0  0
   -0.4997   -2.9426    1.0194 O   0  0  0  0  0  0  0  0  0  0  0  0
   -1.1198   -0.9926    0.0674 N   0  0  0  0  0  0  0  0  0  0  0  0
   -1.8978   -0.4486   -0.2716 H   0  0  0  0  0  0  0  0  0  0  0  0
    0.1693   -0.2866    0.0854 C   0  0  1  0  0  0  0  0  0  0  0  0
    0.8425   -0.7905    0.7811 H   0  0  0  0  0  0  0  0  0  0  0  0
    0.7993   -0.3404   -1.3233 C   0  0  0  0  0  0  0  0  0  0  0  0
    1.7609   -0.8524   -1.2576 H   0  0  0  0  0  0  0  0  0  0  0  0
    0.1520   -0.9300   -1.9760 H   0  0  0  0  0  0  0  0  0  0  0  0
    1.0477    1.0343   -1.9636 C   0  0  0  0  0  0  0  0  0  0  0  0
    0.7319    2.0617   -1.3182 O   0  5  0  0  0  0  0  0  0  0  0  0
    1.5388    1.0445   -3.1129 O   0  0  0  0  0  0  0  0  0  0  0  0
   -0.0374    1.1645    0.5781 C   0  0  0  0  0  0  0  0  0  0  0  0
   -0.9816    1.8416    0.1544 O   0  0  0  0  0  0  0  0  0  0  0  0
    0.8235    1.6462    1.4801 N   0  0  0  0  0  0  0  0  0  0  0  0
    1.6183    1.0435    1.7020 H   0  0  0  0  0  0  0  0  0  0  0  0
    0.7895    2.9929    2.0404 C   0  0  0  0  0  0  0  0  0  0  0  0
   -0.2344    3.2522    2.3130 H   0  0  0  0  0  0  0  0  0  0  0  0
    1.4265    3.0377    2.9233 H   0  0  0  0  0  0  0  0  0  0  0  0
    1.1511    3.7014    1.2950 H   0  0  0  0  0  0  0  0  0  0  0  0
  5  6  2  0  0  0  0
  5  7  1  0  0  0  0
  2  3  1  0  0  0  0
  2  4  1  0  0  0  0
  2  5  1  0  0  0  0
  1  2  1  0  0  0  0
 17 18  2  0  0  0  0
 17 19  1  0  0  0  0
 14 15  1  0  0  0  0
 14 16  2  0  0  0  0
 11 12  1  0  0  0  0
 11 13  1  0  0  0  0
 11 14  1  0  0  0  0
  9 10  1  0  0  0  0
  9 11  1  0  0  0  0
  9 17  1  0  0  0  0
  7  8  1  0  0  0  0
  7  9  1  0  0  0  0
 21 22  1  0  0  0  0
 21 23  1  0  0  0  0
 21 24  1  0  0  0  0
 19 20  1  0  0  0  0
 19 21  1  0  0  0  0
M  CHG  1  15  -1
M  END
$$$$
default_name
  -OEChem-02102213163D

 24 23  0     1  0  0  0  0  0999 V2000
   -2.8347   -3.7166    0.8034 H   0  0  0  0  0  0  0  0  0  0  0  0
   -2.7728   -2.7096    0.3954 C   0  0  0  0  0  0  0  0  0  0  0  0
   -3.4267   -2.0426    0.9524 H   0  0  0  0  0  0  0  0  0  0  0  0
   -3.0538   -2.7186   -0.6556 H   0  0  0  0  0  0  0  0  0  0  0  0
   -1.3498   -2.2206    0.5184 C   0  0  0  0  0  0  0  0  0  0  0  0
   -0.4997   -2.9426    1.0194 O   0  0  0  0  0  0  0  0  0  0  0  0
   -1.1198   -0.9926    0.0674 N   0  0  0  0  0  0  0  0  0  0  0  0
   -1.8978   -0.4486   -0.2716 H   0  0  0  0  0  0  0  0  0  0  0  0
    0.1693   -0.2866    0.0854 C   0  0  1  0  0  0  0  0  0  0  0  0
    0.8425   -0.7905    0.7811 H   0  0  0  0  0  0  0  0  0  0  0  0
    0.7993   -0.3404   -1.3233 C   0  0  0  0  0  0  0  0  0  0  0  0
    1.7609   -0.8524   -1.2576 H   0  0  0  0  0  0  0  0  0  0  0  0
    0.1520   -0.9300   -1.9760 H   0  0  0  0  0  0  0  0  0  0  0  0
    1.0477    1.0343   -1.9636 C   0  0  0  0  0  0  0  0  0  0  0  0
    1.0061    2.0520   -1.2326 O   0  5  0  0  0  0  0  0  0  0  0  0
    1.2602    1.0565   -3.1950 O   0  0  0  0  0  0  0  0  0  0  0  0
   -0.0374    1.1645    0.5781 C   0  0  0  0  0  0  0  0  0  0  0  0
   -0.9816    1.8416    0.1544 O   0  0  0  0  0  0  0  0  0  0  0  0
    0.8235    1.6462    1.4801 N   0  0  0  0  0  0  0  0  0  0  0  0
    1.6183    1.0435    1.7020 H   0  0  0  0  0  0  0  0  0  0  0  0
    0.7895    2.9929    2.0404 C   0  0  0  0  0  0  0  0  0  0  0  0
   -0.2344    3.2522    2.3130 H   0  0  0  0  0  0  0  0  0  0  0  0
    1.4265    3.0377    2.9233 H   0  0  0  0  0  0  0  0  0  0  0  0
    1.1511    3.7014    1.2950 H   0  0  0  0  0  0  0  0  0  0  0  0
  5  6  2  0  0  0  0
  5  7  1  0  0  0  0
  2  3  1  0  0  0  0
  2  4  1  0  0  0  0
  2  5  1  0  0  0  0
  1  2  1  0  0  0  0
 17 18  2  0  0  0  0
 17 19  1  0  0  0  0
 14 15  1  0  0  0  0
 14 16  2  0  0  0  0
 11 12  1  0  0  0  0
 11 13  1  0  0  0  0
 11 14  1  0  0  0  0
  9 10  1  0  0  0  0
  9 11  1  0  0  0  0
  9 17  1  0  0  0  0
  7  8  1  0  0  0  0
  7  9  1  0  0  0  0
 21 22  1  0  0  0  0
 21 23  1  0  0  0  0
 21 24  1  0  0  0  0
 19 20  1  0  0  0  0
 19 21  1  0  0  0  0
M  CHG  1  15  -1
M  END
$$$$
default_name
  -OEChem-02102213163D

 24 23  0     1  0  0  0  0  0999 V2000
   -2.8347   -3.7166    0.8034 H   0  0  0  0  0  0  0  0  0  0  0  0
   -2.7728   -2.7096    0.3954 C   0  0  0  0  0  0  0  0  0  0  0  0
   -3.4267   -2.0426    0.9524 H   0  0  0  0  0  0  0  0  0  0  0  0
   -3.0538   -2.7186   -0.6556 H   0  0  0  0  0  0  0  0  0  0  0  0
   -1.3498   -2.2206    0.5184 C   0  0  0  0  0  0  0  0  0  0  0  0
   -0.4997   -2.9426    1.0194 O   0  0  0  0  0  0  0  0  0  0  0  0
   -1.1198   -0.9926    0.0674 N   0  0  0  0  0  0  0  0  0  0  0  0
   -1.8978   -0.4486   -0.2716 H   0  0  0  0  0  0  0  0  0  0  0  0
    0.1693   -0.2866    0.0854 C   0  0  1  0  0  0  0  0  0  0  0  0
    0.8425   -0.7905    0.7811 H   0  0  0  0  0  0  0  0  0  0  0  0
    0.7993   -0.3404   -1.3233 C   0  0  0  0  0  0  0  0  0  0  0  0
    1.7609   -0.8524   -1.2576 H   0  0  0  0  0  0  0  0  0  0  0  0
    0.1520   -0.9300   -1.9760 H   0  0  0  0  0  0  0  0  0  0  0  0
    1.0477    1.0343   -1.9636 C   0  0  0  0  0  0  0  0  0  0  0  0
    1.2898    2.0095   -1.2138 O   0  5  0  0  0  0  0  0  0  0  0  0
    0.9734    1.1017   -3.2094 O   0  0  0  0  0  0  0  0  0  0  0  0
   -0.0374    1.1645    0.5781 C   0  0  0  0  0  0  0  0  0  0  0  0
   -0.9816    1.8416    0.1544 O   0  0  0  0  0  0  0  0  0  0  0  0
    0.8235    1.6462    1.4801 N   0  0  0  0  0  0  0  0  0  0  0  0
    1.6183    1.0435    1.7020 H   0  0  0  0  0  0  0  0  0  0  0  0
    0.7895    2.9929    2.0404 C   0  0  0  0  0  0  0  0  0  0  0  0
   -0.2344    3.2522    2.3130 H   0  0  0  0  0  0  0  0  0  0  0  0
    1.4265    3.0377    2.9233 H   0  0  0  0  0  0  0  0  0  0  0  0
    1.1511    3.7014    1.2950 H   0  0  0  0  0  0  0  0  0  0  0  0
  5  6  2  0  0  0  0
  5  7  1  0  0  0  0
  2  3  1  0  0  0  0
  2  4  1  0  0  0  0
  2  5  1  0  0  0  0
  1  2  1  0  0  0  0
 17 18  2  0  0  0  0
 17 19  1  0  0  0  0
 14 15  1  0  0  0  0
 14 16  2  0  0  0  0
 11 12  1  0  0  0  0
 11 13  1  0  0  0  0
 11 14  1  0  0  0  0
  9 10  1  0  0  0  0
  9 11  1  0  0  0  0
  9 17  1  0  0  0  0
  7  8  1  0  0  0  0
  7  9  1  0  0  0  0
 21 22  1  0  0  0  0
 21 23  1  0  0  0  0
 21 24  1  0  0  0  0
 19 20  1  0  0  0  0
 19 21  1  0  0  0  0
M  CHG  1  15  -1
M  END
$$$$
default_name
  -OEChem-02102213163D

 24 23  0     1  0  0  0  0  0999 V2000
   -2.8347   -3.7166    0.8034 H   0  0  0  0  0  0  0  0  0  0  0  0
   -2.7728   -2.7096    0.3954 C   0  0  0  0  0  0  0  0  0  0  0  0
   -3.4267   -2.0426    0.9524 H   0  0  0  0  0  0  0  0  0  0  0  0
   -3.0538   -2.7186   -0.6556 H   0  0  0  0  0  0  0  0  0  0  0  0
   -1.3498   -2.2206    0.5184 C   0  0  0  0  0  0  0  0  0  0  0  0
   -0.4997   -2.9426    1.0194 O   0  0  0  0  0  0  0  0  0  0  0  0
   -1.1198   -0.9926    0.0674 N   0  0  0  0  0  0  0  0  0  0  0  0
   -1.8978   -0.4486   -0.2716 H   0  0  0  0  0  0  0  0  0  0  0  0
    0.1693   -0.2866    0.0854 C   0  0  1  0  0  0  0  0  0  0  0  0
    0.8425   -0.7905    0.7811 H   0  0  0  0  0  0  0  0  0  0  0  0
    0.7993   -0.3404   -1.3233 C   0  0  0  0  0  0  0  0  0  0  0  0
    1.7609   -0.8524   -1.2576 H   0  0  0  0  0  0  0  0  0  0  0  0
    0.1520   -0.9300   -1.9760 H   0  0  0  0  0  0  0  0  0  0  0  0
    1.0477    1.0343   -1.9636 C   0  0  0  0  0  0  0  0  0  0  0  0
    1.5636    1.9370   -1.2631 O   0  5  0  0  0  0  0  0  0  0  0  0
    0.6978    1.1768   -3.1550 O   0  0  0  0  0  0  0  0  0  0  0  0
   -0.0374    1.1645    0.5781 C   0  0  0  0  0  0  0  0  0  0  0  0
   -0.9816    1.8416    0.1544 O   0  0  0  0  0  0  0  0  0  0  0  0
    0.8235    1.6462    1.4801 N   0  0  0  0  0  0  0  0  0  0  0  0
    1.6183    1.0435    1.7020 H   0  0  0  0  0  0  0  0  0  0  0  0
    0.7895    2.9929    2.0404 C   0  0  0  0  0  0  0  0  0  0  0  0
   -0.2344    3.2522    2.3130 H   0  0  0  0  0  0  0  0  0  0  0  0
    1.4265    3.0377    2.9233 H   0  0  0  0  0  0  0  0  0  0  0  0
    1.1511    3.7014    1.2950 H   0  0  0  0  0  0  0  0  0  0  0  0
  5  6  2  0  0  0  0
  5  7  1  0  0  0  0
  2  3  1  0  0  0  0
  2  4  1  0  0  0  0
  2  5  1  0  0  0  0
  1  2  1  0  0  0  0
 17 18  2  0  0  0  0
 17 19  1  0  0  0  0
 14 15  1  0  0  0  0
 14 16  2  0  0  0  0
 11 12  1  0  0  0  0
 11 13  1  0  0  0  0
 11 14  1  0  0  0  0
  9 10  1  0  0  0  0
  9 11  1  0  0  0  0
  9 17  1  0  0  0  0
  7  8  1  0  0  0  0
  7  9  1  0  0  0  0
 21 22  1  0  0  0  0
 21 23  1  0  0  0  0
 21 24  1  0  0  0  0
 19 20  1  0  0  0  0
 19 21  1  0  0  0  0
M  CHG  1  15  -1
M  END
$$$$
default_name
  -OEChem-02102213163D

 24 23  0     1  0  0  0  0  0999 V2000
   -2.8347   -3.7166    0.8034 H   0  0  0  0  0  0  0  0  0  0  0  0
   -2.7728   -2.7096    0.3954 C   0  0  0  0  0  0  0  0  0  0  0  0
   -3.4267   -2.0426    0.9524 H   0  0  0  0  0  0  0  0  0  0  0  0
   -3.0538   -2.7186   -0.6556 H   0  0  0  0  0  0  0  0  0  0  0  0
   -1.3498   -2.2206    0.5184 C   0  0  0  0  0  0  0  0  0  0  0  0
   -0.4997   -2.9426    1.0194 O   0  0  0  0  0  0  0  0  0  0  0  0
   -1.1198   -0.9926    0.0674 N   0  0  0  0  0  0  0  0  0  0  0  0
   -1.8978   -0.4486   -0.2716 H   0  0  0  0  0  0  0  0  0  0  0  0
    0.1693   -0.2866    0.0854 C   0  0  1  0  0  0  0  0  0  0  0  0
    0.8425   -0.7905    0.7811 H   0  0  0  0  0  0  0  0  0  0  0  0
    0.7993   -0.3404   -1.3233 C   0  0  0  0  0  0  0  0  0  0  0  0
    1.7609   -0.8524   -1.2576 H   0  0  0  0  0  0  0  0  0  0  0  0
    0.1520   -0.9300   -1.9760 H   0  0  0  0  0  0  0  0  0  0  0  0
    1.0477    1.0343   -1.9636 C   0  0  0  0  0  0  0  0  0  0  0  0
    1.8089    1.8396   -1.3772 O   0  5  0  0  0  0  0  0  0  0  0  0
    0.4524    1.2768   -3.0355 O   0  0  0  0  0  0  0  0  0  0  0  0
   -0.0374    1.1645    0.5781 C   0  0  0  0  0  0  0  0  0  0  0  0
   -0.9816    1.8416    0.1544 O   0  0  0  0  0  0  0  0  0  0  0  0
    0.8235    1.6462    1.4801 N   0  0  0  0  0  0  0  0  0  0  0  0
    1.6183    1.0435    1.7020 H   0  0  0  0  0  0  0  0  0  0  0  0
    0.7895    2.9929    2.0404 C   0  0  0  0  0  0  0  0  0  0  0  0
   -0.2344    3.2522    2.3130 H   0  0  0  0  0  0  0  0  0  0  0  0
    1.4265    3.0377    2.9233 H   0  0  0  0  0  0  0  0  0  0  0  0
    1.1511    3.7014    1.2950 H   0  0  0  0  0  0  0  0  0  0  0  0
  5  6  2  0  0  0  0
  5  7  1  0  0  0  0
  2  3  1  0  0  0  0
  2  4  1  0  0  0  0
  2  5  1  0  0  0  0
  1  2  1  0  0  0  0
 17 18  2  0  0  0  0
 17 19  1  0  0  0  0
 14 15  1  0  0  0  0
 14 16  2  0  0  0  0
 11 12  1  0  0  0  0
 11 13  1  0  0  0  0
 11 14  1  0  0  0  0
  9 10  1  0  0  0  0
  9 11  1  0  0  0  0
  9 17  1  0  0  0  0
  7  8  1  0  0  0  0
  7  9  1  0  0  0  0
 21 22  1  0  0  0  0
 21 23  1  0  0  0  0
 21 24  1  0  0  0  0
 19 20  1  0  0  0  0
 19 21  1  0  0  0  0
M  CHG  1  15  -1
M  END
$$$$
default_name
  -OEChem-02102213163D

 24 23  0     1  0  0  0  0  0999 V2000
   -2.8347   -3.7166    0.8034 H   0  0  0  0  0  0  0  0  0  0  0  0
   -2.7728   -2.7096    0.3954 C   0  0  0  0  0  0  0  0  0  0  0  0
   -3.4267   -2.0426    0.9524 H   0  0  0  0  0  0  0  0  0  0  0  0
   -3.0538   -2.7186   -0.6556 H   0  0  0  0  0  0  0  0  0  0  0  0
   -1.3498   -2.2206    0.5184 C   0  0  0  0  0  0  0  0  0  0  0  0
   -0.4997   -2.9426    1.0194 O   0  0  0  0  0  0  0  0  0  0  0  0
   -1.1198   -0.9926    0.0674 N   0  0  0  0  0  0  0  0  0  0  0  0
   -1.8978   -0.4486   -0.2716 H   0  0  0  0  0  0  0  0  0  0  0  0
    0.1693   -0.2866    0.0854 C   0  0  1  0  0  0  0  0  0  0  0  0
    0.8425   -0.7905    0.7811 H   0  0  0  0  0  0  0  0  0  0  0  0
    0.7993   -0.3404   -1.3233 C   0  0  0  0  0  0  0  0  0  0  0  0
    1.7609   -0.8524   -1.2576 H   0  0  0  0  0  0  0  0  0  0  0  0
    0.1520   -0.9300   -1.9760 H   0  0  0  0  0  0  0  0  0  0  0  0
    1.0477    1.0343   -1.9636 C   0  0  0  0  0  0  0  0  0  0  0  0
    2.0089    1.7238   -1.5482 O   0  5  0  0  0  0  0  0  0  0  0  0
    0.2538    1.3949   -2.8590 O   0  0  0  0  0  0  0  0  0  0  0  0
   -0.0374    1.1645    0.5781 C   0  0  0  0  0  0  0  0  0  0  0  0
   -0.9816    1.8416    0.1544 O   0  0  0  0  0  0  0  0  0  0  0  0
    0.8235    1.6462    1.4801 N   0  0  0  0  0  0  0  0  0  0  0  0
    1.6183    1.0435    1.7020 H   0  0  0  0  0  0  0  0  0  0  0  0
    0.7895    2.9929    2.0404 C   0  0  0  0  0  0  0  0  0  0  0  0
   -0.2344    3.2522    2.3130 H   0  0  0  0  0  0  0  0  0  0  0  0
    1.4265    3.0377    2.9233 H   0  0  0  0  0  0  0  0  0  0  0  0
    1.1511    3.7014    1.2950 H   0  0  0  0  0  0  0  0  0  0  0  0
  5  6  2  0  0  0  0
  5  7  1  0  0  0  0
  2  3  1  0  0  0  0
  2  4  1  0  0  0  0
  2  5  1  0  0  0  0
  1  2  1  0  0  0  0
 17 18  2  0  0  0  0
 17 19  1  0  0  0  0
 14 15  1  0  0  0  0
 14 16  2  0  0  0  0
 11 12  1  0  0  0  0
 11 13  1  0  0  0  0
 11 14  1  0  0  0  0
  9 10  1  0  0  0  0
  9 11  1  0  0  0  0
  9 17  1  0  0  0  0
  7  8  1  0  0  0  0
  7  9  1  0  0  0  0
 21 22  1  0  0  0  0
 21 23  1  0  0  0  0
 21 24  1  0  0  0  0
 19 20  1  0  0  0  0
 19 21  1  0  0  0  0
M  CHG  1  15  -1
M  END
$$$$
default_name
  -OEChem-02102213163D

 24 23  0     1  0  0  0  0  0999 V2000
   -2.8347   -3.7166    0.8034 H   0  0  0  0  0  0  0  0  0  0  0  0
   -2.7728   -2.7096    0.3954 C   0  0  0  0  0  0  0  0  0  0  0  0
   -3.4267   -2.0426    0.9524 H   0  0  0  0  0  0  0  0  0  0  0  0
   -3.0538   -2.7186   -0.6556 H   0  0  0  0  0  0  0  0  0  0  0  0
   -1.3498   -2.2206    0.5184 C   0  0  0  0  0  0  0  0  0  0  0  0
   -0.4997   -2.9426    1.0194 O   0  0  0  0  0  0  0  0  0  0  0  0
   -1.1198   -0.9926    0.0674 N   0  0  0  0  0  0  0  0  0  0  0  0
   -1.8978   -0.4486   -0.2716 H   0  0  0  0  0  0  0  0  0  0  0  0
    0.1693   -0.2866    0.0854 C   0  0  1  0  0  0  0  0  0  0  0  0
    0.8425   -0.7905    0.7811 H   0  0  0  0  0  0  0  0  0  0  0  0
    0.7993   -0.3404   -1.3233 C   0  0  0  0  0  0  0  0  0  0  0  0
    1.7609   -0.8524   -1.2576 H   0  0  0  0  0  0  0  0  0  0  0  0
    0.1520   -0.9300   -1.9760 H   0  0  0  0  0  0  0  0  0  0  0  0
    1.0477    1.0343   -1.9636 C   0  0  0  0  0  0  0  0  0  0  0  0
    2.1499    1.5975   -1.7645 O   0  5  0  0  0  0  0  0  0  0  0  0
    0.1155    1.5230   -2.6376 O   0  0  0  0  0  0  0  0  0  0  0  0
   -0.0374    1.1645    0.5781 C   0  0  0  0  0  0  0  0  0  0  0  0
   -0.9816    1.8416    0.1544 O   0  0  0  0  0  0  0  0  0  0  0  0
    0.8235    1.6462    1.4801 N   0  0  0  0  0  0  0  0  0  0  0  0
    1.6183    1.0435    1.7020 H   0  0  0  0  0  0  0  0  0  0  0  0
    0.7895    2.9929    2.0404 C   0  0  0  0  0  0  0  0  0  0  0  0
   -0.2344    3.2522    2.3130 H   0  0  0  0  0  0  0  0  0  0  0  0
    1.4265    3.0377    2.9233 H   0  0  0  0  0  0  0  0  0  0  0  0
    1.1511    3.7014    1.2950 H   0  0  0  0  0  0  0  0  0  0  0  0
  5  6  2  0  0  0  0
  5  7  1  0  0  0  0
  2  3  1  0  0  0  0
  2  4  1  0  0  0  0
  2  5  1  0  0  0  0
  1  2  1  0  0  0  0
 17 18  2  0  0  0  0
 17 19  1  0  0  0  0
 14 15  1  0  0  0  0
 14 16  2  0  0  0  0
 11 12  1  0  0  0  0
 11 13  1  0  0  0  0
 11 14  1  0  0  0  0
  9 10  1  0  0  0  0
  9 11  1  0  0  0  0
  9 17  1  0  0  0  0
  7  8  1  0  0  0  0
  7  9  1  0  0  0  0
 21 22  1  0  0  0  0
 21 23  1  0  0  0  0
 21 24  1  0  0  0  0
 19 20  1  0  0  0  0
 19 21  1  0  0  0  0
M  CHG  1  15  -1
M  END
$$$$
default_name
  -OEChem-02102213163D

 24 23  0     1  0  0  0  0  0999 V2000
   -2.8347   -3.7166    0.8034 H   0  0  0  0  0  0  0  0  0  0  0  0
   -2.7728   -2.7096    0.3954 C   0  0  0  0  0  0  0  0  0  0  0  0
   -3.4267   -2.0426    0.9524 H   0  0  0  0  0  0  0  0  0  0  0  0
   -3.0538   -2.7186   -0.6556 H   0  0  0  0  0  0  0  0  0  0  0  0
   -1.3498   -2.2206    0.5184 C   0  0  0  0  0  0  0  0  0  0  0  0
   -0.4997   -2.9426    1.0194 O   0  0  0  0  0  0  0  0  0  0  0  0
   -1.1198   -0.9926    0.0674 N   0  0  0  0  0  0  0  0  0  0  0  0
   -1.8978   -0.4486   -0.2716 H   0  0  0  0  0  0  0  0  0  0  0  0
    0.1693   -0.2866    0.0854 C   0  0  1  0  0  0  0  0  0  0  0  0
    0.8425   -0.7905    0.7811 H   0  0  0  0  0  0  0  0  0  0  0  0
    0.7993   -0.3404   -1.3233 C   0  0  0  0  0  0  0  0  0  0  0  0
    1.7609   -0.8524   -1.2576 H   0  0  0  0  0  0  0  0  0  0  0  0
    0.1520   -0.9300   -1.9760 H   0  0  0  0  0  0  0  0  0  0  0  0
    1.0477    1.0343   -1.9636 C   0  0  0  0  0  0  0  0  0  0  0  0
    2.2225    1.4694   -2.0115 O   0  5  0  0  0  0  0  0  0  0  0  0
    0.0471    1.6524   -2.3864 O   0  0  0  0  0  0  0  0  0  0  0  0
   -0.0374    1.1645    0.5781 C   0  0  0  0  0  0  0  0  0  0  0  0
   -0.9816    1.8416    0.1544 O   0  0  0  0  0  0  0  0  0  0  0  0
    0.8235    1.6462    1.4801 N   0  0  0  0  0  0  0  0  0  0  0  0
    1.6183    1.0435    1.7020 H   0  0  0  0  0  0  0  0  0  0  0  0
    0.7895    2.9929    2.0404 C   0  0  0  0  0  0  0  0  0  0  0  0
   -0.2344    3.2522    2.3130 H   0  0  0  0  0  0  0  0  0  0  0  0
    1.4265    3.0377    2.9233 H   0  0  0  0  0  0  0  0  0  0  0  0
    1.1511    3.7014    1.2950 H   0  0  0  0  0  0  0  0  0  0  0  0
  5  6  2  0  0  0  0
  5  7  1  0  0  0  0
  2  3  1  0  0  0  0
  2  4  1  0  0  0  0
  2  5  1  0  0  0  0
  1  2  1  0  0  0  0
 17 18  2  0  0  0  0
 17 19  1  0  0  0  0
 14 15  1  0  0  0  0
 14 16  2  0  0  0  0
 11 12  1  0  0  0  0
 11 13  1  0  0  0  0
 11 14  1  0  0  0  0
  9 10  1  0  0  0  0
  9 11  1  0  0  0  0
  9 17  1  0  0  0  0
  7  8  1  0  0  0  0
  7  9  1  0  0  0  0
 21 22  1  0  0  0  0
 21 23  1  0  0  0  0
 21 24  1  0  0  0  0
 19 20  1  0  0  0  0
 19 21  1  0  0  0  0
M  CHG  1  15  -1
M  END
$$$$
default_name
  -OEChem-02102213163D

 24 23  0     1  0  0  0  0  0999 V2000
   -2.8347   -3.7166    0.8034 H   0  0  0  0  0  0  0  0  0  0  0  0
   -2.7728   -2.7096    0.3954 C   0  0  0  0  0  0  0  0  0  0  0  0
   -3.4267   -2.0426    0.9524 H   0  0  0  0  0  0  0  0  0  0  0  0
   -3.0538   -2.7186   -0.6556 H   0  0  0  0  0  0  0  0  0  0  0  0
   -1.3498   -2.2206    0.5184 C   0  0  0  0  0  0  0  0  0  0  0  0
   -0.4997   -2.9426    1.0194 O   0  0  0  0  0  0  0  0  0  0  0  0
   -1.1198   -0.9926    0.0674 N   0  0  0  0  0  0  0  0  0  0  0  0
   -1.8978   -0.4486   -0.2716 H   0  0  0  0  0  0  0  0  0  0  0  0
    0.1693   -0.2866    0.0854 C   0  0  1  0  0  0  0  0  0  0  0  0
    0.8425   -0.7905    0.7811 H   0  0  0  0  0  0  0  0  0  0  0  0
    0.7993   -0.3404   -1.3233 C   0  0  0  0  0  0  0  0  0  0  0  0
    1.7609   -0.8524   -1.2576 H   0  0  0  0  0  0  0  0  0  0  0  0
    0.1520   -0.9300   -1.9760 H   0  0  0  0  0  0  0  0  0  0  0  0
    1.0477    1.0343   -1.9636 C   0  0  0  0  0  0  0  0  0  0  0  0
    2.2216    1.3482   -2.2721 O   0  5  0  0  0  0  0  0  0  0  0  0
    0.0530    1.7742   -2.1225 O   0  0  0  0  0  0  0  0  0  0  0  0
   -0.0374    1.1645    0.5781 C   0  0  0  0  0  0  0  0  0  0  0  0
   -0.9816    1.8416    0.1544 O   0  0  0  0  0  0  0  0  0  0  0  0
    0.8235    1.6462    1.4801 N   0  0  0  0  0  0  0  0  0  0  0  0
    1.6183    1.0435    1.7020 H   0  0  0  0  0  0  0  0  0  0  0  0
    0.7895    2.9929    2.0404 C   0  0  0  0  0  0  0  0  0  0  0  0
   -0.2344    3.2522    2.3130 H   0  0  0  0  0  0  0  0  0  0  0  0
    1.4265    3.0377    2.9233 H   0  0  0  0  0  0  0  0  0  0  0  0
    1.1511    3.7014    1.2950 H   0  0  0  0  0  0  0  0  0  0  0  0
  5  6  2  0  0  0  0
  5  7  1  0  0  0  0
  2  3  1  0  0  0  0
  2  4  1  0  0  0  0
  2  5  1  0  0  0  0
  1  2  1  0  0  0  0
 17 18  2  0  0  0  0
 17 19  1  0  0  0  0
 14 15  1  0  0  0  0
 14 16  2  0  0  0  0
 11 12  1  0  0  0  0
 11 13  1  0  0  0  0
 11 14  1  0  0  0  0
  9 10  1  0  0  0  0
  9 11  1  0  0  0  0
  9 17  1  0  0  0  0
  7  8  1  0  0  0  0
  7  9  1  0  0  0  0
 21 22  1  0  0  0  0
 21 23  1  0  0  0  0
 21 24  1  0  0  0  0
 19 20  1  0  0  0  0
 19 21  1  0  0  0  0
M  CHG  1  15  -1
M  END
$$$$
default_name
  -OEChem-02102213163D

 24 23  0     1  0  0  0  0  0999 V2000
   -2.8347   -3.7166    0.8034 H   0  0  0  0  0  0  0  0  0  0  0  0
   -2.7728   -2.7096    0.3954 C   0  0  0  0  0  0  0  0  0  0  0  0
   -3.4267   -2.0426    0.9524 H   0  0  0  0  0  0  0  0  0  0  0  0
   -3.0538   -2.7186   -0.6556 H   0  0  0  0  0  0  0  0  0  0  0  0
   -1.3498   -2.2206    0.5184 C   0  0  0  0  0  0  0  0  0  0  0  0
   -0.4997   -2.9426    1.0194 O   0  0  0  0  0  0  0  0  0  0  0  0
   -1.1198   -0.9926    0.0674 N   0  0  0  0  0  0  0  0  0  0  0  0
   -1.8978   -0.4486   -0.2716 H   0  0  0  0  0  0  0  0  0  0  0  0
    0.1693   -0.2866    0.0854 C   0  0  1  0  0  0  0  0  0  0  0  0
    0.8425   -0.7905    0.7811 H   0  0  0  0  0  0  0  0  0  0  0  0
    0.7993   -0.3404   -1.3233 C   0  0  0  0  0  0  0  0  0  0  0  0
    1.7609   -0.8524   -1.2576 H   0  0  0  0  0  0  0  0  0  0  0  0
    0.1520   -0.9300   -1.9760 H   0  0  0  0  0  0  0  0  0  0  0  0
    1.0477    1.0343   -1.9636 C   0  0  0  0  0  0  0  0  0  0  0  0
    2.1473    1.2420   -2.5288 O   0  5  0  0  0  0  0  0  0  0  0  0
    0.1330    1.8802   -1.8639 O   0  0  0  0  0  0  0  0  0  0  0  0
   -0.0374    1.1645    0.5781 C   0  0  0  0  0  0  0  0  0  0  0  0
   -0.9816    1.8416    0.1544 O   0  0  0  0  0  0  0  0  0  0  0  0
    0.8235    1.6462    1.4801 N   0  0  0  0  0  0  0  0  0  0  0  0
    1.6183    1.0435    1.7020 H   0  0  0  0  0  0  0  0  0  0  0  0
    0.7895    2.9929    2.0404 C   0  0  0  0  0  0  0  0  0  0  0  0
   -0.2344    3.2522    2.3130 H   0  0  0  0  0  0  0  0  0  0  0  0
    1.4265    3.0377    2.9233 H   0  0  0  0  0  0  0  0  0  0  0  0
    1.1511    3.7014    1.2950 H   0  0  0  0  0  0  0  0  0  0  0  0
  5  6  2  0  0  0  0
  5  7  1  0  0  0  0
  2  3  1  0  0  0  0
  2  4  1  0  0  0  0
  2  5  1  0  0  0  0
  1  2  1  0  0  0  0
 17 18  2  0  0  0  0
 17 19  1  0  0  0  0
 14 15  1  0  0  0  0
 14 16  2  0  0  0  0
 11 12  1  0  0  0  0
 11 13  1  0  0  0  0
 11 14  1  0  0  0  0
  9 10  1  0  0  0  0
  9 11  1  0  0  0  0
  9 17  1  0  0  0  0
  7  8  1  0  0  0  0
  7  9  1  0  0  0  0
 21 22  1  0  0  0  0
 21 23  1  0  0  0  0
 21 24  1  0  0  0  0
 19 20  1  0  0  0  0
 19 21  1  0  0  0  0
M  CHG  1  15  -1
M  END
$$$$
default_name
  -OEChem-02102213163D

 24 23  0     1  0  0  0  0  0999 V2000
   -2.8347   -3.7166    0.8034 H   0  0  0  0  0  0  0  0  0  0  0  0
   -2.7728   -2.7096    0.3954 C   0  0  0  0  0  0  0  0  0  0  0  0
   -3.4267   -2.0426    0.9524 H   0  0  0  0  0  0  0  0  0  0  0  0
   -3.0538   -2.7186   -0.6556 H   0  0  0  0  0  0  0  0  0  0  0  0
   -1.3498   -2.2206    0.5184 C   0  0  0  0  0  0  0  0  0  0  0  0
   -0.4997   -2.9426    1.0194 O   0  0  0  0  0  0  0  0  0  0  0  0
   -1.1198   -0.9926    0.0674 N   0  0  0  0  0  0  0  0  0  0  0  0
   -1.8978   -0.4486   -0.2716 H   0  0  0  0  0  0  0  0  0  0  0  0
    0.1693   -0.2866    0.0854 C   0  0  1  0  0  0  0  0  0  0  0  0
    0.8425   -0.7905    0.7811 H   0  0  0  0  0  0  0  0  0  0  0  0
    0.7993   -0.3404   -1.3233 C   0  0  0  0  0  0  0  0  0  0  0  0
    1.7609   -0.8524   -1.2576 H   0  0  0  0  0  0  0  0  0  0  0  0
    0.1520   -0.9300   -1.9760 H   0  0  0  0  0  0  0  0  0  0  0  0
    1.0477    1.0343   -1.9636 C   0  0  0  0  0  0  0  0  0  0  0  0
    2.0047    1.1583   -2.7639 O   0  5  0  0  0  0  0  0  0  0  0  0
    0.2816    1.9632   -1.6282 O   0  0  0  0  0  0  0  0  0  0  0  0
   -0.0374    1.1645    0.5781 C   0  0  0  0  0  0  0  0  0  0  0  0
   -0.9816    1.8416    0.1544 O   0  0  0  0  0  0  0  0  0  0  0  0
    0.8235    1.6462    1.4801 N   0  0  0  0  0  0  0  0  0  0  0  0
    1.6183    1.0435    1.7020 H   0  0  0  0  0  0  0  0  0  0  0  0
    0.7895    2.9929    2.0404 C   0  0  0  0  0  0  0  0  0  0  0  0
   -0.2344    3.2522    2.3130 H   0  0  0  0  0  0  0  0  0  0  0  0
    1.4265    3.0377    2.9233 H   0  0  0  0  0  0  0  0  0  0  0  0
    1.1511    3.7014    1.2950 H   0  0  0  0  0  0  0  0  0  0  0  0
  5  6  2  0  0  0  0
  5  7  1  0  0  0  0
  2  3  1  0  0  0  0
  2  4  1  0  0  0  0
  2  5  1  0  0  0  0
  1  2  1  0  0  0  0
 17 18  2  0  0  0  0
 17 19  1  0  0  0  0
 14 15  1  0  0  0  0
 14 16  2  0  0  0  0
 11 12  1  0  0  0  0
 11 13  1  0  0  0  0
 11 14  1  0  0  0  0
  9 10  1  0  0  0  0
  9 11  1  0  0  0  0
  9 17  1  0  0  0  0
  7  8  1  0  0  0  0
  7  9  1  0  0  0  0
 21 22  1  0  0  0  0
 21 23  1  0  0  0  0
 21 24  1  0  0  0  0
 19 20  1  0  0  0  0
 19 21  1  0  0  0  0
M  CHG  1  15  -1
M  END
$$$$
default_name
  -OEChem-02102213163D

 24 23  0     1  0  0  0  0  0999 V2000
   -2.8347   -3.7166    0.8034 H   0  0  0  0  0  0  0  0  0  0  0  0
   -2.7728   -2.7096    0.3954 C   0  0  0  0  0  0  0  0  0  0  0  0
   -3.4267   -2.0426    0.9524 H   0  0  0  0  0  0  0  0  0  0  0  0
   -3.0538   -2.7186   -0.6556 H   0  0  0  0  0  0  0  0  0  0  0  0
   -1.3498   -2.2206    0.5184 C   0  0  0  0  0  0  0  0  0  0  0  0
   -0.4997   -2.9426    1.0194 O   0  0  0  0  0  0  0  0  0  0  0  0
   -1.1198   -0.9926    0.0674 N   0  0  0  0  0  0  0  0  0  0  0  0
   -1.8978   -0.4486   -0.2716 H   0  0  0  0  0  0  0  0  0  0  0  0
    0.1693   -0.2866    0.0854 C   0  0  1  0  0  0  0  0  0  0  0  0
    0.8425   -0.7905    0.7811 H   0  0  0  0  0  0  0  0  0  0  0  0
    0.7993   -0.3404   -1.3233 C   0  0  0  0  0  0  0  0  0  0  0  0
    1.7609   -0.8524   -1.2576 H   0  0  0  0  0  0  0  0  0  0  0  0
    0.1520   -0.9300   -1.9760 H   0  0  0  0  0  0  0  0  0  0  0  0
    1.0477    1.0343   -1.9636 C   0  0  0  0  0  0  0  0  0  0  0  0
    1.8034    1.1026   -2.9615 O   0  5  0  0  0  0  0  0  0  0  0  0
    0.4887    2.0174   -1.4314 O   0  0  0  0  0  0  0  0  0  0  0  0
   -0.0374    1.1645    0.5781 C   0  0  0  0  0  0  0  0  0  0  0  0
   -0.9816    1.8416    0.1544 O   0  0  0  0  0  0  0  0  0  0  0  0
    0.8235    1.6462    1.4801 N   0  0  0  0  0  0  0  0  0  0  0  0
    1.6183    1.0435    1.7020 H   0  0  0  0  0  0  0  0  0  0  0  0
    0.7895    2.9929    2.0404 C   0  0  0  0  0  0  0  0  0  0  0  0
   -0.2344    3.2522    2.3130 H   0  0  0  0  0  0  0  0  0  0  0  0
    1.4265    3.0377    2.9233 H   0  0  0  0  0  0  0  0  0  0  0  0
    1.1511    3.7014    1.2950 H   0  0  0  0  0  0  0  0  0  0  0  0
  5  6  2  0  0  0  0
  5  7  1  0  0  0  0
  2  3  1  0  0  0  0
  2  4  1  0  0  0  0
  2  5  1  0  0  0  0
  1  2  1  0  0  0  0
 17 18  2  0  0  0  0
 17 19  1  0  0  0  0
 14 15  1  0  0  0  0
 14 16  2  0  0  0  0
 11 12  1  0  0  0  0
 11 13  1  0  0  0  0
 11 14  1  0  0  0  0
  9 10  1  0  0  0  0
  9 11  1  0  0  0  0
  9 17  1  0  0  0  0
  7  8  1  0  0  0  0
  7  9  1  0  0  0  0
 21 22  1  0  0  0  0
 21 23  1  0  0  0  0
 21 24  1  0  0  0  0
 19 20  1  0  0  0  0
 19 21  1  0  0  0  0
M  CHG  1  15  -1
M  END
$$$$
default_name
  -OEChem-02102213163D

 24 23  0     1  0  0  0  0  0999 V2000
   -2.8347   -3.7166    0.8034 H   0  0  0  0  0  0  0  0  0  0  0  0
   -2.7728   -2.7096    0.3954 C   0  0  0  0  0  0  0  0  0  0  0  0
   -3.4267   -2.0426    0.9524 H   0  0  0  0  0  0  0  0  0  0  0  0
   -3.0538   -2.7186   -0.6556 H   0  0  0  0  0  0  0  0  0  0  0  0
   -1.3498   -2.2206    0.5184 C   0  0  0  0  0  0  0  0  0  0  0  0
   -0.4997   -2.9426    1.0194 O   0  0  0  0  0  0  0  0  0  0  0  0
   -1.1198   -0.9926    0.0674 N   0  0  0  0  0  0  0  0  0  0  0  0
   -1.8978   -0.4486   -0.2716 H   0  0  0  0  0  0  0  0  0  0  0  0
    0.1693   -0.2866    0.0854 C   0  0  1  0  0  0  0  0  0  0  0  0
    0.8425   -0.7905    0.7811 H   0  0  0  0  0  0  0  0  0  0  0  0
    0.7993   -0.3404   -1.3233 C   0  0  0  0  0  0  0  0  0  0  0  0
    1.6115   -1.0694   -1.3161 H   0  0  0  0  0  0  0  0  0  0  0  0
    0.0456   -0.6886   -2.0328 H   0  0  0  0  0  0  0  0  0  0  0  0
    1.3785    0.9957   -1.8142 C   0  0  0  0  0  0  0  0  0  0  0  0
    1.9089    1.0377   -2.9493 O   0  5  0  0  0  0  0  0  0  0  0  0
    1.3017    1.9685   -1.0331 O   0  0  0  0  0  0  0  0  0  0  0  0
   -0.0374    1.1645    0.5781 C   0  0  0  0  0  0  0  0  0  0  0  0
   -0.9816    1.8416    0.1544 O   0  0  0  0  0  0  0  0  0  0  0  0
    0.8235    1.6462    1.4801 N   0  0  0  0  0  0  0  0  0  0  0  0
    1.6183    1.0435    1.7020 H   0  0  0  0  0  0  0  0  0  0  0  0
    0.7895    2.9929    2.0404 C   0  0  0  0  0  0  0  0  0  0  0  0
   -0.2344    3.2522    2.3130 H   0  0  0  0  0  0  0  0  0  0  0  0
    1.4265    3.0377    2.9233 H   0  0  0  0  0  0  0  0  0  0  0  0
    1.1511    3.7014    1.2950 H   0  0  0  0  0  0  0  0  0  0  0  0
  5  6  2  0  0  0  0
  5  7  1  0  0  0  0
  2  3  1  0  0  0  0
  2  4  1  0  0  0  0
  2  5  1  0  0  0  0
  1  2  1  0  0  0  0
 17 18  2  0  0  0  0
 17 19  1  0  0  0  0
 14 15  1  0  0  0  0
 14 16  2  0  0  0  0
 11 12  1  0  0  0  0
 11 13  1  0  0  0  0
 11 14  1  0  0  0  0
  9 10  1  0  0  0  0
  9 11  1  0  0  0  0
  9 17  1  0  0  0  0
  7  8  1  0  0  0  0
  7  9  1  0  0  0  0
 21 22  1  0  0  0  0
 21 23  1  0  0  0  0
 21 24  1  0  0  0  0
 19 20  1  0  0  0  0
 19 21  1  0  0  0  0
M  CHG  1  15  -1
M  END
$$$$
default_name
  -OEChem-02102213163D

 24 23  0     1  0  0  0  0  0999 V2000
   -2.8347   -3.7166    0.8034 H   0  0  0  0  0  0  0  0  0  0  0  0
   -2.7728   -2.7096    0.3954 C   0  0  0  0  0  0  0  0  0  0  0  0
   -3.4267   -2.0426    0.9524 H   0  0  0  0  0  0  0  0  0  0  0  0
   -3.0538   -2.7186   -0.6556 H   0  0  0  0  0  0  0  0  0  0  0  0
   -1.3498   -2.2206    0.5184 C   0  0  0  0  0  0  0  0  0  0  0  0
   -0.4997   -2.9426    1.0194 O   0  0  0  0  0  0  0  0  0  0  0  0
   -1.1198   -0.9926    0.0674 N   0  0  0  0  0  0  0  0  0  0  0  0
   -1.8978   -0.4486   -0.2716 H   0  0  0  0  0  0  0  0  0  0  0  0
    0.1693   -0.2866    0.0854 C   0  0  1  0  0  0  0  0  0  0  0  0
    0.8425   -0.7905    0.7811 H   0  0  0  0  0  0  0  0  0  0  0  0
    0.7993   -0.3404   -1.3233 C   0  0  0  0  0  0  0  0  0  0  0  0
    1.6115   -1.0694   -1.3161 H   0  0  0  0  0  0  0  0  0  0  0  0
    0.0456   -0.6886   -2.0328 H   0  0  0  0  0  0  0  0  0  0  0  0
    1.3785    0.9957   -1.8142 C   0  0  0  0  0  0  0  0  0  0  0  0
    1.6465    1.1209   -3.0324 O   0  5  0  0  0  0  0  0  0  0  0  0
    1.5677    1.8823   -0.9538 O   0  0  0  0  0  0  0  0  0  0  0  0
   -0.0374    1.1645    0.5781 C   0  0  0  0  0  0  0  0  0  0  0  0
   -0.9816    1.8416    0.1544 O   0  0  0  0  0  0  0  0  0  0  0  0
    0.8235    1.6462    1.4801 N   0  0  0  0  0  0  0  0  0  0  0  0
    1.6183    1.0435    1.7020 H   0  0  0  0  0  0  0  0  0  0  0  0
    0.7895    2.9929    2.0404 C   0  0  0  0  0  0  0  0  0  0  0  0
   -0.2344    3.2522    2.3130 H   0  0  0  0  0  0  0  0  0  0  0  0
    1.4265    3.0377    2.9233 H   0  0  0  0  0  0  0  0  0  0  0  0
    1.1511    3.7014    1.2950 H   0  0  0  0  0  0  0  0  0  0  0  0
  5  6  2  0  0  0  0
  5  7  1  0  0  0  0
  2  3  1  0  0  0  0
  2  4  1  0  0  0  0
  2  5  1  0  0  0  0
  1  2  1  0  0  0  0
 17 18  2  0  0  0  0
 17 19  1  0  0  0  0
 14 15  1  0  0  0  0
 14 16  2  0  0  0  0
 11 12  1  0  0  0  0
 11 13  1  0  0  0  0
 11 14  1  0  0  0  0
  9 10  1  0  0  0  0
  9 11  1  0  0  0  0
  9 17  1  0  0  0  0
  7  8  1  0  0  0  0
  7  9  1  0  0  0  0
 21 22  1  0  0  0  0
 21 23  1  0  0  0  0
 21 24  1  0  0  0  0
 19 20  1  0  0  0  0
 19 21  1  0  0  0  0
M  CHG  1  15  -1
M  END
$$$$
default_name
  -OEChem-02102213163D

 24 23  0     1  0  0  0  0  0999 V2000
   -2.8347   -3.7166    0.8034 H   0  0  0  0  0  0  0  0  0  0  0  0
   -2.7728   -2.7096    0.3954 C   0  0  0  0  0  0  0  0  0  0  0  0
   -3.4267   -2.0426    0.9524 H   0  0  0  0  0  0  0  0  0  0  0  0
   -3.0538   -2.7186   -0.6556 H   0  0  0  0  0  0  0  0  0  0  0  0
   -1.3498   -2.2206    0.5184 C   0  0  0  0  0  0  0  0  0  0  0  0
   -0.4997   -2.9426    1.0194 O   0  0  0  0  0  0  0  0  0  0  0  0
   -1.1198   -0.9926    0.0674 N   0  0  0  0  0  0  0  0  0  0  0  0
   -1.8978   -0.4486   -0.2716 H   0  0  0  0  0  0  0  0  0  0  0  0
    0.1693   -0.2866    0.0854 C   0  0  1  0  0  0  0  0  0  0  0  0
    0.8425   -0.7905    0.7811 H   0  0  0  0  0  0  0  0  0  0  0  0
    0.7993   -0.3404   -1.3233 C   0  0  0  0  0  0  0  0  0  0  0  0
    1.6115   -1.0694   -1.3161 H   0  0  0  0  0  0  0  0  0  0  0  0
    0.0456   -0.6886   -2.0328 H   0  0  0  0  0  0  0  0  0  0  0  0
    1.3785    0.9957   -1.8142 C   0  0  0  0  0  0  0  0  0  0  0  0
    1.3813    1.2311   -3.0455 O   0  5  0  0  0  0  0  0  0  0  0  0
    1.8355    1.7693   -0.9453 O   0  0  0  0  0  0  0  0  0  0  0  0
   -0.0374    1.1645    0.5781 C   0  0  0  0  0  0  0  0  0  0  0  0
   -0.9816    1.8416    0.1544 O   0  0  0  0  0  0  0  0  0  0  0  0
    0.8235    1.6462    1.4801 N   0  0  0  0  0  0  0  0  0  0  0  0
    1.6183    1.0435    1.7020 H   0  0  0  0  0  0  0  0  0  0  0  0
    0.7895    2.9929    2.0404 C   0  0  0  0  0  0  0  0  0  0  0  0
   -0.2344    3.2522    2.3130 H   0  0  0  0  0  0  0  0  0  0  0  0
    1.4265    3.0377    2.9233 H   0  0  0  0  0  0  0  0  0  0  0  0
    1.1511    3.7014    1.2950 H   0  0  0  0  0  0  0  0  0  0  0  0
  5  6  2  0  0  0  0
  5  7  1  0  0  0  0
  2  3  1  0  0  0  0
  2  4  1  0  0  0  0
  2  5  1  0  0  0  0
  1  2  1  0  0  0  0
 17 18  2  0  0  0  0
 17 19  1  0  0  0  0
 14 15  1  0  0  0  0
 14 16  2  0  0  0  0
 11 12  1  0  0  0  0
 11 13  1  0  0  0  0
 11 14  1  0  0  0  0
  9 10  1  0  0  0  0
  9 11  1  0  0  0  0
  9 17  1  0  0  0  0
  7  8  1  0  0  0  0
  7  9  1  0  0  0  0
 21 22  1  0  0  0  0
 21 23  1  0  0  0  0
 21 24  1  0  0  0  0
 19 20  1  0  0  0  0
 19 21  1  0  0  0  0
M  CHG  1  15  -1
M  END
$$$$
default_name
  -OEChem-02102213163D

 24 23  0     1  0  0  0  0  0999 V2000
   -2.8347   -3.7166    0.8034 H   0  0  0  0  0  0  0  0  0  0  0  0
   -2.7728   -2.7096    0.3954 C   0  0  0  0  0  0  0  0  0  0  0  0
   -3.4267   -2.0426    0.9524 H   0  0  0  0  0  0  0  0  0  0  0  0
   -3.0538   -2.7186   -0.6556 H   0  0  0  0  0  0  0  0  0  0  0  0
   -1.3498   -2.2206    0.5184 C   0  0  0  0  0  0  0  0  0  0  0  0
   -0.4997   -2.9426    1.0194 O   0  0  0  0  0  0  0  0  0  0  0  0
   -1.1198   -0.9926    0.0674 N   0  0  0  0  0  0  0  0  0  0  0  0
   -1.8978   -0.4486   -0.2716 H   0  0  0  0  0  0  0  0  0  0  0  0
    0.1693   -0.2866    0.0854 C   0  0  1  0  0  0  0  0  0  0  0  0
    0.8425   -0.7905    0.7811 H   0  0  0  0  0  0  0  0  0  0  0  0
    0.7993   -0.3404   -1.3233 C   0  0  0  0  0  0  0  0  0  0  0  0
    1.6115   -1.0694   -1.3161 H   0  0  0  0  0  0  0  0  0  0  0  0
    0.0456   -0.6886   -2.0328 H   0  0  0  0  0  0  0  0  0  0  0  0
    1.3785    0.9957   -1.8142 C   0  0  0  0  0  0  0  0  0  0  0  0
    1.1313    1.3607   -2.9877 O   0  5  0  0  0  0  0  0  0  0  0  0
    2.0867    1.6372   -1.0085 O   0  0  0  0  0  0  0  0  0  0  0  0
   -0.0374    1.1645    0.5781 C   0  0  0  0  0  0  0  0  0  0  0  0
   -0.9816    1.8416    0.1544 O   0  0  0  0  0  0  0  0  0  0  0  0
    0.8235    1.6462    1.4801 N   0  0  0  0  0  0  0  0  0  0  0  0
    1.6183    1.0435    1.7020 H   0  0  0  0  0  0  0  0  0  0  0  0
    0.7895    2.9929    2.0404 C   0  0  0  0  0  0  0  0  0  0  0  0
   -0.2344    3.2522    2.3130 H   0  0  0  0  0  0  0  0  0  0  0  0
    1.4265    3.0377    2.9233 H   0  0  0  0  0  0  0  0  0  0  0  0
    1.1511    3.7014    1.2950 H   0  0  0  0  0  0  0  0  0  0  0  0
  5  6  2  0  0  0  0
  5  7  1  0  0  0  0
  2  3  1  0  0  0  0
  2  4  1  0  0  0  0
  2  5  1  0  0  0  0
  1  2  1  0  0  0  0
 17 18  2  0  0  0  0
 17 19  1  0  0  0  0
 14 15  1  0  0  0  0
 14 16  2  0  0  0  0
 11 12  1  0  0  0  0
 11 13  1  0  0  0  0
 11 14  1  0  0  0  0
  9 10  1  0  0  0  0
  9 11  1  0  0  0  0
  9 17  1  0  0  0  0
  7  8  1  0  0  0  0
  7  9  1  0  0  0  0
 21 22  1  0  0  0  0
 21 23  1  0  0  0  0
 21 24  1  0  0  0  0
 19 20  1  0  0  0  0
 19 21  1  0  0  0  0
M  CHG  1  15  -1
M  END
$$$$
default_name
  -OEChem-02102213163D

 24 23  0     1  0  0  0  0  0999 V2000
   -2.8347   -3.7166    0.8034 H   0  0  0  0  0  0  0  0  0  0  0  0
   -2.7728   -2.7096    0.3954 C   0  0  0  0  0  0  0  0  0  0  0  0
   -3.4267   -2.0426    0.9524 H   0  0  0  0  0  0  0  0  0  0  0  0
   -3.0538   -2.7186   -0.6556 H   0  0  0  0  0  0  0  0  0  0  0  0
   -1.3498   -2.2206    0.5184 C   0  0  0  0  0  0  0  0  0  0  0  0
   -0.4997   -2.9426    1.0194 O   0  0  0  0  0  0  0  0  0  0  0  0
   -1.1198   -0.9926    0.0674 N   0  0  0  0  0  0  0  0  0  0  0  0
   -1.8978   -0.4486   -0.2716 H   0  0  0  0  0  0  0  0  0  0  0  0
    0.1693   -0.2866    0.0854 C   0  0  1  0  0  0  0  0  0  0  0  0
    0.8425   -0.7905    0.7811 H   0  0  0  0  0  0  0  0  0  0  0  0
    0.7993   -0.3404   -1.3233 C   0  0  0  0  0  0  0  0  0  0  0  0
    1.6115   -1.0694   -1.3161 H   0  0  0  0  0  0  0  0  0  0  0  0
    0.0456   -0.6886   -2.0328 H   0  0  0  0  0  0  0  0  0  0  0  0
    1.3785    0.9957   -1.8142 C   0  0  0  0  0  0  0  0  0  0  0  0
    0.9135    1.5009   -2.8630 O   0  5  0  0  0  0  0  0  0  0  0  0
    2.3042    1.4950   -1.1389 O   0  0  0  0  0  0  0  0  0  0  0  0
   -0.0374    1.1645    0.5781 C   0  0  0  0  0  0  0  0  0  0  0  0
   -0.9816    1.8416    0.1544 O   0  0  0  0  0  0  0  0  0  0  0  0
    0.8235    1.6462    1.4801 N   0  0  0  0  0  0  0  0  0  0  0  0
    1.6183    1.0435    1.7020 H   0  0  0  0  0  0  0  0  0  0  0  0
    0.7895    2.9929    2.0404 C   0  0  0  0  0  0  0  0  0  0  0  0
   -0.2344    3.2522    2.3130 H   0  0  0  0  0  0  0  0  0  0  0  0
    1.4265    3.0377    2.9233 H   0  0  0  0  0  0  0  0  0  0  0  0
    1.1511    3.7014    1.2950 H   0  0  0  0  0  0  0  0  0  0  0  0
  5  6  2  0  0  0  0
  5  7  1  0  0  0  0
  2  3  1  0  0  0  0
  2  4  1  0  0  0  0
  2  5  1  0  0  0  0
  1  2  1  0  0  0  0
 17 18  2  0  0  0  0
 17 19  1  0  0  0  0
 14 15  1  0  0  0  0
 14 16  2  0  0  0  0
 11 12  1  0  0  0  0
 11 13  1  0  0  0  0
 11 14  1  0  0  0  0
  9 10  1  0  0  0  0
  9 11  1  0  0  0  0
  9 17  1  0  0  0  0
  7  8  1  0  0  0  0
  7  9  1  0  0  0  0
 21 22  1  0  0  0  0
 21 23  1  0  0  0  0
 21 24  1  0  0  0  0
 19 20  1  0  0  0  0
 19 21  1  0  0  0  0
M  CHG  1  15  -1
M  END
$$$$
default_name
  -OEChem-02102213163D

 24 23  0     1  0  0  0  0  0999 V2000
   -2.8347   -3.7166    0.8034 H   0  0  0  0  0  0  0  0  0  0  0  0
   -2.7728   -2.7096    0.3954 C   0  0  0  0  0  0  0  0  0  0  0  0
   -3.4267   -2.0426    0.9524 H   0  0  0  0  0  0  0  0  0  0  0  0
   -3.0538   -2.7186   -0.6556 H   0  0  0  0  0  0  0  0  0  0  0  0
   -1.3498   -2.2206    0.5184 C   0  0  0  0  0  0  0  0  0  0  0  0
   -0.4997   -2.9426    1.0194 O   0  0  0  0  0  0  0  0  0  0  0  0
   -1.1198   -0.9926    0.0674 N   0  0  0  0  0  0  0  0  0  0  0  0
   -1.8978   -0.4486   -0.2716 H   0  0  0  0  0  0  0  0  0  0  0  0
    0.1693   -0.2866    0.0854 C   0  0  1  0  0  0  0  0  0  0  0  0
    0.8425   -0.7905    0.7811 H   0  0  0  0  0  0  0  0  0  0  0  0
    0.7993   -0.3404   -1.3233 C   0  0  0  0  0  0  0  0  0  0  0  0
    1.6115   -1.0694   -1.3161 H   0  0  0  0  0  0  0  0  0  0  0  0
    0.0456   -0.6886   -2.0328 H   0  0  0  0  0  0  0  0  0  0  0  0
    1.3785    0.9957   -1.8142 C   0  0  0  0  0  0  0  0  0  0  0  0
    0.7428    1.6422   -2.6799 O   0  5  0  0  0  0  0  0  0  0  0  0
    2.4731    1.3524   -1.3277 O   0  0  0  0  0  0  0  0  0  0  0  0
   -0.0374    1.1645    0.5781 C   0  0  0  0  0  0  0  0  0  0  0  0
   -0.9816    1.8416    0.1544 O   0  0  0  0  0  0  0  0  0  0  0  0
    0.8235    1.6462    1.4801 N   0  0  0  0  0  0  0  0  0  0  0  0
    1.6183    1.0435    1.7020 H   0  0  0  0  0  0  0  0  0  0  0  0
    0.7895    2.9929    2.0404 C   0  0  0  0  0  0  0  0  0  0  0  0
   -0.2344    3.2522    2.3130 H   0  0  0  0  0  0  0  0  0  0  0  0
    1.4265    3.0377    2.9233 H   0  0  0  0  0  0  0  0  0  0  0  0
    1.1511    3.7014    1.2950 H   0  0  0  0  0  0  0  0  0  0  0  0
  5  6  2  0  0  0  0
  5  7  1  0  0  0  0
  2  3  1  0  0  0  0
  2  4  1  0  0  0  0
  2  5  1  0  0  0  0
  1  2  1  0  0  0  0
 17 18  2  0  0  0  0
 17 19  1  0  0  0  0
 14 15  1  0  0  0  0
 14 16  2  0  0  0  0
 11 12  1  0  0  0  0
 11 13  1  0  0  0  0
 11 14  1  0  0  0  0
  9 10  1  0  0  0  0
  9 11  1  0  0  0  0
  9 17  1  0  0  0  0
  7  8  1  0  0  0  0
  7  9  1  0  0  0  0
 21 22  1  0  0  0  0
 21 23  1  0  0  0  0
 21 24  1  0  0  0  0
 19 20  1  0  0  0  0
 19 21  1  0  0  0  0
M  CHG  1  15  -1
M  END
$$$$
default_name
  -OEChem-02102213163D

 24 23  0     1  0  0  0  0  0999 V2000
   -2.8347   -3.7166    0.8034 H   0  0  0  0  0  0  0  0  0  0  0  0
   -2.7728   -2.7096    0.3954 C   0  0  0  0  0  0  0  0  0  0  0  0
   -3.4267   -2.0426    0.9524 H   0  0  0  0  0  0  0  0  0  0  0  0
   -3.0538   -2.7186   -0.6556 H   0  0  0  0  0  0  0  0  0  0  0  0
   -1.3498   -2.2206    0.5184 C   0  0  0  0  0  0  0  0  0  0  0  0
   -0.4997   -2.9426    1.0194 O   0  0  0  0  0  0  0  0  0  0  0  0
   -1.1198   -0.9926    0.0674 N   0  0  0  0  0  0  0  0  0  0  0  0
   -1.8978   -0.4486   -0.2716 H   0  0  0  0  0  0  0  0  0  0  0  0
    0.1693   -0.2866    0.0854 C   0  0  1  0  0  0  0  0  0  0  0  0
    0.8425   -0.7905    0.7811 H   0  0  0  0  0  0  0  0  0  0  0  0
    0.7993   -0.3404   -1.3233 C   0  0  0  0  0  0  0  0  0  0  0  0
    1.6115   -1.0694   -1.3161 H   0  0  0  0  0  0  0  0  0  0  0  0
    0.0456   -0.6886   -2.0328 H   0  0  0  0  0  0  0  0  0  0  0  0
    1.3785    0.9957   -1.8142 C   0  0  0  0  0  0  0  0  0  0  0  0
    0.6308    1.7749   -2.4508 O   0  5  0  0  0  0  0  0  0  0  0  0
    2.5821    1.2191   -1.5619 O   0  0  0  0  0  0  0  0  0  0  0  0
   -0.0374    1.1645    0.5781 C   0  0  0  0  0  0  0  0  0  0  0  0
   -0.9816    1.8416    0.1544 O   0  0  0  0  0  0  0  0  0  0  0  0
    0.8235    1.6462    1.4801 N   0  0  0  0  0  0  0  0  0  0  0  0
    1.6183    1.0435    1.7020 H   0  0  0  0  0  0  0  0  0  0  0  0
    0.7895    2.9929    2.0404 C   0  0  0  0  0  0  0  0  0  0  0  0
   -0.2344    3.2522    2.3130 H   0  0  0  0  0  0  0  0  0  0  0  0
    1.4265    3.0377    2.9233 H   0  0  0  0  0  0  0  0  0  0  0  0
    1.1511    3.7014    1.2950 H   0  0  0  0  0  0  0  0  0  0  0  0
  5  6  2  0  0  0  0
  5  7  1  0  0  0  0
  2  3  1  0  0  0  0
  2  4  1  0  0  0  0
  2  5  1  0  0  0  0
  1  2  1  0  0  0  0
 17 18  2  0  0  0  0
 17 19  1  0  0  0  0
 14 15  1  0  0  0  0
 14 16  2  0  0  0  0
 11 12  1  0  0  0  0
 11 13  1  0  0  0  0
 11 14  1  0  0  0  0
  9 10  1  0  0  0  0
  9 11  1  0  0  0  0
  9 17  1  0  0  0  0
  7  8  1  0  0  0  0
  7  9  1  0  0  0  0
 21 22  1  0  0  0  0
 21 23  1  0  0  0  0
 21 24  1  0  0  0  0
 19 20  1  0  0  0  0
 19 21  1  0  0  0  0
M  CHG  1  15  -1
M  END
$$$$
default_name
  -OEChem-02102213163D

 24 23  0     1  0  0  0  0  0999 V2000
   -2.8347   -3.7166    0.8034 H   0  0  0  0  0  0  0  0  0  0  0  0
   -2.7728   -2.7096    0.3954 C   0  0  0  0  0  0  0  0  0  0  0  0
   -3.4267   -2.0426    0.9524 H   0  0  0  0  0  0  0  0  0  0  0  0
   -3.0538   -2.7186   -0.6556 H   0  0  0  0  0  0  0  0  0  0  0  0
   -1.3498   -2.2206    0.5184 C   0  0  0  0  0  0  0  0  0  0  0  0
   -0.4997   -2.9426    1.0194 O   0  0  0  0  0  0  0  0  0  0  0  0
   -1.1198   -0.9926    0.0674 N   0  0  0  0  0  0  0  0  0  0  0  0
   -1.8978   -0.4486   -0.2716 H   0  0  0  0  0  0  0  0  0  0  0  0
    0.1693   -0.2866    0.0854 C   0  0  1  0  0  0  0  0  0  0  0  0
    0.8425   -0.7905    0.7811 H   0  0  0  0  0  0  0  0  0  0  0  0
    0.7993   -0.3404   -1.3233 C   0  0  0  0  0  0  0  0  0  0  0  0
    1.6115   -1.0694   -1.3161 H   0  0  0  0  0  0  0  0  0  0  0  0
    0.0456   -0.6886   -2.0328 H   0  0  0  0  0  0  0  0  0  0  0  0
    1.3785    0.9957   -1.8142 C   0  0  0  0  0  0  0  0  0  0  0  0
    0.5851    1.8901   -2.1914 O   0  5  0  0  0  0  0  0  0  0  0  0
    2.6236    1.1042   -1.8258 O   0  0  0  0  0  0  0  0  0  0  0  0
   -0.0374    1.1645    0.5781 C   0  0  0  0  0  0  0  0  0  0  0  0
   -0.9816    1.8416    0.1544 O   0  0  0  0  0  0  0  0  0  0  0  0
    0.8235    1.6462    1.4801 N   0  0  0  0  0  0  0  0  0  0  0  0
    1.6183    1.0435    1.7020 H   0  0  0  0  0  0  0  0  0  0  0  0
    0.7895    2.9929    2.0404 C   0  0  0  0  0  0  0  0  0  0  0  0
   -0.2344    3.2522    2.3130 H   0  0  0  0  0  0  0  0  0  0  0  0
    1.4265    3.0377    2.9233 H   0  0  0  0  0  0  0  0  0  0  0  0
    1.1511    3.7014    1.2950 H   0  0  0  0  0  0  0  0  0  0  0  0
  5  6  2  0  0  0  0
  5  7  1  0  0  0  0
  2  3  1  0  0  0  0
  2  4  1  0  0  0  0
  2  5  1  0  0  0  0
  1  2  1  0  0  0  0
 17 18  2  0  0  0  0
 17 19  1  0  0  0  0
 14 15  1  0  0  0  0
 14 16  2  0  0  0  0
 11 12  1  0  0  0  0
 11 13  1  0  0  0  0
 11 14  1  0  0  0  0
  9 10  1  0  0  0  0
  9 11  1  0  0  0  0
  9 17  1  0  0  0  0
  7  8  1  0  0  0  0
  7  9  1  0  0  0  0
 21 22  1  0  0  0  0
 21 23  1  0  0  0  0
 21 24  1  0  0  0  0
 19 20  1  0  0  0  0
 19 21  1  0  0  0  0
M  CHG  1  15  -1
M  END
$$$$
default_name
  -OEChem-02102213163D

 24 23  0     1  0  0  0  0  0999 V2000
   -2.8347   -3.7166    0.8034 H   0  0  0  0  0  0  0  0  0  0  0  0
   -2.7728   -2.7096    0.3954 C   0  0  0  0  0  0  0  0  0  0  0  0
   -3.4267   -2.0426    0.9524 H   0  0  0  0  0  0  0  0  0  0  0  0
   -3.0538   -2.7186   -0.6556 H   0  0  0  0  0  0  0  0  0  0  0  0
   -1.3498   -2.2206    0.5184 C   0  0  0  0  0  0  0  0  0  0  0  0
   -0.4997   -2.9426    1.0194 O   0  0  0  0  0  0  0  0  0  0  0  0
   -1.1198   -0.9926    0.0674 N   0  0  0  0  0  0  0  0  0  0  0  0
   -1.8978   -0.4486   -0.2716 H   0  0  0  0  0  0  0  0  0  0  0  0
    0.1693   -0.2866    0.0854 C   0  0  1  0  0  0  0  0  0  0  0  0
    0.8425   -0.7905    0.7811 H   0  0  0  0  0  0  0  0  0  0  0  0
    0.7993   -0.3404   -1.3233 C   0  0  0  0  0  0  0  0  0  0  0  0
    1.6115   -1.0694   -1.3161 H   0  0  0  0  0  0  0  0  0  0  0  0
    0.0456   -0.6886   -2.0328 H   0  0  0  0  0  0  0  0  0  0  0  0
    1.3785    0.9957   -1.8142 C   0  0  0  0  0  0  0  0  0  0  0  0
    0.6089    1.9797   -1.9192 O   0  5  0  0  0  0  0  0  0  0  0  0
    2.5948    1.0155   -2.1011 O   0  0  0  0  0  0  0  0  0  0  0  0
   -0.0374    1.1645    0.5781 C   0  0  0  0  0  0  0  0  0  0  0  0
   -0.9816    1.8416    0.1544 O   0  0  0  0  0  0  0  0  0  0  0  0
    0.8235    1.6462    1.4801 N   0  0  0  0  0  0  0  0  0  0  0  0
    1.6183    1.0435    1.7020 H   0  0  0  0  0  0  0  0  0  0  0  0
    0.7895    2.9929    2.0404 C   0  0  0  0  0  0  0  0  0  0  0  0
   -0.2344    3.2522    2.3130 H   0  0  0  0  0  0  0  0  0  0  0  0
    1.4265    3.0377    2.9233 H   0  0  0  0  0  0  0  0  0  0  0  0
    1.1511    3.7014    1.2950 H   0  0  0  0  0  0  0  0  0  0  0  0
  5  6  2  0  0  0  0
  5  7  1  0  0  0  0
  2  3  1  0  0  0  0
  2  4  1  0  0  0  0
  2  5  1  0  0  0  0
  1  2  1  0  0  0  0
 17 18  2  0  0  0  0
 17 19  1  0  0  0  0
 14 15  1  0  0  0  0
 14 16  2  0  0  0  0
 11 12  1  0  0  0  0
 11 13  1  0  0  0  0
 11 14  1  0  0  0  0
  9 10  1  0  0  0  0
  9 11  1  0  0  0  0
  9 17  1  0  0  0  0
  7  8  1  0  0  0  0
  7  9  1  0  0  0  0
 21 22  1  0  0  0  0
 21 23  1  0  0  0  0
 21 24  1  0  0  0  0
 19 20  1  0  0  0  0
 19 21  1  0  0  0  0
M  CHG  1  15  -1
M  END
$$$$
default_name
  -OEChem-02102213163D

 24 23  0     1  0  0  0  0  0999 V2000
   -2.8347   -3.7166    0.8034 H   0  0  0  0  0  0  0  0  0  0  0  0
   -2.7728   -2.7096    0.3954 C   0  0  0  0  0  0  0  0  0  0  0  0
   -3.4267   -2.0426    0.9524 H   0  0  0  0  0  0  0  0  0  0  0  0
   -3.0538   -2.7186   -0.6556 H   0  0  0  0  0  0  0  0  0  0  0  0
   -1.3498   -2.2206    0.5184 C   0  0  0  0  0  0  0  0  0  0  0  0
   -0.4997   -2.9426    1.0194 O   0  0  0  0  0  0  0  0  0  0  0  0
   -1.1198   -0.9926    0.0674 N   0  0  0  0  0  0  0  0  0  0  0  0
   -1.8978   -0.4486   -0.2716 H   0  0  0  0  0  0  0  0  0  0  0  0
    0.1693   -0.2866    0.0854 C   0  0  1  0  0  0  0  0  0  0  0  0
    0.8425   -0.7905    0.7811 H   0  0  0  0  0  0  0  0  0  0  0  0
    0.7993   -0.3404   -1.3233 C   0  0  0  0  0  0  0  0  0  0  0  0
    1.6115   -1.0694   -1.3161 H   0  0  0  0  0  0  0  0  0  0  0  0
    0.0456   -0.6886   -2.0328 H   0  0  0  0  0  0  0  0  0  0  0  0
    1.3785    0.9957   -1.8142 C   0  0  0  0  0  0  0  0  0  0  0  0
    0.7005    2.0378   -1.6530 O   0  5  0  0  0  0  0  0  0  0  0  0
    2.4977    0.9591   -2.3693 O   0  0  0  0  0  0  0  0  0  0  0  0
   -0.0374    1.1645    0.5781 C   0  0  0  0  0  0  0  0  0  0  0  0
   -0.9816    1.8416    0.1544 O   0  0  0  0  0  0  0  0  0  0  0  0
    0.8235    1.6462    1.4801 N   0  0  0  0  0  0  0  0  0  0  0  0
    1.6183    1.0435    1.7020 H   0  0  0  0  0  0  0  0  0  0  0  0
    0.7895    2.9929    2.0404 C   0  0  0  0  0  0  0  0  0  0  0  0
   -0.2344    3.2522    2.3130 H   0  0  0  0  0  0  0  0  0  0  0  0
    1.4265    3.0377    2.9233 H   0  0  0  0  0  0  0  0  0  0  0  0
    1.1511    3.7014    1.2950 H   0  0  0  0  0  0  0  0  0  0  0  0
  5  6  2  0  0  0  0
  5  7  1  0  0  0  0
  2  3  1  0  0  0  0
  2  4  1  0  0  0  0
  2  5  1  0  0  0  0
  1  2  1  0  0  0  0
 17 18  2  0  0  0  0
 17 19  1  0  0  0  0
 14 15  1  0  0  0  0
 14 16  2  0  0  0  0
 11 12  1  0  0  0  0
 11 13  1  0  0  0  0
 11 14  1  0  0  0  0
  9 10  1  0  0  0  0
  9 11  1  0  0  0  0
  9 17  1  0  0  0  0
  7  8  1  0  0  0  0
  7  9  1  0  0  0  0
 21 22  1  0  0  0  0
 21 23  1  0  0  0  0
 21 24  1  0  0  0  0
 19 20  1  0  0  0  0
 19 21  1  0  0  0  0
M  CHG  1  15  -1
M  END
$$$$
default_name
  -OEChem-02102213163D

 24 23  0     1  0  0  0  0  0999 V2000
   -2.8347   -3.7166    0.8034 H   0  0  0  0  0  0  0  0  0  0  0  0
   -2.7728   -2.7096    0.3954 C   0  0  0  0  0  0  0  0  0  0  0  0
   -3.4267   -2.0426    0.9524 H   0  0  0  0  0  0  0  0  0  0  0  0
   -3.0538   -2.7186   -0.6556 H   0  0  0  0  0  0  0  0  0  0  0  0
   -1.3498   -2.2206    0.5184 C   0  0  0  0  0  0  0  0  0  0  0  0
   -0.4997   -2.9426    1.0194 O   0  0  0  0  0  0  0  0  0  0  0  0
   -1.1198   -0.9926    0.0674 N   0  0  0  0  0  0  0  0  0  0  0  0
   -1.8978   -0.4486   -0.2716 H   0  0  0  0  0  0  0  0  0  0  0  0
    0.1693   -0.2866    0.0854 C   0  0  1  0  0  0  0  0  0  0  0  0
    0.8425   -0.7905    0.7811 H   0  0  0  0  0  0  0  0  0  0  0  0
    0.7993   -0.3404   -1.3233 C   0  0  0  0  0  0  0  0  0  0  0  0
    1.6115   -1.0694   -1.3161 H   0  0  0  0  0  0  0  0  0  0  0  0
    0.0456   -0.6886   -2.0328 H   0  0  0  0  0  0  0  0  0  0  0  0
    1.3785    0.9957   -1.8142 C   0  0  0  0  0  0  0  0  0  0  0  0
    0.8537    2.0604   -1.4108 O   0  5  0  0  0  0  0  0  0  0  0  0
    2.3389    0.9388   -2.6120 O   0  0  0  0  0  0  0  0  0  0  0  0
   -0.0374    1.1645    0.5781 C   0  0  0  0  0  0  0  0  0  0  0  0
   -0.9816    1.8416    0.1544 O   0  0  0  0  0  0  0  0  0  0  0  0
    0.8235    1.6462    1.4801 N   0  0  0  0  0  0  0  0  0  0  0  0
    1.6183    1.0435    1.7020 H   0  0  0  0  0  0  0  0  0  0  0  0
    0.7895    2.9929    2.0404 C   0  0  0  0  0  0  0  0  0  0  0  0
   -0.2344    3.2522    2.3130 H   0  0  0  0  0  0  0  0  0  0  0  0
    1.4265    3.0377    2.9233 H   0  0  0  0  0  0  0  0  0  0  0  0
    1.1511    3.7014    1.2950 H   0  0  0  0  0  0  0  0  0  0  0  0
  5  6  2  0  0  0  0
  5  7  1  0  0  0  0
  2  3  1  0  0  0  0
  2  4  1  0  0  0  0
  2  5  1  0  0  0  0
  1  2  1  0  0  0  0
 17 18  2  0  0  0  0
 17 19  1  0  0  0  0
 14 15  1  0  0  0  0
 14 16  2  0  0  0  0
 11 12  1  0  0  0  0
 11 13  1  0  0  0  0
 11 14  1  0  0  0  0
  9 10  1  0  0  0  0
  9 11  1  0  0  0  0
  9 17  1  0  0  0  0
  7  8  1  0  0  0  0
  7  9  1  0  0  0  0
 21 22  1  0  0  0  0
 21 23  1  0  0  0  0
 21 24  1  0  0  0  0
 19 20  1  0  0  0  0
 19 21  1  0  0  0  0
M  CHG  1  15  -1
M  END
$$$$
default_name
  -OEChem-02102213163D

 24 23  0     1  0  0  0  0  0999 V2000
   -2.8347   -3.7166    0.8034 H   0  0  0  0  0  0  0  0  0  0  0  0
   -2.7728   -2.7096    0.3954 C   0  0  0  0  0  0  0  0  0  0  0  0
   -3.4267   -2.0426    0.9524 H   0  0  0  0  0  0  0  0  0  0  0  0
   -3.0538   -2.7186   -0.6556 H   0  0  0  0  0  0  0  0  0  0  0  0
   -1.3498   -2.2206    0.5184 C   0  0  0  0  0  0  0  0  0  0  0  0
   -0.4997   -2.9426    1.0194 O   0  0  0  0  0  0  0  0  0  0  0  0
   -1.1198   -0.9926    0.0674 N   0  0  0  0  0  0  0  0  0  0  0  0
   -1.8978   -0.4486   -0.2716 H   0  0  0  0  0  0  0  0  0  0  0  0
    0.1693   -0.2866    0.0854 C   0  0  1  0  0  0  0  0  0  0  0  0
    0.8425   -0.7905    0.7811 H   0  0  0  0  0  0  0  0  0  0  0  0
    0.7993   -0.3404   -1.3233 C   0  0  0  0  0  0  0  0  0  0  0  0
    1.6115   -1.0694   -1.3161 H   0  0  0  0  0  0  0  0  0  0  0  0
    0.0456   -0.6886   -2.0328 H   0  0  0  0  0  0  0  0  0  0  0  0
    1.3785    0.9957   -1.8142 C   0  0  0  0  0  0  0  0  0  0  0  0
    1.0581    2.0459   -1.2091 O   0  5  0  0  0  0  0  0  0  0  0  0
    2.1292    0.9559   -2.8126 O   0  0  0  0  0  0  0  0  0  0  0  0
   -0.0374    1.1645    0.5781 C   0  0  0  0  0  0  0  0  0  0  0  0
   -0.9816    1.8416    0.1544 O   0  0  0  0  0  0  0  0  0  0  0  0
    0.8235    1.6462    1.4801 N   0  0  0  0  0  0  0  0  0  0  0  0
    1.6183    1.0435    1.7020 H   0  0  0  0  0  0  0  0  0  0  0  0
    0.7895    2.9929    2.0404 C   0  0  0  0  0  0  0  0  0  0  0  0
   -0.2344    3.2522    2.3130 H   0  0  0  0  0  0  0  0  0  0  0  0
    1.4265    3.0377    2.9233 H   0  0  0  0  0  0  0  0  0  0  0  0
    1.1511    3.7014    1.2950 H   0  0  0  0  0  0  0  0  0  0  0  0
  5  6  2  0  0  0  0
  5  7  1  0  0  0  0
  2  3  1  0  0  0  0
  2  4  1  0  0  0  0
  2  5  1  0  0  0  0
  1  2  1  0  0  0  0
 17 18  2  0  0  0  0
 17 19  1  0  0  0  0
 14 15  1  0  0  0  0
 14 16  2  0  0  0  0
 11 12  1  0  0  0  0
 11 13  1  0  0  0  0
 11 14  1  0  0  0  0
  9 10  1  0  0  0  0
  9 11  1  0  0  0  0
  9 17  1  0  0  0  0
  7  8  1  0  0  0  0
  7  9  1  0  0  0  0
 21 22  1  0  0  0  0
 21 23  1  0  0  0  0
 21 24  1  0  0  0  0
 19 20  1  0  0  0  0
 19 21  1  0  0  0  0
M  CHG  1  15  -1
M  END
$$$$
default_name
  -OEChem-02102213163D

 24 23  0     1  0  0  0  0  0999 V2000
   -2.8347   -3.7166    0.8034 H   0  0  0  0  0  0  0  0  0  0  0  0
   -2.7728   -2.7096    0.3954 C   0  0  0  0  0  0  0  0  0  0  0  0
   -3.4267   -2.0426    0.9524 H   0  0  0  0  0  0  0  0  0  0  0  0
   -3.0538   -2.7186   -0.6556 H   0  0  0  0  0  0  0  0  0  0  0  0
   -1.3498   -2.2206    0.5184 C   0  0  0  0  0  0  0  0  0  0  0  0
   -0.4997   -2.9426    1.0194 O   0  0  0  0  0  0  0  0  0  0  0  0
   -1.1198   -0.9926    0.0674 N   0  0  0  0  0  0  0  0  0  0  0  0
   -1.8978   -0.4486   -0.2716 H   0  0  0  0  0  0  0  0  0  0  0  0
    0.1693   -0.2866    0.0854 C   0  0  1  0  0  0  0  0  0  0  0  0
    0.8425   -0.7905    0.7811 H   0  0  0  0  0  0  0  0  0  0  0  0
    0.7993   -0.3404   -1.3233 C   0  0  0  0  0  0  0  0  0  0  0  0
    1.6115   -1.0694   -1.3161 H   0  0  0  0  0  0  0  0  0  0  0  0
    0.0456   -0.6886   -2.0328 H   0  0  0  0  0  0  0  0  0  0  0  0
    1.3785    0.9957   -1.8142 C   0  0  0  0  0  0  0  0  0  0  0  0
    1.2997    1.9953   -1.0617 O   0  5  0  0  0  0  0  0  0  0  0  0
    1.8830    1.0094   -2.9576 O   0  0  0  0  0  0  0  0  0  0  0  0
   -0.0374    1.1645    0.5781 C   0  0  0  0  0  0  0  0  0  0  0  0
   -0.9816    1.8416    0.1544 O   0  0  0  0  0  0  0  0  0  0  0  0
    0.8235    1.6462    1.4801 N   0  0  0  0  0  0  0  0  0  0  0  0
    1.6183    1.0435    1.7020 H   0  0  0  0  0  0  0  0  0  0  0  0
    0.7895    2.9929    2.0404 C   0  0  0  0  0  0  0  0  0  0  0  0
   -0.2344    3.2522    2.3130 H   0  0  0  0  0  0  0  0  0  0  0  0
    1.4265    3.0377    2.9233 H   0  0  0  0  0  0  0  0  0  0  0  0
    1.1511    3.7014    1.2950 H   0  0  0  0  0  0  0  0  0  0  0  0
  5  6  2  0  0  0  0
  5  7  1  0  0  0  0
  2  3  1  0  0  0  0
  2  4  1  0  0  0  0
  2  5  1  0  0  0  0
  1  2  1  0  0  0  0
 17 18  2  0  0  0  0
 17 19  1  0  0  0  0
 14 15  1  0  0  0  0
 14 16  2  0  0  0  0
 11 12  1  0  0  0  0
 11 13  1  0  0  0  0
 11 14  1  0  0  0  0
  9 10  1  0  0  0  0
  9 11  1  0  0  0  0
  9 17  1  0  0  0  0
  7  8  1  0  0  0  0
  7  9  1  0  0  0  0
 21 22  1  0  0  0  0
 21 23  1  0  0  0  0
 21 24  1  0  0  0  0
 19 20  1  0  0  0  0
 19 21  1  0  0  0  0
M  CHG  1  15  -1
M  END
$$$$
default_name
  -OEChem-02102213163D

 24 23  0     1  0  0  0  0  0999 V2000
   -2.8347   -3.7166    0.8034 H   0  0  0  0  0  0  0  0  0  0  0  0
   -2.7728   -2.7096    0.3954 C   0  0  0  0  0  0  0  0  0  0  0  0
   -3.4267   -2.0426    0.9524 H   0  0  0  0  0  0  0  0  0  0  0  0
   -3.0538   -2.7186   -0.6556 H   0  0  0  0  0  0  0  0  0  0  0  0
   -1.3498   -2.2206    0.5184 C   0  0  0  0  0  0  0  0  0  0  0  0
   -0.4997   -2.9426    1.0194 O   0  0  0  0  0  0  0  0  0  0  0  0
   -1.1198   -0.9926    0.0674 N   0  0  0  0  0  0  0  0  0  0  0  0
   -1.8978   -0.4486   -0.2716 H   0  0  0  0  0  0  0  0  0  0  0  0
    0.1693   -0.2866    0.0854 C   0  0  1  0  0  0  0  0  0  0  0  0
    0.8425   -0.7905    0.7811 H   0  0  0  0  0  0  0  0  0  0  0  0
    0.7993   -0.3404   -1.3233 C   0  0  0  0  0  0  0  0  0  0  0  0
    1.6115   -1.0694   -1.3161 H   0  0  0  0  0  0  0  0  0  0  0  0
    0.0456   -0.6886   -2.0328 H   0  0  0  0  0  0  0  0  0  0  0  0
    1.3785    0.9957   -1.8142 C   0  0  0  0  0  0  0  0  0  0  0  0
    1.5620    1.9121   -0.9786 O   0  5  0  0  0  0  0  0  0  0  0  0
    1.6169    1.0956   -3.0370 O   0  0  0  0  0  0  0  0  0  0  0  0
   -0.0374    1.1645    0.5781 C   0  0  0  0  0  0  0  0  0  0  0  0
   -0.9816    1.8416    0.1544 O   0  0  0  0  0  0  0  0  0  0  0  0
    0.8235    1.6462    1.4801 N   0  0  0  0  0  0  0  0  0  0  0  0
    1.6183    1.0435    1.7020 H   0  0  0  0  0  0  0  0  0  0  0  0
    0.7895    2.9929    2.0404 C   0  0  0  0  0  0  0  0  0  0  0  0
   -0.2344    3.2522    2.3130 H   0  0  0  0  0  0  0  0  0  0  0  0
    1.4265    3.0377    2.9233 H   0  0  0  0  0  0  0  0  0  0  0  0
    1.1511    3.7014    1.2950 H   0  0  0  0  0  0  0  0  0  0  0  0
  5  6  2  0  0  0  0
  5  7  1  0  0  0  0
  2  3  1  0  0  0  0
  2  4  1  0  0  0  0
  2  5  1  0  0  0  0
  1  2  1  0  0  0  0
 17 18  2  0  0  0  0
 17 19  1  0  0  0  0
 14 15  1  0  0  0  0
 14 16  2  0  0  0  0
 11 12  1  0  0  0  0
 11 13  1  0  0  0  0
 11 14  1  0  0  0  0
  9 10  1  0  0  0  0
  9 11  1  0  0  0  0
  9 17  1  0  0  0  0
  7  8  1  0  0  0  0
  7  9  1  0  0  0  0
 21 22  1  0  0  0  0
 21 23  1  0  0  0  0
 21 24  1  0  0  0  0
 19 20  1  0  0  0  0
 19 21  1  0  0  0  0
M  CHG  1  15  -1
M  END
$$$$
default_name
  -OEChem-02102213163D

 24 23  0     1  0  0  0  0  0999 V2000
   -2.8347   -3.7166    0.8034 H   0  0  0  0  0  0  0  0  0  0  0  0
   -2.7728   -2.7096    0.3954 C   0  0  0  0  0  0  0  0  0  0  0  0
   -3.4267   -2.0426    0.9524 H   0  0  0  0  0  0  0  0  0  0  0  0
   -3.0538   -2.7186   -0.6556 H   0  0  0  0  0  0  0  0  0  0  0  0
   -1.3498   -2.2206    0.5184 C   0  0  0  0  0  0  0  0  0  0  0  0
   -0.4997   -2.9426    1.0194 O   0  0  0  0  0  0  0  0  0  0  0  0
   -1.1198   -0.9926    0.0674 N   0  0  0  0  0  0  0  0  0  0  0  0
   -1.8978   -0.4486   -0.2716 H   0  0  0  0  0  0  0  0  0  0  0  0
    0.1693   -0.2866    0.0854 C   0  0  1  0  0  0  0  0  0  0  0  0
    0.8425   -0.7905    0.7811 H   0  0  0  0  0  0  0  0  0  0  0  0
    0.7993   -0.3404   -1.3233 C   0  0  0  0  0  0  0  0  0  0  0  0
    1.6115   -1.0694   -1.3161 H   0  0  0  0  0  0  0  0  0  0  0  0
    0.0456   -0.6886   -2.0328 H   0  0  0  0  0  0  0  0  0  0  0  0
    1.3785    0.9957   -1.8142 C   0  0  0  0  0  0  0  0  0  0  0  0
    1.8272    1.8020   -0.9655 O   0  5  0  0  0  0  0  0  0  0  0  0
    1.3491    1.2086   -3.0454 O   0  0  0  0  0  0  0  0  0  0  0  0
   -0.0374    1.1645    0.5781 C   0  0  0  0  0  0  0  0  0  0  0  0
   -0.9816    1.8416    0.1544 O   0  0  0  0  0  0  0  0  0  0  0  0
    0.8235    1.6462    1.4801 N   0  0  0  0  0  0  0  0  0  0  0  0
    1.6183    1.0435    1.7020 H   0  0  0  0  0  0  0  0  0  0  0  0
    0.7895    2.9929    2.0404 C   0  0  0  0  0  0  0  0  0  0  0  0
   -0.2344    3.2522    2.3130 H   0  0  0  0  0  0  0  0  0  0  0  0
    1.4265    3.0377    2.9233 H   0  0  0  0  0  0  0  0  0  0  0  0
    1.1511    3.7014    1.2950 H   0  0  0  0  0  0  0  0  0  0  0  0
  5  6  2  0  0  0  0
  5  7  1  0  0  0  0
  2  3  1  0  0  0  0
  2  4  1  0  0  0  0
  2  5  1  0  0  0  0
  1  2  1  0  0  0  0
 17 18  2  0  0  0  0
 17 19  1  0  0  0  0
 14 15  1  0  0  0  0
 14 16  2  0  0  0  0
 11 12  1  0  0  0  0
 11 13  1  0  0  0  0
 11 14  1  0  0  0  0
  9 10  1  0  0  0  0
  9 11  1  0  0  0  0
  9 17  1  0  0  0  0
  7  8  1  0  0  0  0
  7  9  1  0  0  0  0
 21 22  1  0  0  0  0
 21 23  1  0  0  0  0
 21 24  1  0  0  0  0
 19 20  1  0  0  0  0
 19 21  1  0  0  0  0
M  CHG  1  15  -1
M  END
$$$$
default_name
  -OEChem-02102213163D

 24 23  0     1  0  0  0  0  0999 V2000
   -2.8347   -3.7166    0.8034 H   0  0  0  0  0  0  0  0  0  0  0  0
   -2.7728   -2.7096    0.3954 C   0  0  0  0  0  0  0  0  0  0  0  0
   -3.4267   -2.0426    0.9524 H   0  0  0  0  0  0  0  0  0  0  0  0
   -3.0538   -2.7186   -0.6556 H   0  0  0  0  0  0  0  0  0  0  0  0
   -1.3498   -2.2206    0.5184 C   0  0  0  0  0  0  0  0  0  0  0  0
   -0.4997   -2.9426    1.0194 O   0  0  0  0  0  0  0  0  0  0  0  0
   -1.1198   -0.9926    0.0674 N   0  0  0  0  0  0  0  0  0  0  0  0
   -1.8978   -0.4486   -0.2716 H   0  0  0  0  0  0  0  0  0  0  0  0
    0.1693   -0.2866    0.0854 C   0  0  1  0  0  0  0  0  0  0  0  0
    0.8425   -0.7905    0.7811 H   0  0  0  0  0  0  0  0  0  0  0  0
    0.7993   -0.3404   -1.3233 C   0  0  0  0  0  0  0  0  0  0  0  0
    1.6115   -1.0694   -1.3161 H   0  0  0  0  0  0  0  0  0  0  0  0
    0.0456   -0.6886   -2.0328 H   0  0  0  0  0  0  0  0  0  0  0  0
    1.3785    0.9957   -1.8142 C   0  0  0  0  0  0  0  0  0  0  0  0
    2.0773    1.6724   -1.0233 O   0  5  0  0  0  0  0  0  0  0  0  0
    1.0980    1.3406   -2.9823 O   0  0  0  0  0  0  0  0  0  0  0  0
   -0.0374    1.1645    0.5781 C   0  0  0  0  0  0  0  0  0  0  0  0
   -0.9816    1.8416    0.1544 O   0  0  0  0  0  0  0  0  0  0  0  0
    0.8235    1.6462    1.4801 N   0  0  0  0  0  0  0  0  0  0  0  0
    1.6183    1.0435    1.7020 H   0  0  0  0  0  0  0  0  0  0  0  0
    0.7895    2.9929    2.0404 C   0  0  0  0  0  0  0  0  0  0  0  0
   -0.2344    3.2522    2.3130 H   0  0  0  0  0  0  0  0  0  0  0  0
    1.4265    3.0377    2.9233 H   0  0  0  0  0  0  0  0  0  0  0  0
    1.1511    3.7014    1.2950 H   0  0  0  0  0  0  0  0  0  0  0  0
  5  6  2  0  0  0  0
  5  7  1  0  0  0  0
  2  3  1  0  0  0  0
  2  4  1  0  0  0  0
  2  5  1  0  0  0  0
  1  2  1  0  0  0  0
 17 18  2  0  0  0  0
 17 19  1  0  0  0  0
 14 15  1  0  0  0  0
 14 16  2  0  0  0  0
 11 12  1  0  0  0  0
 11 13  1  0  0  0  0
 11 14  1  0  0  0  0
  9 10  1  0  0  0  0
  9 11  1  0  0  0  0
  9 17  1  0  0  0  0
  7  8  1  0  0  0  0
  7  9  1  0  0  0  0
 21 22  1  0  0  0  0
 21 23  1  0  0  0  0
 21 24  1  0  0  0  0
 19 20  1  0  0  0  0
 19 21  1  0  0  0  0
M  CHG  1  15  -1
M  END
$$$$
default_name
  -OEChem-02102213163D

 24 23  0     1  0  0  0  0  0999 V2000
   -2.8347   -3.7166    0.8034 H   0  0  0  0  0  0  0  0  0  0  0  0
   -2.7728   -2.7096    0.3954 C   0  0  0  0  0  0  0  0  0  0  0  0
   -3.4267   -2.0426    0.9524 H   0  0  0  0  0  0  0  0  0  0  0  0
   -3.0538   -2.7186   -0.6556 H   0  0  0  0  0  0  0  0  0  0  0  0
   -1.3498   -2.2206    0.5184 C   0  0  0  0  0  0  0  0  0  0  0  0
   -0.4997   -2.9426    1.0194 O   0  0  0  0  0  0  0  0  0  0  0  0
   -1.1198   -0.9926    0.0674 N   0  0  0  0  0  0  0  0  0  0  0  0
   -1.8978   -0.4486   -0.2716 H   0  0  0  0  0  0  0  0  0  0  0  0
    0.1693   -0.2866    0.0854 C   0  0  1  0  0  0  0  0  0  0  0  0
    0.8425   -0.7905    0.7811 H   0  0  0  0  0  0  0  0  0  0  0  0
    0.7993   -0.3404   -1.3233 C   0  0  0  0  0  0  0  0  0  0  0  0
    1.6115   -1.0694   -1.3161 H   0  0  0  0  0  0  0  0  0  0  0  0
    0.0456   -0.6886   -2.0328 H   0  0  0  0  0  0  0  0  0  0  0  0
    1.3785    0.9957   -1.8142 C   0  0  0  0  0  0  0  0  0  0  0  0
    2.2951    1.5322   -1.1480 O   0  5  0  0  0  0  0  0  0  0  0  0
    0.8805    1.4828   -2.8518 O   0  0  0  0  0  0  0  0  0  0  0  0
   -0.0374    1.1645    0.5781 C   0  0  0  0  0  0  0  0  0  0  0  0
   -0.9816    1.8416    0.1544 O   0  0  0  0  0  0  0  0  0  0  0  0
    0.8235    1.6462    1.4801 N   0  0  0  0  0  0  0  0  0  0  0  0
    1.6183    1.0435    1.7020 H   0  0  0  0  0  0  0  0  0  0  0  0
    0.7895    2.9929    2.0404 C   0  0  0  0  0  0  0  0  0  0  0  0
   -0.2344    3.2522    2.3130 H   0  0  0  0  0  0  0  0  0  0  0  0
    1.4265    3.0377    2.9233 H   0  0  0  0  0  0  0  0  0  0  0  0
    1.1511    3.7014    1.2950 H   0  0  0  0  0  0  0  0  0  0  0  0
  5  6  2  0  0  0  0
  5  7  1  0  0  0  0
  2  3  1  0  0  0  0
  2  4  1  0  0  0  0
  2  5  1  0  0  0  0
  1  2  1  0  0  0  0
 17 18  2  0  0  0  0
 17 19  1  0  0  0  0
 14 15  1  0  0  0  0
 14 16  2  0  0  0  0
 11 12  1  0  0  0  0
 11 13  1  0  0  0  0
 11 14  1  0  0  0  0
  9 10  1  0  0  0  0
  9 11  1  0  0  0  0
  9 17  1  0  0  0  0
  7  8  1  0  0  0  0
  7  9  1  0  0  0  0
 21 22  1  0  0  0  0
 21 23  1  0  0  0  0
 21 24  1  0  0  0  0
 19 20  1  0  0  0  0
 19 21  1  0  0  0  0
M  CHG  1  15  -1
M  END
$$$$
default_name
  -OEChem-02102213163D

 24 23  0     1  0  0  0  0  0999 V2000
   -2.8347   -3.7166    0.8034 H   0  0  0  0  0  0  0  0  0  0  0  0
   -2.7728   -2.7096    0.3954 C   0  0  0  0  0  0  0  0  0  0  0  0
   -3.4267   -2.0426    0.9524 H   0  0  0  0  0  0  0  0  0  0  0  0
   -3.0538   -2.7186   -0.6556 H   0  0  0  0  0  0  0  0  0  0  0  0
   -1.3498   -2.2206    0.5184 C   0  0  0  0  0  0  0  0  0  0  0  0
   -0.4997   -2.9426    1.0194 O   0  0  0  0  0  0  0  0  0  0  0  0
   -1.1198   -0.9926    0.0674 N   0  0  0  0  0  0  0  0  0  0  0  0
   -1.8978   -0.4486   -0.2716 H   0  0  0  0  0  0  0  0  0  0  0  0
    0.1693   -0.2866    0.0854 C   0  0  1  0  0  0  0  0  0  0  0  0
    0.8425   -0.7905    0.7811 H   0  0  0  0  0  0  0  0  0  0  0  0
    0.7993   -0.3404   -1.3233 C   0  0  0  0  0  0  0  0  0  0  0  0
    1.6115   -1.0694   -1.3161 H   0  0  0  0  0  0  0  0  0  0  0  0
    0.0456   -0.6886   -2.0328 H   0  0  0  0  0  0  0  0  0  0  0  0
    1.3785    0.9957   -1.8142 C   0  0  0  0  0  0  0  0  0  0  0  0
    2.4658    1.3909   -1.3311 O   0  5  0  0  0  0  0  0  0  0  0  0
    0.7115    1.6254   -2.6631 O   0  0  0  0  0  0  0  0  0  0  0  0
   -0.0374    1.1645    0.5781 C   0  0  0  0  0  0  0  0  0  0  0  0
   -0.9816    1.8416    0.1544 O   0  0  0  0  0  0  0  0  0  0  0  0
    0.8235    1.6462    1.4801 N   0  0  0  0  0  0  0  0  0  0  0  0
    1.6183    1.0435    1.7020 H   0  0  0  0  0  0  0  0  0  0  0  0
    0.7895    2.9929    2.0404 C   0  0  0  0  0  0  0  0  0  0  0  0
   -0.2344    3.2522    2.3130 H   0  0  0  0  0  0  0  0  0  0  0  0
    1.4265    3.0377    2.9233 H   0  0  0  0  0  0  0  0  0  0  0  0
    1.1511    3.7014    1.2950 H   0  0  0  0  0  0  0  0  0  0  0  0
  5  6  2  0  0  0  0
  5  7  1  0  0  0  0
  2  3  1  0  0  0  0
  2  4  1  0  0  0  0
  2  5  1  0  0  0  0
  1  2  1  0  0  0  0
 17 18  2  0  0  0  0
 17 19  1  0  0  0  0
 14 15  1  0  0  0  0
 14 16  2  0  0  0  0
 11 12  1  0  0  0  0
 11 13  1  0  0  0  0
 11 14  1  0  0  0  0
  9 10  1  0  0  0  0
  9 11  1  0  0  0  0
  9 17  1  0  0  0  0
  7  8  1  0  0  0  0
  7  9  1  0  0  0  0
 21 22  1  0  0  0  0
 21 23  1  0  0  0  0
 21 24  1  0  0  0  0
 19 20  1  0  0  0  0
 19 21  1  0  0  0  0
M  CHG  1  15  -1
M  END
$$$$
default_name
  -OEChem-02102213163D

 24 23  0     1  0  0  0  0  0999 V2000
   -2.8347   -3.7166    0.8034 H   0  0  0  0  0  0  0  0  0  0  0  0
   -2.7728   -2.7096    0.3954 C   0  0  0  0  0  0  0  0  0  0  0  0
   -3.4267   -2.0426    0.9524 H   0  0  0  0  0  0  0  0  0  0  0  0
   -3.0538   -2.7186   -0.6556 H   0  0  0  0  0  0  0  0  0  0  0  0
   -1.3498   -2.2206    0.5184 C   0  0  0  0  0  0  0  0  0  0  0  0
   -0.4997   -2.9426    1.0194 O   0  0  0  0  0  0  0  0  0  0  0  0
   -1.1198   -0.9926    0.0674 N   0  0  0  0  0  0  0  0  0  0  0  0
   -1.8978   -0.4486   -0.2716 H   0  0  0  0  0  0  0  0  0  0  0  0
    0.1693   -0.2866    0.0854 C   0  0  1  0  0  0  0  0  0  0  0  0
    0.8425   -0.7905    0.7811 H   0  0  0  0  0  0  0  0  0  0  0  0
    0.7993   -0.3404   -1.3233 C   0  0  0  0  0  0  0  0  0  0  0  0
    1.6115   -1.0694   -1.3161 H   0  0  0  0  0  0  0  0  0  0  0  0
    0.0456   -0.6886   -2.0328 H   0  0  0  0  0  0  0  0  0  0  0  0
    1.3785    0.9957   -1.8142 C   0  0  0  0  0  0  0  0  0  0  0  0
    2.5778    1.2581   -1.5602 O   0  5  0  0  0  0  0  0  0  0  0  0
    0.6025    1.7587   -2.4288 O   0  0  0  0  0  0  0  0  0  0  0  0
   -0.0374    1.1645    0.5781 C   0  0  0  0  0  0  0  0  0  0  0  0
   -0.9816    1.8416    0.1544 O   0  0  0  0  0  0  0  0  0  0  0  0
    0.8235    1.6462    1.4801 N   0  0  0  0  0  0  0  0  0  0  0  0
    1.6183    1.0435    1.7020 H   0  0  0  0  0  0  0  0  0  0  0  0
    0.7895    2.9929    2.0404 C   0  0  0  0  0  0  0  0  0  0  0  0
   -0.2344    3.2522    2.3130 H   0  0  0  0  0  0  0  0  0  0  0  0
    1.4265    3.0377    2.9233 H   0  0  0  0  0  0  0  0  0  0  0  0
    1.1511    3.7014    1.2950 H   0  0  0  0  0  0  0  0  0  0  0  0
  5  6  2  0  0  0  0
  5  7  1  0  0  0  0
  2  3  1  0  0  0  0
  2  4  1  0  0  0  0
  2  5  1  0  0  0  0
  1  2  1  0  0  0  0
 17 18  2  0  0  0  0
 17 19  1  0  0  0  0
 14 15  1  0  0  0  0
 14 16  2  0  0  0  0
 11 12  1  0  0  0  0
 11 13  1  0  0  0  0
 11 14  1  0  0  0  0
  9 10  1  0  0  0  0
  9 11  1  0  0  0  0
  9 17  1  0  0  0  0
  7  8  1  0  0  0  0
  7  9  1  0  0  0  0
 21 22  1  0  0  0  0
 21 23  1  0  0  0  0
 21 24  1  0  0  0  0
 19 20  1  0  0  0  0
 19 21  1  0  0  0  0
M  CHG  1  15  -1
M  END
$$$$
default_name
  -OEChem-02102213163D

 24 23  0     1  0  0  0  0  0999 V2000
   -2.8347   -3.7166    0.8034 H   0  0  0  0  0  0  0  0  0  0  0  0
   -2.7728   -2.7096    0.3954 C   0  0  0  0  0  0  0  0  0  0  0  0
   -3.4267   -2.0426    0.9524 H   0  0  0  0  0  0  0  0  0  0  0  0
   -3.0538   -2.7186   -0.6556 H   0  0  0  0  0  0  0  0  0  0  0  0
   -1.3498   -2.2206    0.5184 C   0  0  0  0  0  0  0  0  0  0  0  0
   -0.4997   -2.9426    1.0194 O   0  0  0  0  0  0  0  0  0  0  0  0
   -1.1198   -0.9926    0.0674 N   0  0  0  0  0  0  0  0  0  0  0  0
   -1.8978   -0.4486   -0.2716 H   0  0  0  0  0  0  0  0  0  0  0  0
    0.1693   -0.2866    0.0854 C   0  0  1  0  0  0  0  0  0  0  0  0
    0.8425   -0.7905    0.7811 H   0  0  0  0  0  0  0  0  0  0  0  0
    0.7993   -0.3404   -1.3233 C   0  0  0  0  0  0  0  0  0  0  0  0
    1.6115   -1.0694   -1.3161 H   0  0  0  0  0  0  0  0  0  0  0  0
    0.0456   -0.6886   -2.0328 H   0  0  0  0  0  0  0  0  0  0  0  0
    1.3785    0.9957   -1.8142 C   0  0  0  0  0  0  0  0  0  0  0  0
    2.6234    1.1430   -1.8197 O   0  5  0  0  0  0  0  0  0  0  0  0
    0.5610    1.8737   -2.1650 O   0  0  0  0  0  0  0  0  0  0  0  0
   -0.0374    1.1645    0.5781 C   0  0  0  0  0  0  0  0  0  0  0  0
   -0.9816    1.8416    0.1544 O   0  0  0  0  0  0  0  0  0  0  0  0
    0.8235    1.6462    1.4801 N   0  0  0  0  0  0  0  0  0  0  0  0
    1.6183    1.0435    1.7020 H   0  0  0  0  0  0  0  0  0  0  0  0
    0.7895    2.9929    2.0404 C   0  0  0  0  0  0  0  0  0  0  0  0
   -0.2344    3.2522    2.3130 H   0  0  0  0  0  0  0  0  0  0  0  0
    1.4265    3.0377    2.9233 H   0  0  0  0  0  0  0  0  0  0  0  0
    1.1511    3.7014    1.2950 H   0  0  0  0  0  0  0  0  0  0  0  0
  5  6  2  0  0  0  0
  5  7  1  0  0  0  0
  2  3  1  0  0  0  0
  2  4  1  0  0  0  0
  2  5  1  0  0  0  0
  1  2  1  0  0  0  0
 17 18  2  0  0  0  0
 17 19  1  0  0  0  0
 14 15  1  0  0  0  0
 14 16  2  0  0  0  0
 11 12  1  0  0  0  0
 11 13  1  0  0  0  0
 11 14  1  0  0  0  0
  9 10  1  0  0  0  0
  9 11  1  0  0  0  0
  9 17  1  0  0  0  0
  7  8  1  0  0  0  0
  7  9  1  0  0  0  0
 21 22  1  0  0  0  0
 21 23  1  0  0  0  0
 21 24  1  0  0  0  0
 19 20  1  0  0  0  0
 19 21  1  0  0  0  0
M  CHG  1  15  -1
M  END
$$$$
default_name
  -OEChem-02102213163D

 24 23  0     1  0  0  0  0  0999 V2000
   -2.8347   -3.7166    0.8034 H   0  0  0  0  0  0  0  0  0  0  0  0
   -2.7728   -2.7096    0.3954 C   0  0  0  0  0  0  0  0  0  0  0  0
   -3.4267   -2.0426    0.9524 H   0  0  0  0  0  0  0  0  0  0  0  0
   -3.0538   -2.7186   -0.6556 H   0  0  0  0  0  0  0  0  0  0  0  0
   -1.3498   -2.2206    0.5184 C   0  0  0  0  0  0  0  0  0  0  0  0
   -0.4997   -2.9426    1.0194 O   0  0  0  0  0  0  0  0  0  0  0  0
   -1.1198   -0.9926    0.0674 N   0  0  0  0  0  0  0  0  0  0  0  0
   -1.8978   -0.4486   -0.2716 H   0  0  0  0  0  0  0  0  0  0  0  0
    0.1693   -0.2866    0.0854 C   0  0  1  0  0  0  0  0  0  0  0  0
    0.8425   -0.7905    0.7811 H   0  0  0  0  0  0  0  0  0  0  0  0
    0.7993   -0.3404   -1.3233 C   0  0  0  0  0  0  0  0  0  0  0  0
    1.6115   -1.0694   -1.3161 H   0  0  0  0  0  0  0  0  0  0  0  0
    0.0456   -0.6886   -2.0328 H   0  0  0  0  0  0  0  0  0  0  0  0
    1.3785    0.9957   -1.8142 C   0  0  0  0  0  0  0  0  0  0  0  0
    2.5997    1.0534   -2.0918 O   0  5  0  0  0  0  0  0  0  0  0  0
    0.5898    1.9624   -1.8896 O   0  0  0  0  0  0  0  0  0  0  0  0
   -0.0374    1.1645    0.5781 C   0  0  0  0  0  0  0  0  0  0  0  0
   -0.9816    1.8416    0.1544 O   0  0  0  0  0  0  0  0  0  0  0  0
    0.8235    1.6462    1.4801 N   0  0  0  0  0  0  0  0  0  0  0  0
    1.6183    1.0435    1.7020 H   0  0  0  0  0  0  0  0  0  0  0  0
    0.7895    2.9929    2.0404 C   0  0  0  0  0  0  0  0  0  0  0  0
   -0.2344    3.2522    2.3130 H   0  0  0  0  0  0  0  0  0  0  0  0
    1.4265    3.0377    2.9233 H   0  0  0  0  0  0  0  0  0  0  0  0
    1.1511    3.7014    1.2950 H   0  0  0  0  0  0  0  0  0  0  0  0
  5  6  2  0  0  0  0
  5  7  1  0  0  0  0
  2  3  1  0  0  0  0
  2  4  1  0  0  0  0
  2  5  1  0  0  0  0
  1  2  1  0  0  0  0
 17 18  2  0  0  0  0
 17 19  1  0  0  0  0
 14 15  1  0  0  0  0
 14 16  2  0  0  0  0
 11 12  1  0  0  0  0
 11 13  1  0  0  0  0
 11 14  1  0  0  0  0
  9 10  1  0  0  0  0
  9 11  1  0  0  0  0
  9 17  1  0  0  0  0
  7  8  1  0  0  0  0
  7  9  1  0  0  0  0
 21 22  1  0  0  0  0
 21 23  1  0  0  0  0
 21 24  1  0  0  0  0
 19 20  1  0  0  0  0
 19 21  1  0  0  0  0
M  CHG  1  15  -1
M  END
$$$$
default_name
  -OEChem-02102213163D

 24 23  0     1  0  0  0  0  0999 V2000
   -2.8347   -3.7166    0.8034 H   0  0  0  0  0  0  0  0  0  0  0  0
   -2.7728   -2.7096    0.3954 C   0  0  0  0  0  0  0  0  0  0  0  0
   -3.4267   -2.0426    0.9524 H   0  0  0  0  0  0  0  0  0  0  0  0
   -3.0538   -2.7186   -0.6556 H   0  0  0  0  0  0  0  0  0  0  0  0
   -1.3498   -2.2206    0.5184 C   0  0  0  0  0  0  0  0  0  0  0  0
   -0.4997   -2.9426    1.0194 O   0  0  0  0  0  0  0  0  0  0  0  0
   -1.1198   -0.9926    0.0674 N   0  0  0  0  0  0  0  0  0  0  0  0
   -1.8978   -0.4486   -0.2716 H   0  0  0  0  0  0  0  0  0  0  0  0
    0.1693   -0.2866    0.0854 C   0  0  1  0  0  0  0  0  0  0  0  0
    0.8425   -0.7905    0.7811 H   0  0  0  0  0  0  0  0  0  0  0  0
    0.7993   -0.3404   -1.3233 C   0  0  0  0  0  0  0  0  0  0  0  0
    1.6115   -1.0694   -1.3161 H   0  0  0  0  0  0  0  0  0  0  0  0
    0.0456   -0.6886   -2.0328 H   0  0  0  0  0  0  0  0  0  0  0  0
    1.3785    0.9957   -1.8142 C   0  0  0  0  0  0  0  0  0  0  0  0
    2.5080    0.9953   -2.3580 O   0  5  0  0  0  0  0  0  0  0  0  0
    0.6869    2.0188   -1.6215 O   0  0  0  0  0  0  0  0  0  0  0  0
   -0.0374    1.1645    0.5781 C   0  0  0  0  0  0  0  0  0  0  0  0
   -0.9816    1.8416    0.1544 O   0  0  0  0  0  0  0  0  0  0  0  0
    0.8235    1.6462    1.4801 N   0  0  0  0  0  0  0  0  0  0  0  0
    1.6183    1.0435    1.7020 H   0  0  0  0  0  0  0  0  0  0  0  0
    0.7895    2.9929    2.0404 C   0  0  0  0  0  0  0  0  0  0  0  0
   -0.2344    3.2522    2.3130 H   0  0  0  0  0  0  0  0  0  0  0  0
    1.4265    3.0377    2.9233 H   0  0  0  0  0  0  0  0  0  0  0  0
    1.1511    3.7014    1.2950 H   0  0  0  0  0  0  0  0  0  0  0  0
  5  6  2  0  0  0  0
  5  7  1  0  0  0  0
  2  3  1  0  0  0  0
  2  4  1  0  0  0  0
  2  5  1  0  0  0  0
  1  2  1  0  0  0  0
 17 18  2  0  0  0  0
 17 19  1  0  0  0  0
 14 15  1  0  0  0  0
 14 16  2  0  0  0  0
 11 12  1  0  0  0  0
 11 13  1  0  0  0  0
 11 14  1  0  0  0  0
  9 10  1  0  0  0  0
  9 11  1  0  0  0  0
  9 17  1  0  0  0  0
  7  8  1  0  0  0  0
  7  9  1  0  0  0  0
 21 22  1  0  0  0  0
 21 23  1  0  0  0  0
 21 24  1  0  0  0  0
 19 20  1  0  0  0  0
 19 21  1  0  0  0  0
M  CHG  1  15  -1
M  END
$$$$
default_name
  -OEChem-02102213163D

 24 23  0     1  0  0  0  0  0999 V2000
   -2.8347   -3.7166    0.8034 H   0  0  0  0  0  0  0  0  0  0  0  0
   -2.7728   -2.7096    0.3954 C   0  0  0  0  0  0  0  0  0  0  0  0
   -3.4267   -2.0426    0.9524 H   0  0  0  0  0  0  0  0  0  0  0  0
   -3.0538   -2.7186   -0.6556 H   0  0  0  0  0  0  0  0  0  0  0  0
   -1.3498   -2.2206    0.5184 C   0  0  0  0  0  0  0  0  0  0  0  0
   -0.4997   -2.9426    1.0194 O   0  0  0  0  0  0  0  0  0  0  0  0
   -1.1198   -0.9926    0.0674 N   0  0  0  0  0  0  0  0  0  0  0  0
   -1.8978   -0.4486   -0.2716 H   0  0  0  0  0  0  0  0  0  0  0  0
    0.1693   -0.2866    0.0854 C   0  0  1  0  0  0  0  0  0  0  0  0
    0.8425   -0.7905    0.7811 H   0  0  0  0  0  0  0  0  0  0  0  0
    0.7993   -0.3404   -1.3233 C   0  0  0  0  0  0  0  0  0  0  0  0
    1.6115   -1.0694   -1.3161 H   0  0  0  0  0  0  0  0  0  0  0  0
    0.0456   -0.6886   -2.0328 H   0  0  0  0  0  0  0  0  0  0  0  0
    1.3785    0.9957   -1.8142 C   0  0  0  0  0  0  0  0  0  0  0  0
    2.3548    0.9727   -2.6002 O   0  5  0  0  0  0  0  0  0  0  0  0
    0.8457    2.0391   -1.3788 O   0  0  0  0  0  0  0  0  0  0  0  0
   -0.0374    1.1645    0.5781 C   0  0  0  0  0  0  0  0  0  0  0  0
   -0.9816    1.8416    0.1544 O   0  0  0  0  0  0  0  0  0  0  0  0
    0.8235    1.6462    1.4801 N   0  0  0  0  0  0  0  0  0  0  0  0
    1.6183    1.0435    1.7020 H   0  0  0  0  0  0  0  0  0  0  0  0
    0.7895    2.9929    2.0404 C   0  0  0  0  0  0  0  0  0  0  0  0
   -0.2344    3.2522    2.3130 H   0  0  0  0  0  0  0  0  0  0  0  0
    1.4265    3.0377    2.9233 H   0  0  0  0  0  0  0  0  0  0  0  0
    1.1511    3.7014    1.2950 H   0  0  0  0  0  0  0  0  0  0  0  0
  5  6  2  0  0  0  0
  5  7  1  0  0  0  0
  2  3  1  0  0  0  0
  2  4  1  0  0  0  0
  2  5  1  0  0  0  0
  1  2  1  0  0  0  0
 17 18  2  0  0  0  0
 17 19  1  0  0  0  0
 14 15  1  0  0  0  0
 14 16  2  0  0  0  0
 11 12  1  0  0  0  0
 11 13  1  0  0  0  0
 11 14  1  0  0  0  0
  9 10  1  0  0  0  0
  9 11  1  0  0  0  0
  9 17  1  0  0  0  0
  7  8  1  0  0  0  0
  7  9  1  0  0  0  0
 21 22  1  0  0  0  0
 21 23  1  0  0  0  0
 21 24  1  0  0  0  0
 19 20  1  0  0  0  0
 19 21  1  0  0  0  0
M  CHG  1  15  -1
M  END
$$$$
default_name
  -OEChem-02102213163D

 24 23  0     1  0  0  0  0  0999 V2000
   -2.8347   -3.7166    0.8034 H   0  0  0  0  0  0  0  0  0  0  0  0
   -2.7728   -2.7096    0.3954 C   0  0  0  0  0  0  0  0  0  0  0  0
   -3.4267   -2.0426    0.9524 H   0  0  0  0  0  0  0  0  0  0  0  0
   -3.0538   -2.7186   -0.6556 H   0  0  0  0  0  0  0  0  0  0  0  0
   -1.3498   -2.2206    0.5184 C   0  0  0  0  0  0  0  0  0  0  0  0
   -0.4997   -2.9426    1.0194 O   0  0  0  0  0  0  0  0  0  0  0  0
   -1.1198   -0.9926    0.0674 N   0  0  0  0  0  0  0  0  0  0  0  0
   -1.8978   -0.4486   -0.2716 H   0  0  0  0  0  0  0  0  0  0  0  0
    0.1693   -0.2866    0.0854 C   0  0  1  0  0  0  0  0  0  0  0  0
    0.8425   -0.7905    0.7811 H   0  0  0  0  0  0  0  0  0  0  0  0
    0.7993   -0.3404   -1.3233 C   0  0  0  0  0  0  0  0  0  0  0  0
    1.6115   -1.0694   -1.3161 H   0  0  0  0  0  0  0  0  0  0  0  0
    0.0456   -0.6886   -2.0328 H   0  0  0  0  0  0  0  0  0  0  0  0
    1.3785    0.9957   -1.8142 C   0  0  0  0  0  0  0  0  0  0  0  0
    2.1505    0.9872   -2.8019 O   0  5  0  0  0  0  0  0  0  0  0  0
    1.0554    2.0220   -1.1781 O   0  0  0  0  0  0  0  0  0  0  0  0
   -0.0374    1.1645    0.5781 C   0  0  0  0  0  0  0  0  0  0  0  0
   -0.9816    1.8416    0.1544 O   0  0  0  0  0  0  0  0  0  0  0  0
    0.8235    1.6462    1.4801 N   0  0  0  0  0  0  0  0  0  0  0  0
    1.6183    1.0435    1.7020 H   0  0  0  0  0  0  0  0  0  0  0  0
    0.7895    2.9929    2.0404 C   0  0  0  0  0  0  0  0  0  0  0  0
   -0.2344    3.2522    2.3130 H   0  0  0  0  0  0  0  0  0  0  0  0
    1.4265    3.0377    2.9233 H   0  0  0  0  0  0  0  0  0  0  0  0
    1.1511    3.7014    1.2950 H   0  0  0  0  0  0  0  0  0  0  0  0
  5  6  2  0  0  0  0
  5  7  1  0  0  0  0
  2  3  1  0  0  0  0
  2  4  1  0  0  0  0
  2  5  1  0  0  0  0
  1  2  1  0  0  0  0
 17 18  2  0  0  0  0
 17 19  1  0  0  0  0
 14 15  1  0  0  0  0
 14 16  2  0  0  0  0
 11 12  1  0  0  0  0
 11 13  1  0  0  0  0
 11 14  1  0  0  0  0
  9 10  1  0  0  0  0
  9 11  1  0  0  0  0
  9 17  1  0  0  0  0
  7  8  1  0  0  0  0
  7  9  1  0  0  0  0
 21 22  1  0  0  0  0
 21 23  1  0  0  0  0
 21 24  1  0  0  0  0
 19 20  1  0  0  0  0
 19 21  1  0  0  0  0
M  CHG  1  15  -1
M  END
$$$$
default_name
  -OEChem-02102213163D

 24 23  0     1  0  0  0  0  0999 V2000
   -2.8347   -3.7166    0.8034 H   0  0  0  0  0  0  0  0  0  0  0  0
   -2.7728   -2.7096    0.3954 C   0  0  0  0  0  0  0  0  0  0  0  0
   -3.4267   -2.0426    0.9524 H   0  0  0  0  0  0  0  0  0  0  0  0
   -3.0538   -2.7186   -0.6556 H   0  0  0  0  0  0  0  0  0  0  0  0
   -1.3498   -2.2206    0.5184 C   0  0  0  0  0  0  0  0  0  0  0  0
   -0.4997   -2.9426    1.0194 O   0  0  0  0  0  0  0  0  0  0  0  0
   -1.1198   -0.9926    0.0674 N   0  0  0  0  0  0  0  0  0  0  0  0
   -1.8978   -0.4486   -0.2716 H   0  0  0  0  0  0  0  0  0  0  0  0
    0.1693   -0.2866    0.0854 C   0  0  1  0  0  0  0  0  0  0  0  0
    0.8425   -0.7905    0.7811 H   0  0  0  0  0  0  0  0  0  0  0  0
    0.7993   -0.3404   -1.3233 C   0  0  0  0  0  0  0  0  0  0  0  0
    1.4165   -1.2375   -1.3970 H   0  0  0  0  0  0  0  0  0  0  0  0
    0.0003   -0.4242   -2.0632 H   0  0  0  0  0  0  0  0  0  0  0  0
    1.6875    0.8645   -1.6709 C   0  0  0  0  0  0  0  0  0  0  0  0
    2.2374    0.8983   -2.7971 O   0  5  0  0  0  0  0  0  0  0  0  0
    1.8251    1.7407   -0.7903 O   0  0  0  0  0  0  0  0  0  0  0  0
   -0.0374    1.1645    0.5781 C   0  0  0  0  0  0  0  0  0  0  0  0
   -0.9816    1.8416    0.1544 O   0  0  0  0  0  0  0  0  0  0  0  0
    0.8235    1.6462    1.4801 N   0  0  0  0  0  0  0  0  0  0  0  0
    1.6183    1.0435    1.7020 H   0  0  0  0  0  0  0  0  0  0  0  0
    0.7895    2.9929    2.0404 C   0  0  0  0  0  0  0  0  0  0  0  0
   -0.2344    3.2522    2.3130 H   0  0  0  0  0  0  0  0  0  0  0  0
    1.4265    3.0377    2.9233 H   0  0  0  0  0  0  0  0  0  0  0  0
    1.1511    3.7014    1.2950 H   0  0  0  0  0  0  0  0  0  0  0  0
  5  6  2  0  0  0  0
  5  7  1  0  0  0  0
  2  3  1  0  0  0  0
  2  4  1  0  0  0  0
  2  5  1  0  0  0  0
  1  2  1  0  0  0  0
 17 18  2  0  0  0  0
 17 19  1  0  0  0  0
 14 15  1  0  0  0  0
 14 16  2  0  0  0  0
 11 12  1  0  0  0  0
 11 13  1  0  0  0  0
 11 14  1  0  0  0  0
  9 10  1  0  0  0  0
  9 11  1  0  0  0  0
  9 17  1  0  0  0  0
  7  8  1  0  0  0  0
  7  9  1  0  0  0  0
 21 22  1  0  0  0  0
 21 23  1  0  0  0  0
 21 24  1  0  0  0  0
 19 20  1  0  0  0  0
 19 21  1  0  0  0  0
M  CHG  1  15  -1
M  END
$$$$
default_name
  -OEChem-02102213163D

 24 23  0     1  0  0  0  0  0999 V2000
   -2.8347   -3.7166    0.8034 H   0  0  0  0  0  0  0  0  0  0  0  0
   -2.7728   -2.7096    0.3954 C   0  0  0  0  0  0  0  0  0  0  0  0
   -3.4267   -2.0426    0.9524 H   0  0  0  0  0  0  0  0  0  0  0  0
   -3.0538   -2.7186   -0.6556 H   0  0  0  0  0  0  0  0  0  0  0  0
   -1.3498   -2.2206    0.5184 C   0  0  0  0  0  0  0  0  0  0  0  0
   -0.4997   -2.9426    1.0194 O   0  0  0  0  0  0  0  0  0  0  0  0
   -1.1198   -0.9926    0.0674 N   0  0  0  0  0  0  0  0  0  0  0  0
   -1.8978   -0.4486   -0.2716 H   0  0  0  0  0  0  0  0  0  0  0  0
    0.1693   -0.2866    0.0854 C   0  0  1  0  0  0  0  0  0  0  0  0
    0.8425   -0.7905    0.7811 H   0  0  0  0  0  0  0  0  0  0  0  0
    0.7993   -0.3404   -1.3233 C   0  0  0  0  0  0  0  0  0  0  0  0
    1.4165   -1.2375   -1.3970 H   0  0  0  0  0  0  0  0  0  0  0  0
    0.0003   -0.4242   -2.0632 H   0  0  0  0  0  0  0  0  0  0  0  0
    1.6875    0.8645   -1.6709 C   0  0  0  0  0  0  0  0  0  0  0  0
    2.0039    1.0494   -2.8698 O   0  5  0  0  0  0  0  0  0  0  0  0
    2.0616    1.5862   -0.7215 O   0  0  0  0  0  0  0  0  0  0  0  0
   -0.0374    1.1645    0.5781 C   0  0  0  0  0  0  0  0  0  0  0  0
   -0.9816    1.8416    0.1544 O   0  0  0  0  0  0  0  0  0  0  0  0
    0.8235    1.6462    1.4801 N   0  0  0  0  0  0  0  0  0  0  0  0
    1.6183    1.0435    1.7020 H   0  0  0  0  0  0  0  0  0  0  0  0
    0.7895    2.9929    2.0404 C   0  0  0  0  0  0  0  0  0  0  0  0
   -0.2344    3.2522    2.3130 H   0  0  0  0  0  0  0  0  0  0  0  0
    1.4265    3.0377    2.9233 H   0  0  0  0  0  0  0  0  0  0  0  0
    1.1511    3.7014    1.2950 H   0  0  0  0  0  0  0  0  0  0  0  0
  5  6  2  0  0  0  0
  5  7  1  0  0  0  0
  2  3  1  0  0  0  0
  2  4  1  0  0  0  0
  2  5  1  0  0  0  0
  1  2  1  0  0  0  0
 17 18  2  0  0  0  0
 17 19  1  0  0  0  0
 14 15  1  0  0  0  0
 14 16  2  0  0  0  0
 11 12  1  0  0  0  0
 11 13  1  0  0  0  0
 11 14  1  0  0  0  0
  9 10  1  0  0  0  0
  9 11  1  0  0  0  0
  9 17  1  0  0  0  0
  7  8  1  0  0  0  0
  7  9  1  0  0  0  0
 21 22  1  0  0  0  0
 21 23  1  0  0  0  0
 21 24  1  0  0  0  0
 19 20  1  0  0  0  0
 19 21  1  0  0  0  0
M  CHG  1  15  -1
M  END
$$$$
default_name
  -OEChem-02102213163D

 24 23  0     1  0  0  0  0  0999 V2000
   -2.8347   -3.7166    0.8034 H   0  0  0  0  0  0  0  0  0  0  0  0
   -2.7728   -2.7096    0.3954 C   0  0  0  0  0  0  0  0  0  0  0  0
   -3.4267   -2.0426    0.9524 H   0  0  0  0  0  0  0  0  0  0  0  0
   -3.0538   -2.7186   -0.6556 H   0  0  0  0  0  0  0  0  0  0  0  0
   -1.3498   -2.2206    0.5184 C   0  0  0  0  0  0  0  0  0  0  0  0
   -0.4997   -2.9426    1.0194 O   0  0  0  0  0  0  0  0  0  0  0  0
   -1.1198   -0.9926    0.0674 N   0  0  0  0  0  0  0  0  0  0  0  0
   -1.8978   -0.4486   -0.2716 H   0  0  0  0  0  0  0  0  0  0  0  0
    0.1693   -0.2866    0.0854 C   0  0  1  0  0  0  0  0  0  0  0  0
    0.8425   -0.7905    0.7811 H   0  0  0  0  0  0  0  0  0  0  0  0
    0.7993   -0.3404   -1.3233 C   0  0  0  0  0  0  0  0  0  0  0  0
    1.4165   -1.2375   -1.3970 H   0  0  0  0  0  0  0  0  0  0  0  0
    0.0003   -0.4242   -2.0632 H   0  0  0  0  0  0  0  0  0  0  0  0
    1.6875    0.8645   -1.6709 C   0  0  0  0  0  0  0  0  0  0  0  0
    1.7724    1.2199   -2.8701 O   0  5  0  0  0  0  0  0  0  0  0  0
    2.2950    1.4129   -0.7262 O   0  0  0  0  0  0  0  0  0  0  0  0
   -0.0374    1.1645    0.5781 C   0  0  0  0  0  0  0  0  0  0  0  0
   -0.9816    1.8416    0.1544 O   0  0  0  0  0  0  0  0  0  0  0  0
    0.8235    1.6462    1.4801 N   0  0  0  0  0  0  0  0  0  0  0  0
    1.6183    1.0435    1.7020 H   0  0  0  0  0  0  0  0  0  0  0  0
    0.7895    2.9929    2.0404 C   0  0  0  0  0  0  0  0  0  0  0  0
   -0.2344    3.2522    2.3130 H   0  0  0  0  0  0  0  0  0  0  0  0
    1.4265    3.0377    2.9233 H   0  0  0  0  0  0  0  0  0  0  0  0
    1.1511    3.7014    1.2950 H   0  0  0  0  0  0  0  0  0  0  0  0
  5  6  2  0  0  0  0
  5  7  1  0  0  0  0
  2  3  1  0  0  0  0
  2  4  1  0  0  0  0
  2  5  1  0  0  0  0
  1  2  1  0  0  0  0
 17 18  2  0  0  0  0
 17 19  1  0  0  0  0
 14 15  1  0  0  0  0
 14 16  2  0  0  0  0
 11 12  1  0  0  0  0
 11 13  1  0  0  0  0
 11 14  1  0  0  0  0
  9 10  1  0  0  0  0
  9 11  1  0  0  0  0
  9 17  1  0  0  0  0
  7  8  1  0  0  0  0
  7  9  1  0  0  0  0
 21 22  1  0  0  0  0
 21 23  1  0  0  0  0
 21 24  1  0  0  0  0
 19 20  1  0  0  0  0
 19 21  1  0  0  0  0
M  CHG  1  15  -1
M  END
$$$$
default_name
  -OEChem-02102213163D

 24 23  0     1  0  0  0  0  0999 V2000
   -2.8347   -3.7166    0.8034 H   0  0  0  0  0  0  0  0  0  0  0  0
   -2.7728   -2.7096    0.3954 C   0  0  0  0  0  0  0  0  0  0  0  0
   -3.4267   -2.0426    0.9524 H   0  0  0  0  0  0  0  0  0  0  0  0
   -3.0538   -2.7186   -0.6556 H   0  0  0  0  0  0  0  0  0  0  0  0
   -1.3498   -2.2206    0.5184 C   0  0  0  0  0  0  0  0  0  0  0  0
   -0.4997   -2.9426    1.0194 O   0  0  0  0  0  0  0  0  0  0  0  0
   -1.1198   -0.9926    0.0674 N   0  0  0  0  0  0  0  0  0  0  0  0
   -1.8978   -0.4486   -0.2716 H   0  0  0  0  0  0  0  0  0  0  0  0
    0.1693   -0.2866    0.0854 C   0  0  1  0  0  0  0  0  0  0  0  0
    0.8425   -0.7905    0.7811 H   0  0  0  0  0  0  0  0  0  0  0  0
    0.7993   -0.3404   -1.3233 C   0  0  0  0  0  0  0  0  0  0  0  0
    1.4165   -1.2375   -1.3970 H   0  0  0  0  0  0  0  0  0  0  0  0
    0.0003   -0.4242   -2.0632 H   0  0  0  0  0  0  0  0  0  0  0  0
    1.6875    0.8645   -1.6709 C   0  0  0  0  0  0  0  0  0  0  0  0
    1.5588    1.3982   -2.7980 O   0  5  0  0  0  0  0  0  0  0  0  0
    2.5093    1.2324   -0.8040 O   0  0  0  0  0  0  0  0  0  0  0  0
   -0.0374    1.1645    0.5781 C   0  0  0  0  0  0  0  0  0  0  0  0
   -0.9816    1.8416    0.1544 O   0  0  0  0  0  0  0  0  0  0  0  0
    0.8235    1.6462    1.4801 N   0  0  0  0  0  0  0  0  0  0  0  0
    1.6183    1.0435    1.7020 H   0  0  0  0  0  0  0  0  0  0  0  0
    0.7895    2.9929    2.0404 C   0  0  0  0  0  0  0  0  0  0  0  0
   -0.2344    3.2522    2.3130 H   0  0  0  0  0  0  0  0  0  0  0  0
    1.4265    3.0377    2.9233 H   0  0  0  0  0  0  0  0  0  0  0  0
    1.1511    3.7014    1.2950 H   0  0  0  0  0  0  0  0  0  0  0  0
  5  6  2  0  0  0  0
  5  7  1  0  0  0  0
  2  3  1  0  0  0  0
  2  4  1  0  0  0  0
  2  5  1  0  0  0  0
  1  2  1  0  0  0  0
 17 18  2  0  0  0  0
 17 19  1  0  0  0  0
 14 15  1  0  0  0  0
 14 16  2  0  0  0  0
 11 12  1  0  0  0  0
 11 13  1  0  0  0  0
 11 14  1  0  0  0  0
  9 10  1  0  0  0  0
  9 11  1  0  0  0  0
  9 17  1  0  0  0  0
  7  8  1  0  0  0  0
  7  9  1  0  0  0  0
 21 22  1  0  0  0  0
 21 23  1  0  0  0  0
 21 24  1  0  0  0  0
 19 20  1  0  0  0  0
 19 21  1  0  0  0  0
M  CHG  1  15  -1
M  END
$$$$
default_name
  -OEChem-02102213163D

 24 23  0     1  0  0  0  0  0999 V2000
   -2.8347   -3.7166    0.8034 H   0  0  0  0  0  0  0  0  0  0  0  0
   -2.7728   -2.7096    0.3954 C   0  0  0  0  0  0  0  0  0  0  0  0
   -3.4267   -2.0426    0.9524 H   0  0  0  0  0  0  0  0  0  0  0  0
   -3.0538   -2.7186   -0.6556 H   0  0  0  0  0  0  0  0  0  0  0  0
   -1.3498   -2.2206    0.5184 C   0  0  0  0  0  0  0  0  0  0  0  0
   -0.4997   -2.9426    1.0194 O   0  0  0  0  0  0  0  0  0  0  0  0
   -1.1198   -0.9926    0.0674 N   0  0  0  0  0  0  0  0  0  0  0  0
   -1.8978   -0.4486   -0.2716 H   0  0  0  0  0  0  0  0  0  0  0  0
    0.1693   -0.2866    0.0854 C   0  0  1  0  0  0  0  0  0  0  0  0
    0.8425   -0.7905    0.7811 H   0  0  0  0  0  0  0  0  0  0  0  0
    0.7993   -0.3404   -1.3233 C   0  0  0  0  0  0  0  0  0  0  0  0
    1.4165   -1.2375   -1.3970 H   0  0  0  0  0  0  0  0  0  0  0  0
    0.0003   -0.4242   -2.0632 H   0  0  0  0  0  0  0  0  0  0  0  0
    1.6875    0.8645   -1.6709 C   0  0  0  0  0  0  0  0  0  0  0  0
    1.3775    1.5722   -2.6582 O   0  5  0  0  0  0  0  0  0  0  0  0
    2.6899    1.0573   -0.9497 O   0  0  0  0  0  0  0  0  0  0  0  0
   -0.0374    1.1645    0.5781 C   0  0  0  0  0  0  0  0  0  0  0  0
   -0.9816    1.8416    0.1544 O   0  0  0  0  0  0  0  0  0  0  0  0
    0.8235    1.6462    1.4801 N   0  0  0  0  0  0  0  0  0  0  0  0
    1.6183    1.0435    1.7020 H   0  0  0  0  0  0  0  0  0  0  0  0
    0.7895    2.9929    2.0404 C   0  0  0  0  0  0  0  0  0  0  0  0
   -0.2344    3.2522    2.3130 H   0  0  0  0  0  0  0  0  0  0  0  0
    1.4265    3.0377    2.9233 H   0  0  0  0  0  0  0  0  0  0  0  0
    1.1511    3.7014    1.2950 H   0  0  0  0  0  0  0  0  0  0  0  0
  5  6  2  0  0  0  0
  5  7  1  0  0  0  0
  2  3  1  0  0  0  0
  2  4  1  0  0  0  0
  2  5  1  0  0  0  0
  1  2  1  0  0  0  0
 17 18  2  0  0  0  0
 17 19  1  0  0  0  0
 14 15  1  0  0  0  0
 14 16  2  0  0  0  0
 11 12  1  0  0  0  0
 11 13  1  0  0  0  0
 11 14  1  0  0  0  0
  9 10  1  0  0  0  0
  9 11  1  0  0  0  0
  9 17  1  0  0  0  0
  7  8  1  0  0  0  0
  7  9  1  0  0  0  0
 21 22  1  0  0  0  0
 21 23  1  0  0  0  0
 21 24  1  0  0  0  0
 19 20  1  0  0  0  0
 19 21  1  0  0  0  0
M  CHG  1  15  -1
M  END
$$$$
default_name
  -OEChem-02102213163D

 24 23  0     1  0  0  0  0  0999 V2000
   -2.8347   -3.7166    0.8034 H   0  0  0  0  0  0  0  0  0  0  0  0
   -2.7728   -2.7096    0.3954 C   0  0  0  0  0  0  0  0  0  0  0  0
   -3.4267   -2.0426    0.9524 H   0  0  0  0  0  0  0  0  0  0  0  0
   -3.0538   -2.7186   -0.6556 H   0  0  0  0  0  0  0  0  0  0  0  0
   -1.3498   -2.2206    0.5184 C   0  0  0  0  0  0  0  0  0  0  0  0
   -0.4997   -2.9426    1.0194 O   0  0  0  0  0  0  0  0  0  0  0  0
   -1.1198   -0.9926    0.0674 N   0  0  0  0  0  0  0  0  0  0  0  0
   -1.8978   -0.4486   -0.2716 H   0  0  0  0  0  0  0  0  0  0  0  0
    0.1693   -0.2866    0.0854 C   0  0  1  0  0  0  0  0  0  0  0  0
    0.8425   -0.7905    0.7811 H   0  0  0  0  0  0  0  0  0  0  0  0
    0.7993   -0.3404   -1.3233 C   0  0  0  0  0  0  0  0  0  0  0  0
    1.4165   -1.2375   -1.3970 H   0  0  0  0  0  0  0  0  0  0  0  0
    0.0003   -0.4242   -2.0632 H   0  0  0  0  0  0  0  0  0  0  0  0
    1.6875    0.8645   -1.6709 C   0  0  0  0  0  0  0  0  0  0  0  0
    1.2410    1.7299   -2.4604 O   0  5  0  0  0  0  0  0  0  0  0  0
    2.8246    0.8993   -1.1532 O   0  0  0  0  0  0  0  0  0  0  0  0
   -0.0374    1.1645    0.5781 C   0  0  0  0  0  0  0  0  0  0  0  0
   -0.9816    1.8416    0.1544 O   0  0  0  0  0  0  0  0  0  0  0  0
    0.8235    1.6462    1.4801 N   0  0  0  0  0  0  0  0  0  0  0  0
    1.6183    1.0435    1.7020 H   0  0  0  0  0  0  0  0  0  0  0  0
    0.7895    2.9929    2.0404 C   0  0  0  0  0  0  0  0  0  0  0  0
   -0.2344    3.2522    2.3130 H   0  0  0  0  0  0  0  0  0  0  0  0
    1.4265    3.0377    2.9233 H   0  0  0  0  0  0  0  0  0  0  0  0
    1.1511    3.7014    1.2950 H   0  0  0  0  0  0  0  0  0  0  0  0
  5  6  2  0  0  0  0
  5  7  1  0  0  0  0
  2  3  1  0  0  0  0
  2  4  1  0  0  0  0
  2  5  1  0  0  0  0
  1  2  1  0  0  0  0
 17 18  2  0  0  0  0
 17 19  1  0  0  0  0
 14 15  1  0  0  0  0
 14 16  2  0  0  0  0
 11 12  1  0  0  0  0
 11 13  1  0  0  0  0
 11 14  1  0  0  0  0
  9 10  1  0  0  0  0
  9 11  1  0  0  0  0
  9 17  1  0  0  0  0
  7  8  1  0  0  0  0
  7  9  1  0  0  0  0
 21 22  1  0  0  0  0
 21 23  1  0  0  0  0
 21 24  1  0  0  0  0
 19 20  1  0  0  0  0
 19 21  1  0  0  0  0
M  CHG  1  15  -1
M  END
$$$$
default_name
  -OEChem-02102213163D

 24 23  0     1  0  0  0  0  0999 V2000
   -2.8347   -3.7166    0.8034 H   0  0  0  0  0  0  0  0  0  0  0  0
   -2.7728   -2.7096    0.3954 C   0  0  0  0  0  0  0  0  0  0  0  0
   -3.4267   -2.0426    0.9524 H   0  0  0  0  0  0  0  0  0  0  0  0
   -3.0538   -2.7186   -0.6556 H   0  0  0  0  0  0  0  0  0  0  0  0
   -1.3498   -2.2206    0.5184 C   0  0  0  0  0  0  0  0  0  0  0  0
   -0.4997   -2.9426    1.0194 O   0  0  0  0  0  0  0  0  0  0  0  0
   -1.1198   -0.9926    0.0674 N   0  0  0  0  0  0  0  0  0  0  0  0
   -1.8978   -0.4486   -0.2716 H   0  0  0  0  0  0  0  0  0  0  0  0
    0.1693   -0.2866    0.0854 C   0  0  1  0  0  0  0  0  0  0  0  0
    0.8425   -0.7905    0.7811 H   0  0  0  0  0  0  0  0  0  0  0  0
    0.7993   -0.3404   -1.3233 C   0  0  0  0  0  0  0  0  0  0  0  0
    1.4165   -1.2375   -1.3970 H   0  0  0  0  0  0  0  0  0  0  0  0
    0.0003   -0.4242   -2.0632 H   0  0  0  0  0  0  0  0  0  0  0  0
    1.6875    0.8645   -1.6709 C   0  0  0  0  0  0  0  0  0  0  0  0
    1.1585    1.8607   -2.2180 O   0  5  0  0  0  0  0  0  0  0  0  0
    2.9041    0.7692   -1.4007 O   0  0  0  0  0  0  0  0  0  0  0  0
   -0.0374    1.1645    0.5781 C   0  0  0  0  0  0  0  0  0  0  0  0
   -0.9816    1.8416    0.1544 O   0  0  0  0  0  0  0  0  0  0  0  0
    0.8235    1.6462    1.4801 N   0  0  0  0  0  0  0  0  0  0  0  0
    1.6183    1.0435    1.7020 H   0  0  0  0  0  0  0  0  0  0  0  0
    0.7895    2.9929    2.0404 C   0  0  0  0  0  0  0  0  0  0  0  0
   -0.2344    3.2522    2.3130 H   0  0  0  0  0  0  0  0  0  0  0  0
    1.4265    3.0377    2.9233 H   0  0  0  0  0  0  0  0  0  0  0  0
    1.1511    3.7014    1.2950 H   0  0  0  0  0  0  0  0  0  0  0  0
  5  6  2  0  0  0  0
  5  7  1  0  0  0  0
  2  3  1  0  0  0  0
  2  4  1  0  0  0  0
  2  5  1  0  0  0  0
  1  2  1  0  0  0  0
 17 18  2  0  0  0  0
 17 19  1  0  0  0  0
 14 15  1  0  0  0  0
 14 16  2  0  0  0  0
 11 12  1  0  0  0  0
 11 13  1  0  0  0  0
 11 14  1  0  0  0  0
  9 10  1  0  0  0  0
  9 11  1  0  0  0  0
  9 17  1  0  0  0  0
  7  8  1  0  0  0  0
  7  9  1  0  0  0  0
 21 22  1  0  0  0  0
 21 23  1  0  0  0  0
 21 24  1  0  0  0  0
 19 20  1  0  0  0  0
 19 21  1  0  0  0  0
M  CHG  1  15  -1
M  END
$$$$
default_name
  -OEChem-02102213163D

 24 23  0     1  0  0  0  0  0999 V2000
   -2.8347   -3.7166    0.8034 H   0  0  0  0  0  0  0  0  0  0  0  0
   -2.7728   -2.7096    0.3954 C   0  0  0  0  0  0  0  0  0  0  0  0
   -3.4267   -2.0426    0.9524 H   0  0  0  0  0  0  0  0  0  0  0  0
   -3.0538   -2.7186   -0.6556 H   0  0  0  0  0  0  0  0  0  0  0  0
   -1.3498   -2.2206    0.5184 C   0  0  0  0  0  0  0  0  0  0  0  0
   -0.4997   -2.9426    1.0194 O   0  0  0  0  0  0  0  0  0  0  0  0
   -1.1198   -0.9926    0.0674 N   0  0  0  0  0  0  0  0  0  0  0  0
   -1.8978   -0.4486   -0.2716 H   0  0  0  0  0  0  0  0  0  0  0  0
    0.1693   -0.2866    0.0854 C   0  0  1  0  0  0  0  0  0  0  0  0
    0.8425   -0.7905    0.7811 H   0  0  0  0  0  0  0  0  0  0  0  0
    0.7993   -0.3404   -1.3233 C   0  0  0  0  0  0  0  0  0  0  0  0
    1.4165   -1.2375   -1.3970 H   0  0  0  0  0  0  0  0  0  0  0  0
    0.0003   -0.4242   -2.0632 H   0  0  0  0  0  0  0  0  0  0  0  0
    1.6875    0.8645   -1.6709 C   0  0  0  0  0  0  0  0  0  0  0  0
    1.1356    1.9556   -1.9476 O   0  5  0  0  0  0  0  0  0  0  0  0
    2.9231    0.6759   -1.6755 O   0  0  0  0  0  0  0  0  0  0  0  0
   -0.0374    1.1645    0.5781 C   0  0  0  0  0  0  0  0  0  0  0  0
   -0.9816    1.8416    0.1544 O   0  0  0  0  0  0  0  0  0  0  0  0
    0.8235    1.6462    1.4801 N   0  0  0  0  0  0  0  0  0  0  0  0
    1.6183    1.0435    1.7020 H   0  0  0  0  0  0  0  0  0  0  0  0
    0.7895    2.9929    2.0404 C   0  0  0  0  0  0  0  0  0  0  0  0
   -0.2344    3.2522    2.3130 H   0  0  0  0  0  0  0  0  0  0  0  0
    1.4265    3.0377    2.9233 H   0  0  0  0  0  0  0  0  0  0  0  0
    1.1511    3.7014    1.2950 H   0  0  0  0  0  0  0  0  0  0  0  0
  5  6  2  0  0  0  0
  5  7  1  0  0  0  0
  2  3  1  0  0  0  0
  2  4  1  0  0  0  0
  2  5  1  0  0  0  0
  1  2  1  0  0  0  0
 17 18  2  0  0  0  0
 17 19  1  0  0  0  0
 14 15  1  0  0  0  0
 14 16  2  0  0  0  0
 11 12  1  0  0  0  0
 11 13  1  0  0  0  0
 11 14  1  0  0  0  0
  9 10  1  0  0  0  0
  9 11  1  0  0  0  0
  9 17  1  0  0  0  0
  7  8  1  0  0  0  0
  7  9  1  0  0  0  0
 21 22  1  0  0  0  0
 21 23  1  0  0  0  0
 21 24  1  0  0  0  0
 19 20  1  0  0  0  0
 19 21  1  0  0  0  0
M  CHG  1  15  -1
M  END
$$$$
default_name
  -OEChem-02102213163D

 24 23  0     1  0  0  0  0  0999 V2000
   -2.8347   -3.7166    0.8034 H   0  0  0  0  0  0  0  0  0  0  0  0
   -2.7728   -2.7096    0.3954 C   0  0  0  0  0  0  0  0  0  0  0  0
   -3.4267   -2.0426    0.9524 H   0  0  0  0  0  0  0  0  0  0  0  0
   -3.0538   -2.7186   -0.6556 H   0  0  0  0  0  0  0  0  0  0  0  0
   -1.3498   -2.2206    0.5184 C   0  0  0  0  0  0  0  0  0  0  0  0
   -0.4997   -2.9426    1.0194 O   0  0  0  0  0  0  0  0  0  0  0  0
   -1.1198   -0.9926    0.0674 N   0  0  0  0  0  0  0  0  0  0  0  0
   -1.8978   -0.4486   -0.2716 H   0  0  0  0  0  0  0  0  0  0  0  0
    0.1693   -0.2866    0.0854 C   0  0  1  0  0  0  0  0  0  0  0  0
    0.8425   -0.7905    0.7811 H   0  0  0  0  0  0  0  0  0  0  0  0
    0.7993   -0.3404   -1.3233 C   0  0  0  0  0  0  0  0  0  0  0  0
    1.4165   -1.2375   -1.3970 H   0  0  0  0  0  0  0  0  0  0  0  0
    0.0003   -0.4242   -2.0632 H   0  0  0  0  0  0  0  0  0  0  0  0
    1.6875    0.8645   -1.6709 C   0  0  0  0  0  0  0  0  0  0  0  0
    1.1739    2.0081   -1.6676 O   0  5  0  0  0  0  0  0  0  0  0  0
    2.8802    0.6259   -1.9586 O   0  0  0  0  0  0  0  0  0  0  0  0
   -0.0374    1.1645    0.5781 C   0  0  0  0  0  0  0  0  0  0  0  0
   -0.9816    1.8416    0.1544 O   0  0  0  0  0  0  0  0  0  0  0  0
    0.8235    1.6462    1.4801 N   0  0  0  0  0  0  0  0  0  0  0  0
    1.6183    1.0435    1.7020 H   0  0  0  0  0  0  0  0  0  0  0  0
    0.7895    2.9929    2.0404 C   0  0  0  0  0  0  0  0  0  0  0  0
   -0.2344    3.2522    2.3130 H   0  0  0  0  0  0  0  0  0  0  0  0
    1.4265    3.0377    2.9233 H   0  0  0  0  0  0  0  0  0  0  0  0
    1.1511    3.7014    1.2950 H   0  0  0  0  0  0  0  0  0  0  0  0
  5  6  2  0  0  0  0
  5  7  1  0  0  0  0
  2  3  1  0  0  0  0
  2  4  1  0  0  0  0
  2  5  1  0  0  0  0
  1  2  1  0  0  0  0
 17 18  2  0  0  0  0
 17 19  1  0  0  0  0
 14 15  1  0  0  0  0
 14 16  2  0  0  0  0
 11 12  1  0  0  0  0
 11 13  1  0  0  0  0
 11 14  1  0  0  0  0
  9 10  1  0  0  0  0
  9 11  1  0  0  0  0
  9 17  1  0  0  0  0
  7  8  1  0  0  0  0
  7  9  1  0  0  0  0
 21 22  1  0  0  0  0
 21 23  1  0  0  0  0
 21 24  1  0  0  0  0
 19 20  1  0  0  0  0
 19 21  1  0  0  0  0
M  CHG  1  15  -1
M  END
$$$$
default_name
  -OEChem-02102213163D

 24 23  0     1  0  0  0  0  0999 V2000
   -2.8347   -3.7166    0.8034 H   0  0  0  0  0  0  0  0  0  0  0  0
   -2.7728   -2.7096    0.3954 C   0  0  0  0  0  0  0  0  0  0  0  0
   -3.4267   -2.0426    0.9524 H   0  0  0  0  0  0  0  0  0  0  0  0
   -3.0538   -2.7186   -0.6556 H   0  0  0  0  0  0  0  0  0  0  0  0
   -1.3498   -2.2206    0.5184 C   0  0  0  0  0  0  0  0  0  0  0  0
   -0.4997   -2.9426    1.0194 O   0  0  0  0  0  0  0  0  0  0  0  0
   -1.1198   -0.9926    0.0674 N   0  0  0  0  0  0  0  0  0  0  0  0
   -1.8978   -0.4486   -0.2716 H   0  0  0  0  0  0  0  0  0  0  0  0
    0.1693   -0.2866    0.0854 C   0  0  1  0  0  0  0  0  0  0  0  0
    0.8425   -0.7905    0.7811 H   0  0  0  0  0  0  0  0  0  0  0  0
    0.7993   -0.3404   -1.3233 C   0  0  0  0  0  0  0  0  0  0  0  0
    1.4165   -1.2375   -1.3970 H   0  0  0  0  0  0  0  0  0  0  0  0
    0.0003   -0.4242   -2.0632 H   0  0  0  0  0  0  0  0  0  0  0  0
    1.6875    0.8645   -1.6709 C   0  0  0  0  0  0  0  0  0  0  0  0
    1.2709    2.0147   -1.3970 O   0  5  0  0  0  0  0  0  0  0  0  0
    2.7784    0.6224   -2.2309 O   0  0  0  0  0  0  0  0  0  0  0  0
   -0.0374    1.1645    0.5781 C   0  0  0  0  0  0  0  0  0  0  0  0
   -0.9816    1.8416    0.1544 O   0  0  0  0  0  0  0  0  0  0  0  0
    0.8235    1.6462    1.4801 N   0  0  0  0  0  0  0  0  0  0  0  0
    1.6183    1.0435    1.7020 H   0  0  0  0  0  0  0  0  0  0  0  0
    0.7895    2.9929    2.0404 C   0  0  0  0  0  0  0  0  0  0  0  0
   -0.2344    3.2522    2.3130 H   0  0  0  0  0  0  0  0  0  0  0  0
    1.4265    3.0377    2.9233 H   0  0  0  0  0  0  0  0  0  0  0  0
    1.1511    3.7014    1.2950 H   0  0  0  0  0  0  0  0  0  0  0  0
  5  6  2  0  0  0  0
  5  7  1  0  0  0  0
  2  3  1  0  0  0  0
  2  4  1  0  0  0  0
  2  5  1  0  0  0  0
  1  2  1  0  0  0  0
 17 18  2  0  0  0  0
 17 19  1  0  0  0  0
 14 15  1  0  0  0  0
 14 16  2  0  0  0  0
 11 12  1  0  0  0  0
 11 13  1  0  0  0  0
 11 14  1  0  0  0  0
  9 10  1  0  0  0  0
  9 11  1  0  0  0  0
  9 17  1  0  0  0  0
  7  8  1  0  0  0  0
  7  9  1  0  0  0  0
 21 22  1  0  0  0  0
 21 23  1  0  0  0  0
 21 24  1  0  0  0  0
 19 20  1  0  0  0  0
 19 21  1  0  0  0  0
M  CHG  1  15  -1
M  END
$$$$
default_name
  -OEChem-02102213163D

 24 23  0     1  0  0  0  0  0999 V2000
   -2.8347   -3.7166    0.8034 H   0  0  0  0  0  0  0  0  0  0  0  0
   -2.7728   -2.7096    0.3954 C   0  0  0  0  0  0  0  0  0  0  0  0
   -3.4267   -2.0426    0.9524 H   0  0  0  0  0  0  0  0  0  0  0  0
   -3.0538   -2.7186   -0.6556 H   0  0  0  0  0  0  0  0  0  0  0  0
   -1.3498   -2.2206    0.5184 C   0  0  0  0  0  0  0  0  0  0  0  0
   -0.4997   -2.9426    1.0194 O   0  0  0  0  0  0  0  0  0  0  0  0
   -1.1198   -0.9926    0.0674 N   0  0  0  0  0  0  0  0  0  0  0  0
   -1.8978   -0.4486   -0.2716 H   0  0  0  0  0  0  0  0  0  0  0  0
    0.1693   -0.2866    0.0854 C   0  0  1  0  0  0  0  0  0  0  0  0
    0.8425   -0.7905    0.7811 H   0  0  0  0  0  0  0  0  0  0  0  0
    0.7993   -0.3404   -1.3233 C   0  0  0  0  0  0  0  0  0  0  0  0
    1.4165   -1.2375   -1.3970 H   0  0  0  0  0  0  0  0  0  0  0  0
    0.0003   -0.4242   -2.0632 H   0  0  0  0  0  0  0  0  0  0  0  0
    1.6875    0.8645   -1.6709 C   0  0  0  0  0  0  0  0  0  0  0  0
    1.4198    1.9750   -1.1544 O   0  5  0  0  0  0  0  0  0  0  0  0
    2.6245    0.6657   -2.4738 O   0  0  0  0  0  0  0  0  0  0  0  0
   -0.0374    1.1645    0.5781 C   0  0  0  0  0  0  0  0  0  0  0  0
   -0.9816    1.8416    0.1544 O   0  0  0  0  0  0  0  0  0  0  0  0
    0.8235    1.6462    1.4801 N   0  0  0  0  0  0  0  0  0  0  0  0
    1.6183    1.0435    1.7020 H   0  0  0  0  0  0  0  0  0  0  0  0
    0.7895    2.9929    2.0404 C   0  0  0  0  0  0  0  0  0  0  0  0
   -0.2344    3.2522    2.3130 H   0  0  0  0  0  0  0  0  0  0  0  0
    1.4265    3.0377    2.9233 H   0  0  0  0  0  0  0  0  0  0  0  0
    1.1511    3.7014    1.2950 H   0  0  0  0  0  0  0  0  0  0  0  0
  5  6  2  0  0  0  0
  5  7  1  0  0  0  0
  2  3  1  0  0  0  0
  2  4  1  0  0  0  0
  2  5  1  0  0  0  0
  1  2  1  0  0  0  0
 17 18  2  0  0  0  0
 17 19  1  0  0  0  0
 14 15  1  0  0  0  0
 14 16  2  0  0  0  0
 11 12  1  0  0  0  0
 11 13  1  0  0  0  0
 11 14  1  0  0  0  0
  9 10  1  0  0  0  0
  9 11  1  0  0  0  0
  9 17  1  0  0  0  0
  7  8  1  0  0  0  0
  7  9  1  0  0  0  0
 21 22  1  0  0  0  0
 21 23  1  0  0  0  0
 21 24  1  0  0  0  0
 19 20  1  0  0  0  0
 19 21  1  0  0  0  0
M  CHG  1  15  -1
M  END
$$$$
default_name
  -OEChem-02102213163D

 24 23  0     1  0  0  0  0  0999 V2000
   -2.8347   -3.7166    0.8034 H   0  0  0  0  0  0  0  0  0  0  0  0
   -2.7728   -2.7096    0.3954 C   0  0  0  0  0  0  0  0  0  0  0  0
   -3.4267   -2.0426    0.9524 H   0  0  0  0  0  0  0  0  0  0  0  0
   -3.0538   -2.7186   -0.6556 H   0  0  0  0  0  0  0  0  0  0  0  0
   -1.3498   -2.2206    0.5184 C   0  0  0  0  0  0  0  0  0  0  0  0
   -0.4997   -2.9426    1.0194 O   0  0  0  0  0  0  0  0  0  0  0  0
   -1.1198   -0.9926    0.0674 N   0  0  0  0  0  0  0  0  0  0  0  0
   -1.8978   -0.4486   -0.2716 H   0  0  0  0  0  0  0  0  0  0  0  0
    0.1693   -0.2866    0.0854 C   0  0  1  0  0  0  0  0  0  0  0  0
    0.8425   -0.7905    0.7811 H   0  0  0  0  0  0  0  0  0  0  0  0
    0.7993   -0.3404   -1.3233 C   0  0  0  0  0  0  0  0  0  0  0  0
    1.4165   -1.2375   -1.3970 H   0  0  0  0  0  0  0  0  0  0  0  0
    0.0003   -0.4242   -2.0632 H   0  0  0  0  0  0  0  0  0  0  0  0
    1.6875    0.8645   -1.6709 C   0  0  0  0  0  0  0  0  0  0  0  0
    1.6106    1.8915   -0.9561 O   0  5  0  0  0  0  0  0  0  0  0  0
    2.4292    0.7528   -2.6707 O   0  0  0  0  0  0  0  0  0  0  0  0
   -0.0374    1.1645    0.5781 C   0  0  0  0  0  0  0  0  0  0  0  0
   -0.9816    1.8416    0.1544 O   0  0  0  0  0  0  0  0  0  0  0  0
    0.8235    1.6462    1.4801 N   0  0  0  0  0  0  0  0  0  0  0  0
    1.6183    1.0435    1.7020 H   0  0  0  0  0  0  0  0  0  0  0  0
    0.7895    2.9929    2.0404 C   0  0  0  0  0  0  0  0  0  0  0  0
   -0.2344    3.2522    2.3130 H   0  0  0  0  0  0  0  0  0  0  0  0
    1.4265    3.0377    2.9233 H   0  0  0  0  0  0  0  0  0  0  0  0
    1.1511    3.7014    1.2950 H   0  0  0  0  0  0  0  0  0  0  0  0
  5  6  2  0  0  0  0
  5  7  1  0  0  0  0
  2  3  1  0  0  0  0
  2  4  1  0  0  0  0
  2  5  1  0  0  0  0
  1  2  1  0  0  0  0
 17 18  2  0  0  0  0
 17 19  1  0  0  0  0
 14 15  1  0  0  0  0
 14 16  2  0  0  0  0
 11 12  1  0  0  0  0
 11 13  1  0  0  0  0
 11 14  1  0  0  0  0
  9 10  1  0  0  0  0
  9 11  1  0  0  0  0
  9 17  1  0  0  0  0
  7  8  1  0  0  0  0
  7  9  1  0  0  0  0
 21 22  1  0  0  0  0
 21 23  1  0  0  0  0
 21 24  1  0  0  0  0
 19 20  1  0  0  0  0
 19 21  1  0  0  0  0
M  CHG  1  15  -1
M  END
$$$$
default_name
  -OEChem-02102213163D

 24 23  0     1  0  0  0  0  0999 V2000
   -2.8347   -3.7166    0.8034 H   0  0  0  0  0  0  0  0  0  0  0  0
   -2.7728   -2.7096    0.3954 C   0  0  0  0  0  0  0  0  0  0  0  0
   -3.4267   -2.0426    0.9524 H   0  0  0  0  0  0  0  0  0  0  0  0
   -3.0538   -2.7186   -0.6556 H   0  0  0  0  0  0  0  0  0  0  0  0
   -1.3498   -2.2206    0.5184 C   0  0  0  0  0  0  0  0  0  0  0  0
   -0.4997   -2.9426    1.0194 O   0  0  0  0  0  0  0  0  0  0  0  0
   -1.1198   -0.9926    0.0674 N   0  0  0  0  0  0  0  0  0  0  0  0
   -1.8978   -0.4486   -0.2716 H   0  0  0  0  0  0  0  0  0  0  0  0
    0.1693   -0.2866    0.0854 C   0  0  1  0  0  0  0  0  0  0  0  0
    0.8425   -0.7905    0.7811 H   0  0  0  0  0  0  0  0  0  0  0  0
    0.7993   -0.3404   -1.3233 C   0  0  0  0  0  0  0  0  0  0  0  0
    1.4165   -1.2375   -1.3970 H   0  0  0  0  0  0  0  0  0  0  0  0
    0.0003   -0.4242   -2.0632 H   0  0  0  0  0  0  0  0  0  0  0  0
    1.6875    0.8645   -1.6709 C   0  0  0  0  0  0  0  0  0  0  0  0
    1.8302    1.7701   -0.8159 O   0  5  0  0  0  0  0  0  0  0  0  0
    2.2057    0.8779   -2.8082 O   0  0  0  0  0  0  0  0  0  0  0  0
   -0.0374    1.1645    0.5781 C   0  0  0  0  0  0  0  0  0  0  0  0
   -0.9816    1.8416    0.1544 O   0  0  0  0  0  0  0  0  0  0  0  0
    0.8235    1.6462    1.4801 N   0  0  0  0  0  0  0  0  0  0  0  0
    1.6183    1.0435    1.7020 H   0  0  0  0  0  0  0  0  0  0  0  0
    0.7895    2.9929    2.0404 C   0  0  0  0  0  0  0  0  0  0  0  0
   -0.2344    3.2522    2.3130 H   0  0  0  0  0  0  0  0  0  0  0  0
    1.4265    3.0377    2.9233 H   0  0  0  0  0  0  0  0  0  0  0  0
    1.1511    3.7014    1.2950 H   0  0  0  0  0  0  0  0  0  0  0  0
  5  6  2  0  0  0  0
  5  7  1  0  0  0  0
  2  3  1  0  0  0  0
  2  4  1  0  0  0  0
  2  5  1  0  0  0  0
  1  2  1  0  0  0  0
 17 18  2  0  0  0  0
 17 19  1  0  0  0  0
 14 15  1  0  0  0  0
 14 16  2  0  0  0  0
 11 12  1  0  0  0  0
 11 13  1  0  0  0  0
 11 14  1  0  0  0  0
  9 10  1  0  0  0  0
  9 11  1  0  0  0  0
  9 17  1  0  0  0  0
  7  8  1  0  0  0  0
  7  9  1  0  0  0  0
 21 22  1  0  0  0  0
 21 23  1  0  0  0  0
 21 24  1  0  0  0  0
 19 20  1  0  0  0  0
 19 21  1  0  0  0  0
M  CHG  1  15  -1
M  END
$$$$
default_name
  -OEChem-02102213163D

 24 23  0     1  0  0  0  0  0999 V2000
   -2.8347   -3.7166    0.8034 H   0  0  0  0  0  0  0  0  0  0  0  0
   -2.7728   -2.7096    0.3954 C   0  0  0  0  0  0  0  0  0  0  0  0
   -3.4267   -2.0426    0.9524 H   0  0  0  0  0  0  0  0  0  0  0  0
   -3.0538   -2.7186   -0.6556 H   0  0  0  0  0  0  0  0  0  0  0  0
   -1.3498   -2.2206    0.5184 C   0  0  0  0  0  0  0  0  0  0  0  0
   -0.4997   -2.9426    1.0194 O   0  0  0  0  0  0  0  0  0  0  0  0
   -1.1198   -0.9926    0.0674 N   0  0  0  0  0  0  0  0  0  0  0  0
   -1.8978   -0.4486   -0.2716 H   0  0  0  0  0  0  0  0  0  0  0  0
    0.1693   -0.2866    0.0854 C   0  0  1  0  0  0  0  0  0  0  0  0
    0.8425   -0.7905    0.7811 H   0  0  0  0  0  0  0  0  0  0  0  0
    0.7993   -0.3404   -1.3233 C   0  0  0  0  0  0  0  0  0  0  0  0
    1.4165   -1.2375   -1.3970 H   0  0  0  0  0  0  0  0  0  0  0  0
    0.0003   -0.4242   -2.0632 H   0  0  0  0  0  0  0  0  0  0  0  0
    1.6875    0.8645   -1.6709 C   0  0  0  0  0  0  0  0  0  0  0  0
    2.0636    1.6190   -0.7431 O   0  5  0  0  0  0  0  0  0  0  0  0
    1.9692    1.0324   -2.8770 O   0  0  0  0  0  0  0  0  0  0  0  0
   -0.0374    1.1645    0.5781 C   0  0  0  0  0  0  0  0  0  0  0  0
   -0.9816    1.8416    0.1544 O   0  0  0  0  0  0  0  0  0  0  0  0
    0.8235    1.6462    1.4801 N   0  0  0  0  0  0  0  0  0  0  0  0
    1.6183    1.0435    1.7020 H   0  0  0  0  0  0  0  0  0  0  0  0
    0.7895    2.9929    2.0404 C   0  0  0  0  0  0  0  0  0  0  0  0
   -0.2344    3.2522    2.3130 H   0  0  0  0  0  0  0  0  0  0  0  0
    1.4265    3.0377    2.9233 H   0  0  0  0  0  0  0  0  0  0  0  0
    1.1511    3.7014    1.2950 H   0  0  0  0  0  0  0  0  0  0  0  0
  5  6  2  0  0  0  0
  5  7  1  0  0  0  0
  2  3  1  0  0  0  0
  2  4  1  0  0  0  0
  2  5  1  0  0  0  0
  1  2  1  0  0  0  0
 17 18  2  0  0  0  0
 17 19  1  0  0  0  0
 14 15  1  0  0  0  0
 14 16  2  0  0  0  0
 11 12  1  0  0  0  0
 11 13  1  0  0  0  0
 11 14  1  0  0  0  0
  9 10  1  0  0  0  0
  9 11  1  0  0  0  0
  9 17  1  0  0  0  0
  7  8  1  0  0  0  0
  7  9  1  0  0  0  0
 21 22  1  0  0  0  0
 21 23  1  0  0  0  0
 21 24  1  0  0  0  0
 19 20  1  0  0  0  0
 19 21  1  0  0  0  0
M  CHG  1  15  -1
M  END
$$$$
default_name
  -OEChem-02102213163D

 24 23  0     1  0  0  0  0  0999 V2000
   -2.8347   -3.7166    0.8034 H   0  0  0  0  0  0  0  0  0  0  0  0
   -2.7728   -2.7096    0.3954 C   0  0  0  0  0  0  0  0  0  0  0  0
   -3.4267   -2.0426    0.9524 H   0  0  0  0  0  0  0  0  0  0  0  0
   -3.0538   -2.7186   -0.6556 H   0  0  0  0  0  0  0  0  0  0  0  0
   -1.3498   -2.2206    0.5184 C   0  0  0  0  0  0  0  0  0  0  0  0
   -0.4997   -2.9426    1.0194 O   0  0  0  0  0  0  0  0  0  0  0  0
   -1.1198   -0.9926    0.0674 N   0  0  0  0  0  0  0  0  0  0  0  0
   -1.8978   -0.4486   -0.2716 H   0  0  0  0  0  0  0  0  0  0  0  0
    0.1693   -0.2866    0.0854 C   0  0  1  0  0  0  0  0  0  0  0  0
    0.8425   -0.7905    0.7811 H   0  0  0  0  0  0  0  0  0  0  0  0
    0.7993   -0.3404   -1.3233 C   0  0  0  0  0  0  0  0  0  0  0  0
    1.4165   -1.2375   -1.3970 H   0  0  0  0  0  0  0  0  0  0  0  0
    0.0003   -0.4242   -2.0632 H   0  0  0  0  0  0  0  0  0  0  0  0
    1.6875    0.8645   -1.6709 C   0  0  0  0  0  0  0  0  0  0  0  0
    2.2951    1.4485   -0.7428 O   0  5  0  0  0  0  0  0  0  0  0  0
    1.7359    1.2058   -2.8723 O   0  0  0  0  0  0  0  0  0  0  0  0
   -0.0374    1.1645    0.5781 C   0  0  0  0  0  0  0  0  0  0  0  0
   -0.9816    1.8416    0.1544 O   0  0  0  0  0  0  0  0  0  0  0  0
    0.8235    1.6462    1.4801 N   0  0  0  0  0  0  0  0  0  0  0  0
    1.6183    1.0435    1.7020 H   0  0  0  0  0  0  0  0  0  0  0  0
    0.7895    2.9929    2.0404 C   0  0  0  0  0  0  0  0  0  0  0  0
   -0.2344    3.2522    2.3130 H   0  0  0  0  0  0  0  0  0  0  0  0
    1.4265    3.0377    2.9233 H   0  0  0  0  0  0  0  0  0  0  0  0
    1.1511    3.7014    1.2950 H   0  0  0  0  0  0  0  0  0  0  0  0
  5  6  2  0  0  0  0
  5  7  1  0  0  0  0
  2  3  1  0  0  0  0
  2  4  1  0  0  0  0
  2  5  1  0  0  0  0
  1  2  1  0  0  0  0
 17 18  2  0  0  0  0
 17 19  1  0  0  0  0
 14 15  1  0  0  0  0
 14 16  2  0  0  0  0
 11 12  1  0  0  0  0
 11 13  1  0  0  0  0
 11 14  1  0  0  0  0
  9 10  1  0  0  0  0
  9 11  1  0  0  0  0
  9 17  1  0  0  0  0
  7  8  1  0  0  0  0
  7  9  1  0  0  0  0
 21 22  1  0  0  0  0
 21 23  1  0  0  0  0
 21 24  1  0  0  0  0
 19 20  1  0  0  0  0
 19 21  1  0  0  0  0
M  CHG  1  15  -1
M  END
$$$$
default_name
  -OEChem-02102213163D

 24 23  0     1  0  0  0  0  0999 V2000
   -2.8347   -3.7166    0.8034 H   0  0  0  0  0  0  0  0  0  0  0  0
   -2.7728   -2.7096    0.3954 C   0  0  0  0  0  0  0  0  0  0  0  0
   -3.4267   -2.0426    0.9524 H   0  0  0  0  0  0  0  0  0  0  0  0
   -3.0538   -2.7186   -0.6556 H   0  0  0  0  0  0  0  0  0  0  0  0
   -1.3498   -2.2206    0.5184 C   0  0  0  0  0  0  0  0  0  0  0  0
   -0.4997   -2.9426    1.0194 O   0  0  0  0  0  0  0  0  0  0  0  0
   -1.1198   -0.9926    0.0674 N   0  0  0  0  0  0  0  0  0  0  0  0
   -1.8978   -0.4486   -0.2716 H   0  0  0  0  0  0  0  0  0  0  0  0
    0.1693   -0.2866    0.0854 C   0  0  1  0  0  0  0  0  0  0  0  0
    0.8425   -0.7905    0.7811 H   0  0  0  0  0  0  0  0  0  0  0  0
    0.7993   -0.3404   -1.3233 C   0  0  0  0  0  0  0  0  0  0  0  0
    1.4165   -1.2375   -1.3970 H   0  0  0  0  0  0  0  0  0  0  0  0
    0.0003   -0.4242   -2.0632 H   0  0  0  0  0  0  0  0  0  0  0  0
    1.6875    0.8645   -1.6709 C   0  0  0  0  0  0  0  0  0  0  0  0
    2.5087    1.2702   -0.8150 O   0  5  0  0  0  0  0  0  0  0  0  0
    1.5216    1.3862   -2.7945 O   0  0  0  0  0  0  0  0  0  0  0  0
   -0.0374    1.1645    0.5781 C   0  0  0  0  0  0  0  0  0  0  0  0
   -0.9816    1.8416    0.1544 O   0  0  0  0  0  0  0  0  0  0  0  0
    0.8235    1.6462    1.4801 N   0  0  0  0  0  0  0  0  0  0  0  0
    1.6183    1.0435    1.7020 H   0  0  0  0  0  0  0  0  0  0  0  0
    0.7895    2.9929    2.0404 C   0  0  0  0  0  0  0  0  0  0  0  0
   -0.2344    3.2522    2.3130 H   0  0  0  0  0  0  0  0  0  0  0  0
    1.4265    3.0377    2.9233 H   0  0  0  0  0  0  0  0  0  0  0  0
    1.1511    3.7014    1.2950 H   0  0  0  0  0  0  0  0  0  0  0  0
  5  6  2  0  0  0  0
  5  7  1  0  0  0  0
  2  3  1  0  0  0  0
  2  4  1  0  0  0  0
  2  5  1  0  0  0  0
  1  2  1  0  0  0  0
 17 18  2  0  0  0  0
 17 19  1  0  0  0  0
 14 15  1  0  0  0  0
 14 16  2  0  0  0  0
 11 12  1  0  0  0  0
 11 13  1  0  0  0  0
 11 14  1  0  0  0  0
  9 10  1  0  0  0  0
  9 11  1  0  0  0  0
  9 17  1  0  0  0  0
  7  8  1  0  0  0  0
  7  9  1  0  0  0  0
 21 22  1  0  0  0  0
 21 23  1  0  0  0  0
 21 24  1  0  0  0  0
 19 20  1  0  0  0  0
 19 21  1  0  0  0  0
M  CHG  1  15  -1
M  END
$$$$
default_name
  -OEChem-02102213163D

 24 23  0     1  0  0  0  0  0999 V2000
   -2.8347   -3.7166    0.8034 H   0  0  0  0  0  0  0  0  0  0  0  0
   -2.7728   -2.7096    0.3954 C   0  0  0  0  0  0  0  0  0  0  0  0
   -3.4267   -2.0426    0.9524 H   0  0  0  0  0  0  0  0  0  0  0  0
   -3.0538   -2.7186   -0.6556 H   0  0  0  0  0  0  0  0  0  0  0  0
   -1.3498   -2.2206    0.5184 C   0  0  0  0  0  0  0  0  0  0  0  0
   -0.4997   -2.9426    1.0194 O   0  0  0  0  0  0  0  0  0  0  0  0
   -1.1198   -0.9926    0.0674 N   0  0  0  0  0  0  0  0  0  0  0  0
   -1.8978   -0.4486   -0.2716 H   0  0  0  0  0  0  0  0  0  0  0  0
    0.1693   -0.2866    0.0854 C   0  0  1  0  0  0  0  0  0  0  0  0
    0.8425   -0.7905    0.7811 H   0  0  0  0  0  0  0  0  0  0  0  0
    0.7993   -0.3404   -1.3233 C   0  0  0  0  0  0  0  0  0  0  0  0
    1.4165   -1.2375   -1.3970 H   0  0  0  0  0  0  0  0  0  0  0  0
    0.0003   -0.4242   -2.0632 H   0  0  0  0  0  0  0  0  0  0  0  0
    1.6875    0.8645   -1.6709 C   0  0  0  0  0  0  0  0  0  0  0  0
    2.6900    1.0962   -0.9547 O   0  5  0  0  0  0  0  0  0  0  0  0
    1.3409    1.5614   -2.6489 O   0  0  0  0  0  0  0  0  0  0  0  0
   -0.0374    1.1645    0.5781 C   0  0  0  0  0  0  0  0  0  0  0  0
   -0.9816    1.8416    0.1544 O   0  0  0  0  0  0  0  0  0  0  0  0
    0.8235    1.6462    1.4801 N   0  0  0  0  0  0  0  0  0  0  0  0
    1.6183    1.0435    1.7020 H   0  0  0  0  0  0  0  0  0  0  0  0
    0.7895    2.9929    2.0404 C   0  0  0  0  0  0  0  0  0  0  0  0
   -0.2344    3.2522    2.3130 H   0  0  0  0  0  0  0  0  0  0  0  0
    1.4265    3.0377    2.9233 H   0  0  0  0  0  0  0  0  0  0  0  0
    1.1511    3.7014    1.2950 H   0  0  0  0  0  0  0  0  0  0  0  0
  5  6  2  0  0  0  0
  5  7  1  0  0  0  0
  2  3  1  0  0  0  0
  2  4  1  0  0  0  0
  2  5  1  0  0  0  0
  1  2  1  0  0  0  0
 17 18  2  0  0  0  0
 17 19  1  0  0  0  0
 14 15  1  0  0  0  0
 14 16  2  0  0  0  0
 11 12  1  0  0  0  0
 11 13  1  0  0  0  0
 11 14  1  0  0  0  0
  9 10  1  0  0  0  0
  9 11  1  0  0  0  0
  9 17  1  0  0  0  0
  7  8  1  0  0  0  0
  7  9  1  0  0  0  0
 21 22  1  0  0  0  0
 21 23  1  0  0  0  0
 21 24  1  0  0  0  0
 19 20  1  0  0  0  0
 19 21  1  0  0  0  0
M  CHG  1  15  -1
M  END
$$$$
default_name
  -OEChem-02102213163D

 24 23  0     1  0  0  0  0  0999 V2000
   -2.8347   -3.7166    0.8034 H   0  0  0  0  0  0  0  0  0  0  0  0
   -2.7728   -2.7096    0.3954 C   0  0  0  0  0  0  0  0  0  0  0  0
   -3.4267   -2.0426    0.9524 H   0  0  0  0  0  0  0  0  0  0  0  0
   -3.0538   -2.7186   -0.6556 H   0  0  0  0  0  0  0  0  0  0  0  0
   -1.3498   -2.2206    0.5184 C   0  0  0  0  0  0  0  0  0  0  0  0
   -0.4997   -2.9426    1.0194 O   0  0  0  0  0  0  0  0  0  0  0  0
   -1.1198   -0.9926    0.0674 N   0  0  0  0  0  0  0  0  0  0  0  0
   -1.8978   -0.4486   -0.2716 H   0  0  0  0  0  0  0  0  0  0  0  0
    0.1693   -0.2866    0.0854 C   0  0  1  0  0  0  0  0  0  0  0  0
    0.8425   -0.7905    0.7811 H   0  0  0  0  0  0  0  0  0  0  0  0
    0.7993   -0.3404   -1.3233 C   0  0  0  0  0  0  0  0  0  0  0  0
    1.4165   -1.2375   -1.3970 H   0  0  0  0  0  0  0  0  0  0  0  0
    0.0003   -0.4242   -2.0632 H   0  0  0  0  0  0  0  0  0  0  0  0
    1.6875    0.8645   -1.6709 C   0  0  0  0  0  0  0  0  0  0  0  0
    2.8266    0.9385   -1.1525 O   0  5  0  0  0  0  0  0  0  0  0  0
    1.2063    1.7194   -2.4454 O   0  0  0  0  0  0  0  0  0  0  0  0
   -0.0374    1.1645    0.5781 C   0  0  0  0  0  0  0  0  0  0  0  0
   -0.9816    1.8416    0.1544 O   0  0  0  0  0  0  0  0  0  0  0  0
    0.8235    1.6462    1.4801 N   0  0  0  0  0  0  0  0  0  0  0  0
    1.6183    1.0435    1.7020 H   0  0  0  0  0  0  0  0  0  0  0  0
    0.7895    2.9929    2.0404 C   0  0  0  0  0  0  0  0  0  0  0  0
   -0.2344    3.2522    2.3130 H   0  0  0  0  0  0  0  0  0  0  0  0
    1.4265    3.0377    2.9233 H   0  0  0  0  0  0  0  0  0  0  0  0
    1.1511    3.7014    1.2950 H   0  0  0  0  0  0  0  0  0  0  0  0
  5  6  2  0  0  0  0
  5  7  1  0  0  0  0
  2  3  1  0  0  0  0
  2  4  1  0  0  0  0
  2  5  1  0  0  0  0
  1  2  1  0  0  0  0
 17 18  2  0  0  0  0
 17 19  1  0  0  0  0
 14 15  1  0  0  0  0
 14 16  2  0  0  0  0
 11 12  1  0  0  0  0
 11 13  1  0  0  0  0
 11 14  1  0  0  0  0
  9 10  1  0  0  0  0
  9 11  1  0  0  0  0
  9 17  1  0  0  0  0
  7  8  1  0  0  0  0
  7  9  1  0  0  0  0
 21 22  1  0  0  0  0
 21 23  1  0  0  0  0
 21 24  1  0  0  0  0
 19 20  1  0  0  0  0
 19 21  1  0  0  0  0
M  CHG  1  15  -1
M  END
$$$$
default_name
  -OEChem-02102213163D

 24 23  0     1  0  0  0  0  0999 V2000
   -2.8347   -3.7166    0.8034 H   0  0  0  0  0  0  0  0  0  0  0  0
   -2.7728   -2.7096    0.3954 C   0  0  0  0  0  0  0  0  0  0  0  0
   -3.4267   -2.0426    0.9524 H   0  0  0  0  0  0  0  0  0  0  0  0
   -3.0538   -2.7186   -0.6556 H   0  0  0  0  0  0  0  0  0  0  0  0
   -1.3498   -2.2206    0.5184 C   0  0  0  0  0  0  0  0  0  0  0  0
   -0.4997   -2.9426    1.0194 O   0  0  0  0  0  0  0  0  0  0  0  0
   -1.1198   -0.9926    0.0674 N   0  0  0  0  0  0  0  0  0  0  0  0
   -1.8978   -0.4486   -0.2716 H   0  0  0  0  0  0  0  0  0  0  0  0
    0.1693   -0.2866    0.0854 C   0  0  1  0  0  0  0  0  0  0  0  0
    0.8425   -0.7905    0.7811 H   0  0  0  0  0  0  0  0  0  0  0  0
    0.7993   -0.3404   -1.3233 C   0  0  0  0  0  0  0  0  0  0  0  0
    1.4165   -1.2375   -1.3970 H   0  0  0  0  0  0  0  0  0  0  0  0
    0.0003   -0.4242   -2.0632 H   0  0  0  0  0  0  0  0  0  0  0  0
    1.6875    0.8645   -1.6709 C   0  0  0  0  0  0  0  0  0  0  0  0
    2.9091    0.8077   -1.3949 O   0  5  0  0  0  0  0  0  0  0  0  0
    1.1267    1.8494   -2.1978 O   0  0  0  0  0  0  0  0  0  0  0  0
   -0.0374    1.1645    0.5781 C   0  0  0  0  0  0  0  0  0  0  0  0
   -0.9816    1.8416    0.1544 O   0  0  0  0  0  0  0  0  0  0  0  0
    0.8235    1.6462    1.4801 N   0  0  0  0  0  0  0  0  0  0  0  0
    1.6183    1.0435    1.7020 H   0  0  0  0  0  0  0  0  0  0  0  0
    0.7895    2.9929    2.0404 C   0  0  0  0  0  0  0  0  0  0  0  0
   -0.2344    3.2522    2.3130 H   0  0  0  0  0  0  0  0  0  0  0  0
    1.4265    3.0377    2.9233 H   0  0  0  0  0  0  0  0  0  0  0  0
    1.1511    3.7014    1.2950 H   0  0  0  0  0  0  0  0  0  0  0  0
  5  6  2  0  0  0  0
  5  7  1  0  0  0  0
  2  3  1  0  0  0  0
  2  4  1  0  0  0  0
  2  5  1  0  0  0  0
  1  2  1  0  0  0  0
 17 18  2  0  0  0  0
 17 19  1  0  0  0  0
 14 15  1  0  0  0  0
 14 16  2  0  0  0  0
 11 12  1  0  0  0  0
 11 13  1  0  0  0  0
 11 14  1  0  0  0  0
  9 10  1  0  0  0  0
  9 11  1  0  0  0  0
  9 17  1  0  0  0  0
  7  8  1  0  0  0  0
  7  9  1  0  0  0  0
 21 22  1  0  0  0  0
 21 23  1  0  0  0  0
 21 24  1  0  0  0  0
 19 20  1  0  0  0  0
 19 21  1  0  0  0  0
M  CHG  1  15  -1
M  END
$$$$
default_name
  -OEChem-02102213163D

 24 23  0     1  0  0  0  0  0999 V2000
   -2.8347   -3.7166    0.8034 H   0  0  0  0  0  0  0  0  0  0  0  0
   -2.7728   -2.7096    0.3954 C   0  0  0  0  0  0  0  0  0  0  0  0
   -3.4267   -2.0426    0.9524 H   0  0  0  0  0  0  0  0  0  0  0  0
   -3.0538   -2.7186   -0.6556 H   0  0  0  0  0  0  0  0  0  0  0  0
   -1.3498   -2.2206    0.5184 C   0  0  0  0  0  0  0  0  0  0  0  0
   -0.4997   -2.9426    1.0194 O   0  0  0  0  0  0  0  0  0  0  0  0
   -1.1198   -0.9926    0.0674 N   0  0  0  0  0  0  0  0  0  0  0  0
   -1.8978   -0.4486   -0.2716 H   0  0  0  0  0  0  0  0  0  0  0  0
    0.1693   -0.2866    0.0854 C   0  0  1  0  0  0  0  0  0  0  0  0
    0.8425   -0.7905    0.7811 H   0  0  0  0  0  0  0  0  0  0  0  0
    0.7993   -0.3404   -1.3233 C   0  0  0  0  0  0  0  0  0  0  0  0
    1.4165   -1.2375   -1.3970 H   0  0  0  0  0  0  0  0  0  0  0  0
    0.0003   -0.4242   -2.0632 H   0  0  0  0  0  0  0  0  0  0  0  0
    1.6875    0.8645   -1.6709 C   0  0  0  0  0  0  0  0  0  0  0  0
    2.9319    0.7128   -1.6653 O   0  5  0  0  0  0  0  0  0  0  0  0
    1.1078    1.9427   -1.9231 O   0  0  0  0  0  0  0  0  0  0  0  0
   -0.0374    1.1645    0.5781 C   0  0  0  0  0  0  0  0  0  0  0  0
   -0.9816    1.8416    0.1544 O   0  0  0  0  0  0  0  0  0  0  0  0
    0.8235    1.6462    1.4801 N   0  0  0  0  0  0  0  0  0  0  0  0
    1.6183    1.0435    1.7020 H   0  0  0  0  0  0  0  0  0  0  0  0
    0.7895    2.9929    2.0404 C   0  0  0  0  0  0  0  0  0  0  0  0
   -0.2344    3.2522    2.3130 H   0  0  0  0  0  0  0  0  0  0  0  0
    1.4265    3.0377    2.9233 H   0  0  0  0  0  0  0  0  0  0  0  0
    1.1511    3.7014    1.2950 H   0  0  0  0  0  0  0  0  0  0  0  0
  5  6  2  0  0  0  0
  5  7  1  0  0  0  0
  2  3  1  0  0  0  0
  2  4  1  0  0  0  0
  2  5  1  0  0  0  0
  1  2  1  0  0  0  0
 17 18  2  0  0  0  0
 17 19  1  0  0  0  0
 14 15  1  0  0  0  0
 14 16  2  0  0  0  0
 11 12  1  0  0  0  0
 11 13  1  0  0  0  0
 11 14  1  0  0  0  0
  9 10  1  0  0  0  0
  9 11  1  0  0  0  0
  9 17  1  0  0  0  0
  7  8  1  0  0  0  0
  7  9  1  0  0  0  0
 21 22  1  0  0  0  0
 21 23  1  0  0  0  0
 21 24  1  0  0  0  0
 19 20  1  0  0  0  0
 19 21  1  0  0  0  0
M  CHG  1  15  -1
M  END
$$$$
default_name
  -OEChem-02102213163D

 24 23  0     1  0  0  0  0  0999 V2000
   -2.8347   -3.7166    0.8034 H   0  0  0  0  0  0  0  0  0  0  0  0
   -2.7728   -2.7096    0.3954 C   0  0  0  0  0  0  0  0  0  0  0  0
   -3.4267   -2.0426    0.9524 H   0  0  0  0  0  0  0  0  0  0  0  0
   -3.0538   -2.7186   -0.6556 H   0  0  0  0  0  0  0  0  0  0  0  0
   -1.3498   -2.2206    0.5184 C   0  0  0  0  0  0  0  0  0  0  0  0
   -0.4997   -2.9426    1.0194 O   0  0  0  0  0  0  0  0  0  0  0  0
   -1.1198   -0.9926    0.0674 N   0  0  0  0  0  0  0  0  0  0  0  0
   -1.8978   -0.4486   -0.2716 H   0  0  0  0  0  0  0  0  0  0  0  0
    0.1693   -0.2866    0.0854 C   0  0  1  0  0  0  0  0  0  0  0  0
    0.8425   -0.7905    0.7811 H   0  0  0  0  0  0  0  0  0  0  0  0
    0.7993   -0.3404   -1.3233 C   0  0  0  0  0  0  0  0  0  0  0  0
    1.4165   -1.2375   -1.3970 H   0  0  0  0  0  0  0  0  0  0  0  0
    0.0003   -0.4242   -2.0632 H   0  0  0  0  0  0  0  0  0  0  0  0
    1.6875    0.8645   -1.6709 C   0  0  0  0  0  0  0  0  0  0  0  0
    2.8936    0.6603   -1.9453 O   0  5  0  0  0  0  0  0  0  0  0  0
    1.1507    1.9928   -1.6399 O   0  0  0  0  0  0  0  0  0  0  0  0
   -0.0374    1.1645    0.5781 C   0  0  0  0  0  0  0  0  0  0  0  0
   -0.9816    1.8416    0.1544 O   0  0  0  0  0  0  0  0  0  0  0  0
    0.8235    1.6462    1.4801 N   0  0  0  0  0  0  0  0  0  0  0  0
    1.6183    1.0435    1.7020 H   0  0  0  0  0  0  0  0  0  0  0  0
    0.7895    2.9929    2.0404 C   0  0  0  0  0  0  0  0  0  0  0  0
   -0.2344    3.2522    2.3130 H   0  0  0  0  0  0  0  0  0  0  0  0
    1.4265    3.0377    2.9233 H   0  0  0  0  0  0  0  0  0  0  0  0
    1.1511    3.7014    1.2950 H   0  0  0  0  0  0  0  0  0  0  0  0
  5  6  2  0  0  0  0
  5  7  1  0  0  0  0
  2  3  1  0  0  0  0
  2  4  1  0  0  0  0
  2  5  1  0  0  0  0
  1  2  1  0  0  0  0
 17 18  2  0  0  0  0
 17 19  1  0  0  0  0
 14 15  1  0  0  0  0
 14 16  2  0  0  0  0
 11 12  1  0  0  0  0
 11 13  1  0  0  0  0
 11 14  1  0  0  0  0
  9 10  1  0  0  0  0
  9 11  1  0  0  0  0
  9 17  1  0  0  0  0
  7  8  1  0  0  0  0
  7  9  1  0  0  0  0
 21 22  1  0  0  0  0
 21 23  1  0  0  0  0
 21 24  1  0  0  0  0
 19 20  1  0  0  0  0
 19 21  1  0  0  0  0
M  CHG  1  15  -1
M  END
$$$$
default_name
  -OEChem-02102213163D

 24 23  0     1  0  0  0  0  0999 V2000
   -2.8347   -3.7166    0.8034 H   0  0  0  0  0  0  0  0  0  0  0  0
   -2.7728   -2.7096    0.3954 C   0  0  0  0  0  0  0  0  0  0  0  0
   -3.4267   -2.0426    0.9524 H   0  0  0  0  0  0  0  0  0  0  0  0
   -3.0538   -2.7186   -0.6556 H   0  0  0  0  0  0  0  0  0  0  0  0
   -1.3498   -2.2206    0.5184 C   0  0  0  0  0  0  0  0  0  0  0  0
   -0.4997   -2.9426    1.0194 O   0  0  0  0  0  0  0  0  0  0  0  0
   -1.1198   -0.9926    0.0674 N   0  0  0  0  0  0  0  0  0  0  0  0
   -1.8978   -0.4486   -0.2716 H   0  0  0  0  0  0  0  0  0  0  0  0
    0.1693   -0.2866    0.0854 C   0  0  1  0  0  0  0  0  0  0  0  0
    0.8425   -0.7905    0.7811 H   0  0  0  0  0  0  0  0  0  0  0  0
    0.7993   -0.3404   -1.3233 C   0  0  0  0  0  0  0  0  0  0  0  0
    1.4165   -1.2375   -1.3970 H   0  0  0  0  0  0  0  0  0  0  0  0
    0.0003   -0.4242   -2.0632 H   0  0  0  0  0  0  0  0  0  0  0  0
    1.6875    0.8645   -1.6709 C   0  0  0  0  0  0  0  0  0  0  0  0
    2.7967    0.6537   -2.2159 O   0  5  0  0  0  0  0  0  0  0  0  0
    1.2525    1.9963   -1.3676 O   0  0  0  0  0  0  0  0  0  0  0  0
   -0.0374    1.1645    0.5781 C   0  0  0  0  0  0  0  0  0  0  0  0
   -0.9816    1.8416    0.1544 O   0  0  0  0  0  0  0  0  0  0  0  0
    0.8235    1.6462    1.4801 N   0  0  0  0  0  0  0  0  0  0  0  0
    1.6183    1.0435    1.7020 H   0  0  0  0  0  0  0  0  0  0  0  0
    0.7895    2.9929    2.0404 C   0  0  0  0  0  0  0  0  0  0  0  0
   -0.2344    3.2522    2.3130 H   0  0  0  0  0  0  0  0  0  0  0  0
    1.4265    3.0377    2.9233 H   0  0  0  0  0  0  0  0  0  0  0  0
    1.1511    3.7014    1.2950 H   0  0  0  0  0  0  0  0  0  0  0  0
  5  6  2  0  0  0  0
  5  7  1  0  0  0  0
  2  3  1  0  0  0  0
  2  4  1  0  0  0  0
  2  5  1  0  0  0  0
  1  2  1  0  0  0  0
 17 18  2  0  0  0  0
 17 19  1  0  0  0  0
 14 15  1  0  0  0  0
 14 16  2  0  0  0  0
 11 12  1  0  0  0  0
 11 13  1  0  0  0  0
 11 14  1  0  0  0  0
  9 10  1  0  0  0  0
  9 11  1  0  0  0  0
  9 17  1  0  0  0  0
  7  8  1  0  0  0  0
  7  9  1  0  0  0  0
 21 22  1  0  0  0  0
 21 23  1  0  0  0  0
 21 24  1  0  0  0  0
 19 20  1  0  0  0  0
 19 21  1  0  0  0  0
M  CHG  1  15  -1
M  END
$$$$
default_name
  -OEChem-02102213163D

 24 23  0     1  0  0  0  0  0999 V2000
   -2.8347   -3.7166    0.8034 H   0  0  0  0  0  0  0  0  0  0  0  0
   -2.7728   -2.7096    0.3954 C   0  0  0  0  0  0  0  0  0  0  0  0
   -3.4267   -2.0426    0.9524 H   0  0  0  0  0  0  0  0  0  0  0  0
   -3.0538   -2.7186   -0.6556 H   0  0  0  0  0  0  0  0  0  0  0  0
   -1.3498   -2.2206    0.5184 C   0  0  0  0  0  0  0  0  0  0  0  0
   -0.4997   -2.9426    1.0194 O   0  0  0  0  0  0  0  0  0  0  0  0
   -1.1198   -0.9926    0.0674 N   0  0  0  0  0  0  0  0  0  0  0  0
   -1.8978   -0.4486   -0.2716 H   0  0  0  0  0  0  0  0  0  0  0  0
    0.1693   -0.2866    0.0854 C   0  0  1  0  0  0  0  0  0  0  0  0
    0.8425   -0.7905    0.7811 H   0  0  0  0  0  0  0  0  0  0  0  0
    0.7993   -0.3404   -1.3233 C   0  0  0  0  0  0  0  0  0  0  0  0
    1.4165   -1.2375   -1.3970 H   0  0  0  0  0  0  0  0  0  0  0  0
    0.0003   -0.4242   -2.0632 H   0  0  0  0  0  0  0  0  0  0  0  0
    1.6875    0.8645   -1.6709 C   0  0  0  0  0  0  0  0  0  0  0  0
    2.6477    0.6934   -2.4585 O   0  5  0  0  0  0  0  0  0  0  0  0
    1.4063    1.9530   -1.1248 O   0  0  0  0  0  0  0  0  0  0  0  0
   -0.0374    1.1645    0.5781 C   0  0  0  0  0  0  0  0  0  0  0  0
   -0.9816    1.8416    0.1544 O   0  0  0  0  0  0  0  0  0  0  0  0
    0.8235    1.6462    1.4801 N   0  0  0  0  0  0  0  0  0  0  0  0
    1.6183    1.0435    1.7020 H   0  0  0  0  0  0  0  0  0  0  0  0
    0.7895    2.9929    2.0404 C   0  0  0  0  0  0  0  0  0  0  0  0
   -0.2344    3.2522    2.3130 H   0  0  0  0  0  0  0  0  0  0  0  0
    1.4265    3.0377    2.9233 H   0  0  0  0  0  0  0  0  0  0  0  0
    1.1511    3.7014    1.2950 H   0  0  0  0  0  0  0  0  0  0  0  0
  5  6  2  0  0  0  0
  5  7  1  0  0  0  0
  2  3  1  0  0  0  0
  2  4  1  0  0  0  0
  2  5  1  0  0  0  0
  1  2  1  0  0  0  0
 17 18  2  0  0  0  0
 17 19  1  0  0  0  0
 14 15  1  0  0  0  0
 14 16  2  0  0  0  0
 11 12  1  0  0  0  0
 11 13  1  0  0  0  0
 11 14  1  0  0  0  0
  9 10  1  0  0  0  0
  9 11  1  0  0  0  0
  9 17  1  0  0  0  0
  7  8  1  0  0  0  0
  7  9  1  0  0  0  0
 21 22  1  0  0  0  0
 21 23  1  0  0  0  0
 21 24  1  0  0  0  0
 19 20  1  0  0  0  0
 19 21  1  0  0  0  0
M  CHG  1  15  -1
M  END
$$$$
default_name
  -OEChem-02102213163D

 24 23  0     1  0  0  0  0  0999 V2000
   -2.8347   -3.7166    0.8034 H   0  0  0  0  0  0  0  0  0  0  0  0
   -2.7728   -2.7096    0.3954 C   0  0  0  0  0  0  0  0  0  0  0  0
   -3.4267   -2.0426    0.9524 H   0  0  0  0  0  0  0  0  0  0  0  0
   -3.0538   -2.7186   -0.6556 H   0  0  0  0  0  0  0  0  0  0  0  0
   -1.3498   -2.2206    0.5184 C   0  0  0  0  0  0  0  0  0  0  0  0
   -0.4997   -2.9426    1.0194 O   0  0  0  0  0  0  0  0  0  0  0  0
   -1.1198   -0.9926    0.0674 N   0  0  0  0  0  0  0  0  0  0  0  0
   -1.8978   -0.4486   -0.2716 H   0  0  0  0  0  0  0  0  0  0  0  0
    0.1693   -0.2866    0.0854 C   0  0  1  0  0  0  0  0  0  0  0  0
    0.8425   -0.7905    0.7811 H   0  0  0  0  0  0  0  0  0  0  0  0
    0.7993   -0.3404   -1.3233 C   0  0  0  0  0  0  0  0  0  0  0  0
    1.4165   -1.2375   -1.3970 H   0  0  0  0  0  0  0  0  0  0  0  0
    0.0003   -0.4242   -2.0632 H   0  0  0  0  0  0  0  0  0  0  0  0
    1.6875    0.8645   -1.6709 C   0  0  0  0  0  0  0  0  0  0  0  0
    2.4570    0.7769   -2.6568 O   0  5  0  0  0  0  0  0  0  0  0  0
    1.6016    1.8658   -0.9278 O   0  0  0  0  0  0  0  0  0  0  0  0
   -0.0374    1.1645    0.5781 C   0  0  0  0  0  0  0  0  0  0  0  0
   -0.9816    1.8416    0.1544 O   0  0  0  0  0  0  0  0  0  0  0  0
    0.8235    1.6462    1.4801 N   0  0  0  0  0  0  0  0  0  0  0  0
    1.6183    1.0435    1.7020 H   0  0  0  0  0  0  0  0  0  0  0  0
    0.7895    2.9929    2.0404 C   0  0  0  0  0  0  0  0  0  0  0  0
   -0.2344    3.2522    2.3130 H   0  0  0  0  0  0  0  0  0  0  0  0
    1.4265    3.0377    2.9233 H   0  0  0  0  0  0  0  0  0  0  0  0
    1.1511    3.7014    1.2950 H   0  0  0  0  0  0  0  0  0  0  0  0
  5  6  2  0  0  0  0
  5  7  1  0  0  0  0
  2  3  1  0  0  0  0
  2  4  1  0  0  0  0
  2  5  1  0  0  0  0
  1  2  1  0  0  0  0
 17 18  2  0  0  0  0
 17 19  1  0  0  0  0
 14 15  1  0  0  0  0
 14 16  2  0  0  0  0
 11 12  1  0  0  0  0
 11 13  1  0  0  0  0
 11 14  1  0  0  0  0
  9 10  1  0  0  0  0
  9 11  1  0  0  0  0
  9 17  1  0  0  0  0
  7  8  1  0  0  0  0
  7  9  1  0  0  0  0
 21 22  1  0  0  0  0
 21 23  1  0  0  0  0
 21 24  1  0  0  0  0
 19 20  1  0  0  0  0
 19 21  1  0  0  0  0
M  CHG  1  15  -1
M  END
$$$$
default_name
  -OEChem-02102213163D

 24 23  0     1  0  0  0  0  0999 V2000
   -2.8347   -3.7166    0.8034 H   0  0  0  0  0  0  0  0  0  0  0  0
   -2.7728   -2.7096    0.3954 C   0  0  0  0  0  0  0  0  0  0  0  0
   -3.4267   -2.0426    0.9524 H   0  0  0  0  0  0  0  0  0  0  0  0
   -3.0538   -2.7186   -0.6556 H   0  0  0  0  0  0  0  0  0  0  0  0
   -1.3498   -2.2206    0.5184 C   0  0  0  0  0  0  0  0  0  0  0  0
   -0.4997   -2.9426    1.0194 O   0  0  0  0  0  0  0  0  0  0  0  0
   -1.1198   -0.9926    0.0674 N   0  0  0  0  0  0  0  0  0  0  0  0
   -1.8978   -0.4486   -0.2716 H   0  0  0  0  0  0  0  0  0  0  0  0
    0.1693   -0.2866    0.0854 C   0  0  1  0  0  0  0  0  0  0  0  0
    0.8425   -0.7905    0.7811 H   0  0  0  0  0  0  0  0  0  0  0  0
    0.7993   -0.3404   -1.3233 C   0  0  0  0  0  0  0  0  0  0  0  0
    1.1892   -1.3453   -1.4945 H   0  0  0  0  0  0  0  0  0  0  0  0
    0.0193   -0.1550   -2.0650 H   0  0  0  0  0  0  0  0  0  0  0  0
    1.9537    0.6497   -1.5437 C   0  0  0  0  0  0  0  0  0  0  0  0
    2.5204    0.6699   -2.6618 O   0  5  0  0  0  0  0  0  0  0  0  0
    2.2748    1.3715   -0.5751 O   0  0  0  0  0  0  0  0  0  0  0  0
   -0.0374    1.1645    0.5781 C   0  0  0  0  0  0  0  0  0  0  0  0
   -0.9816    1.8416    0.1544 O   0  0  0  0  0  0  0  0  0  0  0  0
    0.8235    1.6462    1.4801 N   0  0  0  0  0  0  0  0  0  0  0  0
    1.6183    1.0435    1.7020 H   0  0  0  0  0  0  0  0  0  0  0  0
    0.7895    2.9929    2.0404 C   0  0  0  0  0  0  0  0  0  0  0  0
   -0.2344    3.2522    2.3130 H   0  0  0  0  0  0  0  0  0  0  0  0
    1.4265    3.0377    2.9233 H   0  0  0  0  0  0  0  0  0  0  0  0
    1.1511    3.7014    1.2950 H   0  0  0  0  0  0  0  0  0  0  0  0
  5  6  2  0  0  0  0
  5  7  1  0  0  0  0
  2  3  1  0  0  0  0
  2  4  1  0  0  0  0
  2  5  1  0  0  0  0
  1  2  1  0  0  0  0
 17 18  2  0  0  0  0
 17 19  1  0  0  0  0
 14 15  1  0  0  0  0
 14 16  2  0  0  0  0
 11 12  1  0  0  0  0
 11 13  1  0  0  0  0
 11 14  1  0  0  0  0
  9 10  1  0  0  0  0
  9 11  1  0  0  0  0
  9 17  1  0  0  0  0
  7  8  1  0  0  0  0
  7  9  1  0  0  0  0
 21 22  1  0  0  0  0
 21 23  1  0  0  0  0
 21 24  1  0  0  0  0
 19 20  1  0  0  0  0
 19 21  1  0  0  0  0
M  CHG  1  15  -1
M  END
$$$$
default_name
  -OEChem-02102213163D

 24 23  0     1  0  0  0  0  0999 V2000
   -2.8347   -3.7166    0.8034 H   0  0  0  0  0  0  0  0  0  0  0  0
   -2.7728   -2.7096    0.3954 C   0  0  0  0  0  0  0  0  0  0  0  0
   -3.4267   -2.0426    0.9524 H   0  0  0  0  0  0  0  0  0  0  0  0
   -3.0538   -2.7186   -0.6556 H   0  0  0  0  0  0  0  0  0  0  0  0
   -1.3498   -2.2206    0.5184 C   0  0  0  0  0  0  0  0  0  0  0  0
   -0.4997   -2.9426    1.0194 O   0  0  0  0  0  0  0  0  0  0  0  0
   -1.1198   -0.9926    0.0674 N   0  0  0  0  0  0  0  0  0  0  0  0
   -1.8978   -0.4486   -0.2716 H   0  0  0  0  0  0  0  0  0  0  0  0
    0.1693   -0.2866    0.0854 C   0  0  1  0  0  0  0  0  0  0  0  0
    0.8425   -0.7905    0.7811 H   0  0  0  0  0  0  0  0  0  0  0  0
    0.7993   -0.3404   -1.3233 C   0  0  0  0  0  0  0  0  0  0  0  0
    1.1892   -1.3453   -1.4945 H   0  0  0  0  0  0  0  0  0  0  0  0
    0.0193   -0.1550   -2.0650 H   0  0  0  0  0  0  0  0  0  0  0  0
    1.9537    0.6497   -1.5437 C   0  0  0  0  0  0  0  0  0  0  0  0
    2.3307    0.8788   -2.7171 O   0  5  0  0  0  0  0  0  0  0  0  0
    2.4667    1.1591   -0.5241 O   0  0  0  0  0  0  0  0  0  0  0  0
   -0.0374    1.1645    0.5781 C   0  0  0  0  0  0  0  0  0  0  0  0
   -0.9816    1.8416    0.1544 O   0  0  0  0  0  0  0  0  0  0  0  0
    0.8235    1.6462    1.4801 N   0  0  0  0  0  0  0  0  0  0  0  0
    1.6183    1.0435    1.7020 H   0  0  0  0  0  0  0  0  0  0  0  0
    0.7895    2.9929    2.0404 C   0  0  0  0  0  0  0  0  0  0  0  0
   -0.2344    3.2522    2.3130 H   0  0  0  0  0  0  0  0  0  0  0  0
    1.4265    3.0377    2.9233 H   0  0  0  0  0  0  0  0  0  0  0  0
    1.1511    3.7014    1.2950 H   0  0  0  0  0  0  0  0  0  0  0  0
  5  6  2  0  0  0  0
  5  7  1  0  0  0  0
  2  3  1  0  0  0  0
  2  4  1  0  0  0  0
  2  5  1  0  0  0  0
  1  2  1  0  0  0  0
 17 18  2  0  0  0  0
 17 19  1  0  0  0  0
 14 15  1  0  0  0  0
 14 16  2  0  0  0  0
 11 12  1  0  0  0  0
 11 13  1  0  0  0  0
 11 14  1  0  0  0  0
  9 10  1  0  0  0  0
  9 11  1  0  0  0  0
  9 17  1  0  0  0  0
  7  8  1  0  0  0  0
  7  9  1  0  0  0  0
 21 22  1  0  0  0  0
 21 23  1  0  0  0  0
 21 24  1  0  0  0  0
 19 20  1  0  0  0  0
 19 21  1  0  0  0  0
M  CHG  1  15  -1
M  END
$$$$
default_name
  -OEChem-02102213163D

 24 23  0     1  0  0  0  0  0999 V2000
   -2.8347   -3.7166    0.8034 H   0  0  0  0  0  0  0  0  0  0  0  0
   -2.7728   -2.7096    0.3954 C   0  0  0  0  0  0  0  0  0  0  0  0
   -3.4267   -2.0426    0.9524 H   0  0  0  0  0  0  0  0  0  0  0  0
   -3.0538   -2.7186   -0.6556 H   0  0  0  0  0  0  0  0  0  0  0  0
   -1.3498   -2.2206    0.5184 C   0  0  0  0  0  0  0  0  0  0  0  0
   -0.4997   -2.9426    1.0194 O   0  0  0  0  0  0  0  0  0  0  0  0
   -1.1198   -0.9926    0.0674 N   0  0  0  0  0  0  0  0  0  0  0  0
   -1.8978   -0.4486   -0.2716 H   0  0  0  0  0  0  0  0  0  0  0  0
    0.1693   -0.2866    0.0854 C   0  0  1  0  0  0  0  0  0  0  0  0
    0.8425   -0.7905    0.7811 H   0  0  0  0  0  0  0  0  0  0  0  0
    0.7993   -0.3404   -1.3233 C   0  0  0  0  0  0  0  0  0  0  0  0
    1.1892   -1.3453   -1.4945 H   0  0  0  0  0  0  0  0  0  0  0  0
    0.0193   -0.1550   -2.0650 H   0  0  0  0  0  0  0  0  0  0  0  0
    1.9537    0.6497   -1.5437 C   0  0  0  0  0  0  0  0  0  0  0  0
    2.1460    1.0983   -2.6984 O   0  5  0  0  0  0  0  0  0  0  0  0
    2.6527    0.9369   -0.5481 O   0  0  0  0  0  0  0  0  0  0  0  0
   -0.0374    1.1645    0.5781 C   0  0  0  0  0  0  0  0  0  0  0  0
   -0.9816    1.8416    0.1544 O   0  0  0  0  0  0  0  0  0  0  0  0
    0.8235    1.6462    1.4801 N   0  0  0  0  0  0  0  0  0  0  0  0
    1.6183    1.0435    1.7020 H   0  0  0  0  0  0  0  0  0  0  0  0
    0.7895    2.9929    2.0404 C   0  0  0  0  0  0  0  0  0  0  0  0
   -0.2344    3.2522    2.3130 H   0  0  0  0  0  0  0  0  0  0  0  0
    1.4265    3.0377    2.9233 H   0  0  0  0  0  0  0  0  0  0  0  0
    1.1511    3.7014    1.2950 H   0  0  0  0  0  0  0  0  0  0  0  0
  5  6  2  0  0  0  0
  5  7  1  0  0  0  0
  2  3  1  0  0  0  0
  2  4  1  0  0  0  0
  2  5  1  0  0  0  0
  1  2  1  0  0  0  0
 17 18  2  0  0  0  0
 17 19  1  0  0  0  0
 14 15  1  0  0  0  0
 14 16  2  0  0  0  0
 11 12  1  0  0  0  0
 11 13  1  0  0  0  0
 11 14  1  0  0  0  0
  9 10  1  0  0  0  0
  9 11  1  0  0  0  0
  9 17  1  0  0  0  0
  7  8  1  0  0  0  0
  7  9  1  0  0  0  0
 21 22  1  0  0  0  0
 21 23  1  0  0  0  0
 21 24  1  0  0  0  0
 19 20  1  0  0  0  0
 19 21  1  0  0  0  0
M  CHG  1  15  -1
M  END
$$$$
default_name
  -OEChem-02102213163D

 24 23  0     1  0  0  0  0  0999 V2000
   -2.8347   -3.7166    0.8034 H   0  0  0  0  0  0  0  0  0  0  0  0
   -2.7728   -2.7096    0.3954 C   0  0  0  0  0  0  0  0  0  0  0  0
   -3.4267   -2.0426    0.9524 H   0  0  0  0  0  0  0  0  0  0  0  0
   -3.0538   -2.7186   -0.6556 H   0  0  0  0  0  0  0  0  0  0  0  0
   -1.3498   -2.2206    0.5184 C   0  0  0  0  0  0  0  0  0  0  0  0
   -0.4997   -2.9426    1.0194 O   0  0  0  0  0  0  0  0  0  0  0  0
   -1.1198   -0.9926    0.0674 N   0  0  0  0  0  0  0  0  0  0  0  0
   -1.8978   -0.4486   -0.2716 H   0  0  0  0  0  0  0  0  0  0  0  0
    0.1693   -0.2866    0.0854 C   0  0  1  0  0  0  0  0  0  0  0  0
    0.8425   -0.7905    0.7811 H   0  0  0  0  0  0  0  0  0  0  0  0
    0.7993   -0.3404   -1.3233 C   0  0  0  0  0  0  0  0  0  0  0  0
    1.1892   -1.3453   -1.4945 H   0  0  0  0  0  0  0  0  0  0  0  0
    0.0193   -0.1550   -2.0650 H   0  0  0  0  0  0  0  0  0  0  0  0
    1.9537    0.6497   -1.5437 C   0  0  0  0  0  0  0  0  0  0  0  0
    1.9789    1.3135   -2.6068 O   0  5  0  0  0  0  0  0  0  0  0  0
    2.8200    0.7201   -0.6455 O   0  0  0  0  0  0  0  0  0  0  0  0
   -0.0374    1.1645    0.5781 C   0  0  0  0  0  0  0  0  0  0  0  0
   -0.9816    1.8416    0.1544 O   0  0  0  0  0  0  0  0  0  0  0  0
    0.8235    1.6462    1.4801 N   0  0  0  0  0  0  0  0  0  0  0  0
    1.6183    1.0435    1.7020 H   0  0  0  0  0  0  0  0  0  0  0  0
    0.7895    2.9929    2.0404 C   0  0  0  0  0  0  0  0  0  0  0  0
   -0.2344    3.2522    2.3130 H   0  0  0  0  0  0  0  0  0  0  0  0
    1.4265    3.0377    2.9233 H   0  0  0  0  0  0  0  0  0  0  0  0
    1.1511    3.7014    1.2950 H   0  0  0  0  0  0  0  0  0  0  0  0
  5  6  2  0  0  0  0
  5  7  1  0  0  0  0
  2  3  1  0  0  0  0
  2  4  1  0  0  0  0
  2  5  1  0  0  0  0
  1  2  1  0  0  0  0
 17 18  2  0  0  0  0
 17 19  1  0  0  0  0
 14 15  1  0  0  0  0
 14 16  2  0  0  0  0
 11 12  1  0  0  0  0
 11 13  1  0  0  0  0
 11 14  1  0  0  0  0
  9 10  1  0  0  0  0
  9 11  1  0  0  0  0
  9 17  1  0  0  0  0
  7  8  1  0  0  0  0
  7  9  1  0  0  0  0
 21 22  1  0  0  0  0
 21 23  1  0  0  0  0
 21 24  1  0  0  0  0
 19 20  1  0  0  0  0
 19 21  1  0  0  0  0
M  CHG  1  15  -1
M  END
$$$$
default_name
  -OEChem-02102213163D

 24 23  0     1  0  0  0  0  0999 V2000
   -2.8347   -3.7166    0.8034 H   0  0  0  0  0  0  0  0  0  0  0  0
   -2.7728   -2.7096    0.3954 C   0  0  0  0  0  0  0  0  0  0  0  0
   -3.4267   -2.0426    0.9524 H   0  0  0  0  0  0  0  0  0  0  0  0
   -3.0538   -2.7186   -0.6556 H   0  0  0  0  0  0  0  0  0  0  0  0
   -1.3498   -2.2206    0.5184 C   0  0  0  0  0  0  0  0  0  0  0  0
   -0.4997   -2.9426    1.0194 O   0  0  0  0  0  0  0  0  0  0  0  0
   -1.1198   -0.9926    0.0674 N   0  0  0  0  0  0  0  0  0  0  0  0
   -1.8978   -0.4486   -0.2716 H   0  0  0  0  0  0  0  0  0  0  0  0
    0.1693   -0.2866    0.0854 C   0  0  1  0  0  0  0  0  0  0  0  0
    0.8425   -0.7905    0.7811 H   0  0  0  0  0  0  0  0  0  0  0  0
    0.7993   -0.3404   -1.3233 C   0  0  0  0  0  0  0  0  0  0  0  0
    1.1892   -1.3453   -1.4945 H   0  0  0  0  0  0  0  0  0  0  0  0
    0.0193   -0.1550   -2.0650 H   0  0  0  0  0  0  0  0  0  0  0  0
    1.9537    0.6497   -1.5437 C   0  0  0  0  0  0  0  0  0  0  0  0
    1.8407    1.5098   -2.4486 O   0  5  0  0  0  0  0  0  0  0  0  0
    2.9574    0.5233   -0.8096 O   0  0  0  0  0  0  0  0  0  0  0  0
   -0.0374    1.1645    0.5781 C   0  0  0  0  0  0  0  0  0  0  0  0
   -0.9816    1.8416    0.1544 O   0  0  0  0  0  0  0  0  0  0  0  0
    0.8235    1.6462    1.4801 N   0  0  0  0  0  0  0  0  0  0  0  0
    1.6183    1.0435    1.7020 H   0  0  0  0  0  0  0  0  0  0  0  0
    0.7895    2.9929    2.0404 C   0  0  0  0  0  0  0  0  0  0  0  0
   -0.2344    3.2522    2.3130 H   0  0  0  0  0  0  0  0  0  0  0  0
    1.4265    3.0377    2.9233 H   0  0  0  0  0  0  0  0  0  0  0  0
    1.1511    3.7014    1.2950 H   0  0  0  0  0  0  0  0  0  0  0  0
  5  6  2  0  0  0  0
  5  7  1  0  0  0  0
  2  3  1  0  0  0  0
  2  4  1  0  0  0  0
  2  5  1  0  0  0  0
  1  2  1  0  0  0  0
 17 18  2  0  0  0  0
 17 19  1  0  0  0  0
 14 15  1  0  0  0  0
 14 16  2  0  0  0  0
 11 12  1  0  0  0  0
 11 13  1  0  0  0  0
 11 14  1  0  0  0  0
  9 10  1  0  0  0  0
  9 11  1  0  0  0  0
  9 17  1  0  0  0  0
  7  8  1  0  0  0  0
  7  9  1  0  0  0  0
 21 22  1  0  0  0  0
 21 23  1  0  0  0  0
 21 24  1  0  0  0  0
 19 20  1  0  0  0  0
 19 21  1  0  0  0  0
M  CHG  1  15  -1
M  END
$$$$
default_name
  -OEChem-02102213163D

 24 23  0     1  0  0  0  0  0999 V2000
   -2.8347   -3.7166    0.8034 H   0  0  0  0  0  0  0  0  0  0  0  0
   -2.7728   -2.7096    0.3954 C   0  0  0  0  0  0  0  0  0  0  0  0
   -3.4267   -2.0426    0.9524 H   0  0  0  0  0  0  0  0  0  0  0  0
   -3.0538   -2.7186   -0.6556 H   0  0  0  0  0  0  0  0  0  0  0  0
   -1.3498   -2.2206    0.5184 C   0  0  0  0  0  0  0  0  0  0  0  0
   -0.4997   -2.9426    1.0194 O   0  0  0  0  0  0  0  0  0  0  0  0
   -1.1198   -0.9926    0.0674 N   0  0  0  0  0  0  0  0  0  0  0  0
   -1.8978   -0.4486   -0.2716 H   0  0  0  0  0  0  0  0  0  0  0  0
    0.1693   -0.2866    0.0854 C   0  0  1  0  0  0  0  0  0  0  0  0
    0.8425   -0.7905    0.7811 H   0  0  0  0  0  0  0  0  0  0  0  0
    0.7993   -0.3404   -1.3233 C   0  0  0  0  0  0  0  0  0  0  0  0
    1.1892   -1.3453   -1.4945 H   0  0  0  0  0  0  0  0  0  0  0  0
    0.0193   -0.1550   -2.0650 H   0  0  0  0  0  0  0  0  0  0  0  0
    1.9537    0.6497   -1.5437 C   0  0  0  0  0  0  0  0  0  0  0  0
    1.7409    1.6738   -2.2346 O   0  5  0  0  0  0  0  0  0  0  0  0
    3.0555    0.3601   -1.0293 O   0  0  0  0  0  0  0  0  0  0  0  0
   -0.0374    1.1645    0.5781 C   0  0  0  0  0  0  0  0  0  0  0  0
   -0.9816    1.8416    0.1544 O   0  0  0  0  0  0  0  0  0  0  0  0
    0.8235    1.6462    1.4801 N   0  0  0  0  0  0  0  0  0  0  0  0
    1.6183    1.0435    1.7020 H   0  0  0  0  0  0  0  0  0  0  0  0
    0.7895    2.9929    2.0404 C   0  0  0  0  0  0  0  0  0  0  0  0
   -0.2344    3.2522    2.3130 H   0  0  0  0  0  0  0  0  0  0  0  0
    1.4265    3.0377    2.9233 H   0  0  0  0  0  0  0  0  0  0  0  0
    1.1511    3.7014    1.2950 H   0  0  0  0  0  0  0  0  0  0  0  0
  5  6  2  0  0  0  0
  5  7  1  0  0  0  0
  2  3  1  0  0  0  0
  2  4  1  0  0  0  0
  2  5  1  0  0  0  0
  1  2  1  0  0  0  0
 17 18  2  0  0  0  0
 17 19  1  0  0  0  0
 14 15  1  0  0  0  0
 14 16  2  0  0  0  0
 11 12  1  0  0  0  0
 11 13  1  0  0  0  0
 11 14  1  0  0  0  0
  9 10  1  0  0  0  0
  9 11  1  0  0  0  0
  9 17  1  0  0  0  0
  7  8  1  0  0  0  0
  7  9  1  0  0  0  0
 21 22  1  0  0  0  0
 21 23  1  0  0  0  0
 21 24  1  0  0  0  0
 19 20  1  0  0  0  0
 19 21  1  0  0  0  0
M  CHG  1  15  -1
M  END
$$$$
default_name
  -OEChem-02102213163D

 24 23  0     1  0  0  0  0  0999 V2000
   -2.8347   -3.7166    0.8034 H   0  0  0  0  0  0  0  0  0  0  0  0
   -2.7728   -2.7096    0.3954 C   0  0  0  0  0  0  0  0  0  0  0  0
   -3.4267   -2.0426    0.9524 H   0  0  0  0  0  0  0  0  0  0  0  0
   -3.0538   -2.7186   -0.6556 H   0  0  0  0  0  0  0  0  0  0  0  0
   -1.3498   -2.2206    0.5184 C   0  0  0  0  0  0  0  0  0  0  0  0
   -0.4997   -2.9426    1.0194 O   0  0  0  0  0  0  0  0  0  0  0  0
   -1.1198   -0.9926    0.0674 N   0  0  0  0  0  0  0  0  0  0  0  0
   -1.8978   -0.4486   -0.2716 H   0  0  0  0  0  0  0  0  0  0  0  0
    0.1693   -0.2866    0.0854 C   0  0  1  0  0  0  0  0  0  0  0  0
    0.8425   -0.7905    0.7811 H   0  0  0  0  0  0  0  0  0  0  0  0
    0.7993   -0.3404   -1.3233 C   0  0  0  0  0  0  0  0  0  0  0  0
    1.1892   -1.3453   -1.4945 H   0  0  0  0  0  0  0  0  0  0  0  0
    0.0193   -0.1550   -2.0650 H   0  0  0  0  0  0  0  0  0  0  0  0
    1.9537    0.6497   -1.5437 C   0  0  0  0  0  0  0  0  0  0  0  0
    1.6863    1.7943   -1.9794 O   0  5  0  0  0  0  0  0  0  0  0  0
    3.1075    0.2415   -1.2897 O   0  0  0  0  0  0  0  0  0  0  0  0
   -0.0374    1.1645    0.5781 C   0  0  0  0  0  0  0  0  0  0  0  0
   -0.9816    1.8416    0.1544 O   0  0  0  0  0  0  0  0  0  0  0  0
    0.8235    1.6462    1.4801 N   0  0  0  0  0  0  0  0  0  0  0  0
    1.6183    1.0435    1.7020 H   0  0  0  0  0  0  0  0  0  0  0  0
    0.7895    2.9929    2.0404 C   0  0  0  0  0  0  0  0  0  0  0  0
   -0.2344    3.2522    2.3130 H   0  0  0  0  0  0  0  0  0  0  0  0
    1.4265    3.0377    2.9233 H   0  0  0  0  0  0  0  0  0  0  0  0
    1.1511    3.7014    1.2950 H   0  0  0  0  0  0  0  0  0  0  0  0
  5  6  2  0  0  0  0
  5  7  1  0  0  0  0
  2  3  1  0  0  0  0
  2  4  1  0  0  0  0
  2  5  1  0  0  0  0
  1  2  1  0  0  0  0
 17 18  2  0  0  0  0
 17 19  1  0  0  0  0
 14 15  1  0  0  0  0
 14 16  2  0  0  0  0
 11 12  1  0  0  0  0
 11 13  1  0  0  0  0
 11 14  1  0  0  0  0
  9 10  1  0  0  0  0
  9 11  1  0  0  0  0
  9 17  1  0  0  0  0
  7  8  1  0  0  0  0
  7  9  1  0  0  0  0
 21 22  1  0  0  0  0
 21 23  1  0  0  0  0
 21 24  1  0  0  0  0
 19 20  1  0  0  0  0
 19 21  1  0  0  0  0
M  CHG  1  15  -1
M  END
$$$$
default_name
  -OEChem-02102213163D

 24 23  0     1  0  0  0  0  0999 V2000
   -2.8347   -3.7166    0.8034 H   0  0  0  0  0  0  0  0  0  0  0  0
   -2.7728   -2.7096    0.3954 C   0  0  0  0  0  0  0  0  0  0  0  0
   -3.4267   -2.0426    0.9524 H   0  0  0  0  0  0  0  0  0  0  0  0
   -3.0538   -2.7186   -0.6556 H   0  0  0  0  0  0  0  0  0  0  0  0
   -1.3498   -2.2206    0.5184 C   0  0  0  0  0  0  0  0  0  0  0  0
   -0.4997   -2.9426    1.0194 O   0  0  0  0  0  0  0  0  0  0  0  0
   -1.1198   -0.9926    0.0674 N   0  0  0  0  0  0  0  0  0  0  0  0
   -1.8978   -0.4486   -0.2716 H   0  0  0  0  0  0  0  0  0  0  0  0
    0.1693   -0.2866    0.0854 C   0  0  1  0  0  0  0  0  0  0  0  0
    0.8425   -0.7905    0.7811 H   0  0  0  0  0  0  0  0  0  0  0  0
    0.7993   -0.3404   -1.3233 C   0  0  0  0  0  0  0  0  0  0  0  0
    1.1892   -1.3453   -1.4945 H   0  0  0  0  0  0  0  0  0  0  0  0
    0.0193   -0.1550   -2.0650 H   0  0  0  0  0  0  0  0  0  0  0  0
    1.9537    0.6497   -1.5437 C   0  0  0  0  0  0  0  0  0  0  0  0
    1.6806    1.8631   -1.7003 O   0  5  0  0  0  0  0  0  0  0  0  0
    3.1099    0.1757   -1.5728 O   0  0  0  0  0  0  0  0  0  0  0  0
   -0.0374    1.1645    0.5781 C   0  0  0  0  0  0  0  0  0  0  0  0
   -0.9816    1.8416    0.1544 O   0  0  0  0  0  0  0  0  0  0  0  0
    0.8235    1.6462    1.4801 N   0  0  0  0  0  0  0  0  0  0  0  0
    1.6183    1.0435    1.7020 H   0  0  0  0  0  0  0  0  0  0  0  0
    0.7895    2.9929    2.0404 C   0  0  0  0  0  0  0  0  0  0  0  0
   -0.2344    3.2522    2.3130 H   0  0  0  0  0  0  0  0  0  0  0  0
    1.4265    3.0377    2.9233 H   0  0  0  0  0  0  0  0  0  0  0  0
    1.1511    3.7014    1.2950 H   0  0  0  0  0  0  0  0  0  0  0  0
  5  6  2  0  0  0  0
  5  7  1  0  0  0  0
  2  3  1  0  0  0  0
  2  4  1  0  0  0  0
  2  5  1  0  0  0  0
  1  2  1  0  0  0  0
 17 18  2  0  0  0  0
 17 19  1  0  0  0  0
 14 15  1  0  0  0  0
 14 16  2  0  0  0  0
 11 12  1  0  0  0  0
 11 13  1  0  0  0  0
 11 14  1  0  0  0  0
  9 10  1  0  0  0  0
  9 11  1  0  0  0  0
  9 17  1  0  0  0  0
  7  8  1  0  0  0  0
  7  9  1  0  0  0  0
 21 22  1  0  0  0  0
 21 23  1  0  0  0  0
 21 24  1  0  0  0  0
 19 20  1  0  0  0  0
 19 21  1  0  0  0  0
M  CHG  1  15  -1
M  END
$$$$
default_name
  -OEChem-02102213163D

 24 23  0     1  0  0  0  0  0999 V2000
   -2.8347   -3.7166    0.8034 H   0  0  0  0  0  0  0  0  0  0  0  0
   -2.7728   -2.7096    0.3954 C   0  0  0  0  0  0  0  0  0  0  0  0
   -3.4267   -2.0426    0.9524 H   0  0  0  0  0  0  0  0  0  0  0  0
   -3.0538   -2.7186   -0.6556 H   0  0  0  0  0  0  0  0  0  0  0  0
   -1.3498   -2.2206    0.5184 C   0  0  0  0  0  0  0  0  0  0  0  0
   -0.4997   -2.9426    1.0194 O   0  0  0  0  0  0  0  0  0  0  0  0
   -1.1198   -0.9926    0.0674 N   0  0  0  0  0  0  0  0  0  0  0  0
   -1.8978   -0.4486   -0.2716 H   0  0  0  0  0  0  0  0  0  0  0  0
    0.1693   -0.2866    0.0854 C   0  0  1  0  0  0  0  0  0  0  0  0
    0.8425   -0.7905    0.7811 H   0  0  0  0  0  0  0  0  0  0  0  0
    0.7993   -0.3404   -1.3233 C   0  0  0  0  0  0  0  0  0  0  0  0
    1.1892   -1.3453   -1.4945 H   0  0  0  0  0  0  0  0  0  0  0  0
    0.0193   -0.1550   -2.0650 H   0  0  0  0  0  0  0  0  0  0  0  0
    1.9537    0.6497   -1.5437 C   0  0  0  0  0  0  0  0  0  0  0  0
    1.7241    1.8756   -1.4164 O   0  5  0  0  0  0  0  0  0  0  0  0
    3.0625    0.1671   -1.8596 O   0  0  0  0  0  0  0  0  0  0  0  0
   -0.0374    1.1645    0.5781 C   0  0  0  0  0  0  0  0  0  0  0  0
   -0.9816    1.8416    0.1544 O   0  0  0  0  0  0  0  0  0  0  0  0
    0.8235    1.6462    1.4801 N   0  0  0  0  0  0  0  0  0  0  0  0
    1.6183    1.0435    1.7020 H   0  0  0  0  0  0  0  0  0  0  0  0
    0.7895    2.9929    2.0404 C   0  0  0  0  0  0  0  0  0  0  0  0
   -0.2344    3.2522    2.3130 H   0  0  0  0  0  0  0  0  0  0  0  0
    1.4265    3.0377    2.9233 H   0  0  0  0  0  0  0  0  0  0  0  0
    1.1511    3.7014    1.2950 H   0  0  0  0  0  0  0  0  0  0  0  0
  5  6  2  0  0  0  0
  5  7  1  0  0  0  0
  2  3  1  0  0  0  0
  2  4  1  0  0  0  0
  2  5  1  0  0  0  0
  1  2  1  0  0  0  0
 17 18  2  0  0  0  0
 17 19  1  0  0  0  0
 14 15  1  0  0  0  0
 14 16  2  0  0  0  0
 11 12  1  0  0  0  0
 11 13  1  0  0  0  0
 11 14  1  0  0  0  0
  9 10  1  0  0  0  0
  9 11  1  0  0  0  0
  9 17  1  0  0  0  0
  7  8  1  0  0  0  0
  7  9  1  0  0  0  0
 21 22  1  0  0  0  0
 21 23  1  0  0  0  0
 21 24  1  0  0  0  0
 19 20  1  0  0  0  0
 19 21  1  0  0  0  0
M  CHG  1  15  -1
M  END
$$$$
default_name
  -OEChem-02102213163D

 24 23  0     1  0  0  0  0  0999 V2000
   -2.8347   -3.7166    0.8034 H   0  0  0  0  0  0  0  0  0  0  0  0
   -2.7728   -2.7096    0.3954 C   0  0  0  0  0  0  0  0  0  0  0  0
   -3.4267   -2.0426    0.9524 H   0  0  0  0  0  0  0  0  0  0  0  0
   -3.0538   -2.7186   -0.6556 H   0  0  0  0  0  0  0  0  0  0  0  0
   -1.3498   -2.2206    0.5184 C   0  0  0  0  0  0  0  0  0  0  0  0
   -0.4997   -2.9426    1.0194 O   0  0  0  0  0  0  0  0  0  0  0  0
   -1.1198   -0.9926    0.0674 N   0  0  0  0  0  0  0  0  0  0  0  0
   -1.8978   -0.4486   -0.2716 H   0  0  0  0  0  0  0  0  0  0  0  0
    0.1693   -0.2866    0.0854 C   0  0  1  0  0  0  0  0  0  0  0  0
    0.8425   -0.7905    0.7811 H   0  0  0  0  0  0  0  0  0  0  0  0
    0.7993   -0.3404   -1.3233 C   0  0  0  0  0  0  0  0  0  0  0  0
    1.1892   -1.3453   -1.4945 H   0  0  0  0  0  0  0  0  0  0  0  0
    0.0193   -0.1550   -2.0650 H   0  0  0  0  0  0  0  0  0  0  0  0
    1.9537    0.6497   -1.5437 C   0  0  0  0  0  0  0  0  0  0  0  0
    1.8140    1.8307   -1.1471 O   0  5  0  0  0  0  0  0  0  0  0  0
    2.9687    0.2162   -2.1303 O   0  0  0  0  0  0  0  0  0  0  0  0
   -0.0374    1.1645    0.5781 C   0  0  0  0  0  0  0  0  0  0  0  0
   -0.9816    1.8416    0.1544 O   0  0  0  0  0  0  0  0  0  0  0  0
    0.8235    1.6462    1.4801 N   0  0  0  0  0  0  0  0  0  0  0  0
    1.6183    1.0435    1.7020 H   0  0  0  0  0  0  0  0  0  0  0  0
    0.7895    2.9929    2.0404 C   0  0  0  0  0  0  0  0  0  0  0  0
   -0.2344    3.2522    2.3130 H   0  0  0  0  0  0  0  0  0  0  0  0
    1.4265    3.0377    2.9233 H   0  0  0  0  0  0  0  0  0  0  0  0
    1.1511    3.7014    1.2950 H   0  0  0  0  0  0  0  0  0  0  0  0
  5  6  2  0  0  0  0
  5  7  1  0  0  0  0
  2  3  1  0  0  0  0
  2  4  1  0  0  0  0
  2  5  1  0  0  0  0
  1  2  1  0  0  0  0
 17 18  2  0  0  0  0
 17 19  1  0  0  0  0
 14 15  1  0  0  0  0
 14 16  2  0  0  0  0
 11 12  1  0  0  0  0
 11 13  1  0  0  0  0
 11 14  1  0  0  0  0
  9 10  1  0  0  0  0
  9 11  1  0  0  0  0
  9 17  1  0  0  0  0
  7  8  1  0  0  0  0
  7  9  1  0  0  0  0
 21 22  1  0  0  0  0
 21 23  1  0  0  0  0
 21 24  1  0  0  0  0
 19 20  1  0  0  0  0
 19 21  1  0  0  0  0
M  CHG  1  15  -1
M  END
$$$$
default_name
  -OEChem-02102213163D

 24 23  0     1  0  0  0  0  0999 V2000
   -2.8347   -3.7166    0.8034 H   0  0  0  0  0  0  0  0  0  0  0  0
   -2.7728   -2.7096    0.3954 C   0  0  0  0  0  0  0  0  0  0  0  0
   -3.4267   -2.0426    0.9524 H   0  0  0  0  0  0  0  0  0  0  0  0
   -3.0538   -2.7186   -0.6556 H   0  0  0  0  0  0  0  0  0  0  0  0
   -1.3498   -2.2206    0.5184 C   0  0  0  0  0  0  0  0  0  0  0  0
   -0.4997   -2.9426    1.0194 O   0  0  0  0  0  0  0  0  0  0  0  0
   -1.1198   -0.9926    0.0674 N   0  0  0  0  0  0  0  0  0  0  0  0
   -1.8978   -0.4486   -0.2716 H   0  0  0  0  0  0  0  0  0  0  0  0
    0.1693   -0.2866    0.0854 C   0  0  1  0  0  0  0  0  0  0  0  0
    0.8425   -0.7905    0.7811 H   0  0  0  0  0  0  0  0  0  0  0  0
    0.7993   -0.3404   -1.3233 C   0  0  0  0  0  0  0  0  0  0  0  0
    1.1892   -1.3453   -1.4945 H   0  0  0  0  0  0  0  0  0  0  0  0
    0.0193   -0.1550   -2.0650 H   0  0  0  0  0  0  0  0  0  0  0  0
    1.9537    0.6497   -1.5437 C   0  0  0  0  0  0  0  0  0  0  0  0
    1.9441    1.7317   -0.9106 O   0  5  0  0  0  0  0  0  0  0  0  0
    2.8347    0.3198   -2.3666 O   0  0  0  0  0  0  0  0  0  0  0  0
   -0.0374    1.1645    0.5781 C   0  0  0  0  0  0  0  0  0  0  0  0
   -0.9816    1.8416    0.1544 O   0  0  0  0  0  0  0  0  0  0  0  0
    0.8235    1.6462    1.4801 N   0  0  0  0  0  0  0  0  0  0  0  0
    1.6183    1.0435    1.7020 H   0  0  0  0  0  0  0  0  0  0  0  0
    0.7895    2.9929    2.0404 C   0  0  0  0  0  0  0  0  0  0  0  0
   -0.2344    3.2522    2.3130 H   0  0  0  0  0  0  0  0  0  0  0  0
    1.4265    3.0377    2.9233 H   0  0  0  0  0  0  0  0  0  0  0  0
    1.1511    3.7014    1.2950 H   0  0  0  0  0  0  0  0  0  0  0  0
  5  6  2  0  0  0  0
  5  7  1  0  0  0  0
  2  3  1  0  0  0  0
  2  4  1  0  0  0  0
  2  5  1  0  0  0  0
  1  2  1  0  0  0  0
 17 18  2  0  0  0  0
 17 19  1  0  0  0  0
 14 15  1  0  0  0  0
 14 16  2  0  0  0  0
 11 12  1  0  0  0  0
 11 13  1  0  0  0  0
 11 14  1  0  0  0  0
  9 10  1  0  0  0  0
  9 11  1  0  0  0  0
  9 17  1  0  0  0  0
  7  8  1  0  0  0  0
  7  9  1  0  0  0  0
 21 22  1  0  0  0  0
 21 23  1  0  0  0  0
 21 24  1  0  0  0  0
 19 20  1  0  0  0  0
 19 21  1  0  0  0  0
M  CHG  1  15  -1
M  END
$$$$
default_name
  -OEChem-02102213163D

 24 23  0     1  0  0  0  0  0999 V2000
   -2.8347   -3.7166    0.8034 H   0  0  0  0  0  0  0  0  0  0  0  0
   -2.7728   -2.7096    0.3954 C   0  0  0  0  0  0  0  0  0  0  0  0
   -3.4267   -2.0426    0.9524 H   0  0  0  0  0  0  0  0  0  0  0  0
   -3.0538   -2.7186   -0.6556 H   0  0  0  0  0  0  0  0  0  0  0  0
   -1.3498   -2.2206    0.5184 C   0  0  0  0  0  0  0  0  0  0  0  0
   -0.4997   -2.9426    1.0194 O   0  0  0  0  0  0  0  0  0  0  0  0
   -1.1198   -0.9926    0.0674 N   0  0  0  0  0  0  0  0  0  0  0  0
   -1.8978   -0.4486   -0.2716 H   0  0  0  0  0  0  0  0  0  0  0  0
    0.1693   -0.2866    0.0854 C   0  0  1  0  0  0  0  0  0  0  0  0
    0.8425   -0.7905    0.7811 H   0  0  0  0  0  0  0  0  0  0  0  0
    0.7993   -0.3404   -1.3233 C   0  0  0  0  0  0  0  0  0  0  0  0
    1.1892   -1.3453   -1.4945 H   0  0  0  0  0  0  0  0  0  0  0  0
    0.0193   -0.1550   -2.0650 H   0  0  0  0  0  0  0  0  0  0  0  0
    1.9537    0.6497   -1.5437 C   0  0  0  0  0  0  0  0  0  0  0  0
    2.1055    1.5853   -0.7231 O   0  5  0  0  0  0  0  0  0  0  0  0
    2.6698    0.4708   -2.5524 O   0  0  0  0  0  0  0  0  0  0  0  0
   -0.0374    1.1645    0.5781 C   0  0  0  0  0  0  0  0  0  0  0  0
   -0.9816    1.8416    0.1544 O   0  0  0  0  0  0  0  0  0  0  0  0
    0.8235    1.6462    1.4801 N   0  0  0  0  0  0  0  0  0  0  0  0
    1.6183    1.0435    1.7020 H   0  0  0  0  0  0  0  0  0  0  0  0
    0.7895    2.9929    2.0404 C   0  0  0  0  0  0  0  0  0  0  0  0
   -0.2344    3.2522    2.3130 H   0  0  0  0  0  0  0  0  0  0  0  0
    1.4265    3.0377    2.9233 H   0  0  0  0  0  0  0  0  0  0  0  0
    1.1511    3.7014    1.2950 H   0  0  0  0  0  0  0  0  0  0  0  0
  5  6  2  0  0  0  0
  5  7  1  0  0  0  0
  2  3  1  0  0  0  0
  2  4  1  0  0  0  0
  2  5  1  0  0  0  0
  1  2  1  0  0  0  0
 17 18  2  0  0  0  0
 17 19  1  0  0  0  0
 14 15  1  0  0  0  0
 14 16  2  0  0  0  0
 11 12  1  0  0  0  0
 11 13  1  0  0  0  0
 11 14  1  0  0  0  0
  9 10  1  0  0  0  0
  9 11  1  0  0  0  0
  9 17  1  0  0  0  0
  7  8  1  0  0  0  0
  7  9  1  0  0  0  0
 21 22  1  0  0  0  0
 21 23  1  0  0  0  0
 21 24  1  0  0  0  0
 19 20  1  0  0  0  0
 19 21  1  0  0  0  0
M  CHG  1  15  -1
M  END
$$$$
default_name
  -OEChem-02102213163D

 24 23  0     1  0  0  0  0  0999 V2000
   -2.8347   -3.7166    0.8034 H   0  0  0  0  0  0  0  0  0  0  0  0
   -2.7728   -2.7096    0.3954 C   0  0  0  0  0  0  0  0  0  0  0  0
   -3.4267   -2.0426    0.9524 H   0  0  0  0  0  0  0  0  0  0  0  0
   -3.0538   -2.7186   -0.6556 H   0  0  0  0  0  0  0  0  0  0  0  0
   -1.3498   -2.2206    0.5184 C   0  0  0  0  0  0  0  0  0  0  0  0
   -0.4997   -2.9426    1.0194 O   0  0  0  0  0  0  0  0  0  0  0  0
   -1.1198   -0.9926    0.0674 N   0  0  0  0  0  0  0  0  0  0  0  0
   -1.8978   -0.4486   -0.2716 H   0  0  0  0  0  0  0  0  0  0  0  0
    0.1693   -0.2866    0.0854 C   0  0  1  0  0  0  0  0  0  0  0  0
    0.8425   -0.7905    0.7811 H   0  0  0  0  0  0  0  0  0  0  0  0
    0.7993   -0.3404   -1.3233 C   0  0  0  0  0  0  0  0  0  0  0  0
    1.1892   -1.3453   -1.4945 H   0  0  0  0  0  0  0  0  0  0  0  0
    0.0193   -0.1550   -2.0650 H   0  0  0  0  0  0  0  0  0  0  0  0
    1.9537    0.6497   -1.5437 C   0  0  0  0  0  0  0  0  0  0  0  0
    2.2872    1.4014   -0.5974 O   0  5  0  0  0  0  0  0  0  0  0  0
    2.4850    0.6589   -2.6749 O   0  0  0  0  0  0  0  0  0  0  0  0
   -0.0374    1.1645    0.5781 C   0  0  0  0  0  0  0  0  0  0  0  0
   -0.9816    1.8416    0.1544 O   0  0  0  0  0  0  0  0  0  0  0  0
    0.8235    1.6462    1.4801 N   0  0  0  0  0  0  0  0  0  0  0  0
    1.6183    1.0435    1.7020 H   0  0  0  0  0  0  0  0  0  0  0  0
    0.7895    2.9929    2.0404 C   0  0  0  0  0  0  0  0  0  0  0  0
   -0.2344    3.2522    2.3130 H   0  0  0  0  0  0  0  0  0  0  0  0
    1.4265    3.0377    2.9233 H   0  0  0  0  0  0  0  0  0  0  0  0
    1.1511    3.7014    1.2950 H   0  0  0  0  0  0  0  0  0  0  0  0
  5  6  2  0  0  0  0
  5  7  1  0  0  0  0
  2  3  1  0  0  0  0
  2  4  1  0  0  0  0
  2  5  1  0  0  0  0
  1  2  1  0  0  0  0
 17 18  2  0  0  0  0
 17 19  1  0  0  0  0
 14 15  1  0  0  0  0
 14 16  2  0  0  0  0
 11 12  1  0  0  0  0
 11 13  1  0  0  0  0
 11 14  1  0  0  0  0
  9 10  1  0  0  0  0
  9 11  1  0  0  0  0
  9 17  1  0  0  0  0
  7  8  1  0  0  0  0
  7  9  1  0  0  0  0
 21 22  1  0  0  0  0
 21 23  1  0  0  0  0
 21 24  1  0  0  0  0
 19 20  1  0  0  0  0
 19 21  1  0  0  0  0
M  CHG  1  15  -1
M  END
$$$$
default_name
  -OEChem-02102213163D

 24 23  0     1  0  0  0  0  0999 V2000
   -2.8347   -3.7166    0.8034 H   0  0  0  0  0  0  0  0  0  0  0  0
   -2.7728   -2.7096    0.3954 C   0  0  0  0  0  0  0  0  0  0  0  0
   -3.4267   -2.0426    0.9524 H   0  0  0  0  0  0  0  0  0  0  0  0
   -3.0538   -2.7186   -0.6556 H   0  0  0  0  0  0  0  0  0  0  0  0
   -1.3498   -2.2206    0.5184 C   0  0  0  0  0  0  0  0  0  0  0  0
   -0.4997   -2.9426    1.0194 O   0  0  0  0  0  0  0  0  0  0  0  0
   -1.1198   -0.9926    0.0674 N   0  0  0  0  0  0  0  0  0  0  0  0
   -1.8978   -0.4486   -0.2716 H   0  0  0  0  0  0  0  0  0  0  0  0
    0.1693   -0.2866    0.0854 C   0  0  1  0  0  0  0  0  0  0  0  0
    0.8425   -0.7905    0.7811 H   0  0  0  0  0  0  0  0  0  0  0  0
    0.7993   -0.3404   -1.3233 C   0  0  0  0  0  0  0  0  0  0  0  0
    1.1892   -1.3453   -1.4945 H   0  0  0  0  0  0  0  0  0  0  0  0
    0.0193   -0.1550   -2.0650 H   0  0  0  0  0  0  0  0  0  0  0  0
    1.9537    0.6497   -1.5437 C   0  0  0  0  0  0  0  0  0  0  0  0
    2.4769    1.1925   -0.5420 O   0  5  0  0  0  0  0  0  0  0  0  0
    2.2932    0.8713   -2.7260 O   0  0  0  0  0  0  0  0  0  0  0  0
   -0.0374    1.1645    0.5781 C   0  0  0  0  0  0  0  0  0  0  0  0
   -0.9816    1.8416    0.1544 O   0  0  0  0  0  0  0  0  0  0  0  0
    0.8235    1.6462    1.4801 N   0  0  0  0  0  0  0  0  0  0  0  0
    1.6183    1.0435    1.7020 H   0  0  0  0  0  0  0  0  0  0  0  0
    0.7895    2.9929    2.0404 C   0  0  0  0  0  0  0  0  0  0  0  0
   -0.2344    3.2522    2.3130 H   0  0  0  0  0  0  0  0  0  0  0  0
    1.4265    3.0377    2.9233 H   0  0  0  0  0  0  0  0  0  0  0  0
    1.1511    3.7014    1.2950 H   0  0  0  0  0  0  0  0  0  0  0  0
  5  6  2  0  0  0  0
  5  7  1  0  0  0  0
  2  3  1  0  0  0  0
  2  4  1  0  0  0  0
  2  5  1  0  0  0  0
  1  2  1  0  0  0  0
 17 18  2  0  0  0  0
 17 19  1  0  0  0  0
 14 15  1  0  0  0  0
 14 16  2  0  0  0  0
 11 12  1  0  0  0  0
 11 13  1  0  0  0  0
 11 14  1  0  0  0  0
  9 10  1  0  0  0  0
  9 11  1  0  0  0  0
  9 17  1  0  0  0  0
  7  8  1  0  0  0  0
  7  9  1  0  0  0  0
 21 22  1  0  0  0  0
 21 23  1  0  0  0  0
 21 24  1  0  0  0  0
 19 20  1  0  0  0  0
 19 21  1  0  0  0  0
M  CHG  1  15  -1
M  END
$$$$
default_name
  -OEChem-02102213163D

 24 23  0     1  0  0  0  0  0999 V2000
   -2.8347   -3.7166    0.8034 H   0  0  0  0  0  0  0  0  0  0  0  0
   -2.7728   -2.7096    0.3954 C   0  0  0  0  0  0  0  0  0  0  0  0
   -3.4267   -2.0426    0.9524 H   0  0  0  0  0  0  0  0  0  0  0  0
   -3.0538   -2.7186   -0.6556 H   0  0  0  0  0  0  0  0  0  0  0  0
   -1.3498   -2.2206    0.5184 C   0  0  0  0  0  0  0  0  0  0  0  0
   -0.4997   -2.9426    1.0194 O   0  0  0  0  0  0  0  0  0  0  0  0
   -1.1198   -0.9926    0.0674 N   0  0  0  0  0  0  0  0  0  0  0  0
   -1.8978   -0.4486   -0.2716 H   0  0  0  0  0  0  0  0  0  0  0  0
    0.1693   -0.2866    0.0854 C   0  0  1  0  0  0  0  0  0  0  0  0
    0.8425   -0.7905    0.7811 H   0  0  0  0  0  0  0  0  0  0  0  0
    0.7993   -0.3404   -1.3233 C   0  0  0  0  0  0  0  0  0  0  0  0
    1.1892   -1.3453   -1.4945 H   0  0  0  0  0  0  0  0  0  0  0  0
    0.0193   -0.1550   -2.0650 H   0  0  0  0  0  0  0  0  0  0  0  0
    1.9537    0.6497   -1.5437 C   0  0  0  0  0  0  0  0  0  0  0  0
    2.6615    0.9730   -0.5607 O   0  5  0  0  0  0  0  0  0  0  0  0
    2.1072    1.0935   -2.7020 O   0  0  0  0  0  0  0  0  0  0  0  0
   -0.0374    1.1645    0.5781 C   0  0  0  0  0  0  0  0  0  0  0  0
   -0.9816    1.8416    0.1544 O   0  0  0  0  0  0  0  0  0  0  0  0
    0.8235    1.6462    1.4801 N   0  0  0  0  0  0  0  0  0  0  0  0
    1.6183    1.0435    1.7020 H   0  0  0  0  0  0  0  0  0  0  0  0
    0.7895    2.9929    2.0404 C   0  0  0  0  0  0  0  0  0  0  0  0
   -0.2344    3.2522    2.3130 H   0  0  0  0  0  0  0  0  0  0  0  0
    1.4265    3.0377    2.9233 H   0  0  0  0  0  0  0  0  0  0  0  0
    1.1511    3.7014    1.2950 H   0  0  0  0  0  0  0  0  0  0  0  0
  5  6  2  0  0  0  0
  5  7  1  0  0  0  0
  2  3  1  0  0  0  0
  2  4  1  0  0  0  0
  2  5  1  0  0  0  0
  1  2  1  0  0  0  0
 17 18  2  0  0  0  0
 17 19  1  0  0  0  0
 14 15  1  0  0  0  0
 14 16  2  0  0  0  0
 11 12  1  0  0  0  0
 11 13  1  0  0  0  0
 11 14  1  0  0  0  0
  9 10  1  0  0  0  0
  9 11  1  0  0  0  0
  9 17  1  0  0  0  0
  7  8  1  0  0  0  0
  7  9  1  0  0  0  0
 21 22  1  0  0  0  0
 21 23  1  0  0  0  0
 21 24  1  0  0  0  0
 19 20  1  0  0  0  0
 19 21  1  0  0  0  0
M  CHG  1  15  -1
M  END
$$$$
default_name
  -OEChem-02102213163D

 24 23  0     1  0  0  0  0  0999 V2000
   -2.8347   -3.7166    0.8034 H   0  0  0  0  0  0  0  0  0  0  0  0
   -2.7728   -2.7096    0.3954 C   0  0  0  0  0  0  0  0  0  0  0  0
   -3.4267   -2.0426    0.9524 H   0  0  0  0  0  0  0  0  0  0  0  0
   -3.0538   -2.7186   -0.6556 H   0  0  0  0  0  0  0  0  0  0  0  0
   -1.3498   -2.2206    0.5184 C   0  0  0  0  0  0  0  0  0  0  0  0
   -0.4997   -2.9426    1.0194 O   0  0  0  0  0  0  0  0  0  0  0  0
   -1.1198   -0.9926    0.0674 N   0  0  0  0  0  0  0  0  0  0  0  0
   -1.8978   -0.4486   -0.2716 H   0  0  0  0  0  0  0  0  0  0  0  0
    0.1693   -0.2866    0.0854 C   0  0  1  0  0  0  0  0  0  0  0  0
    0.8425   -0.7905    0.7811 H   0  0  0  0  0  0  0  0  0  0  0  0
    0.7993   -0.3404   -1.3233 C   0  0  0  0  0  0  0  0  0  0  0  0
    1.1892   -1.3453   -1.4945 H   0  0  0  0  0  0  0  0  0  0  0  0
    0.0193   -0.1550   -2.0650 H   0  0  0  0  0  0  0  0  0  0  0  0
    1.9537    0.6497   -1.5437 C   0  0  0  0  0  0  0  0  0  0  0  0
    2.8287    0.7578   -0.6523 O   0  5  0  0  0  0  0  0  0  0  0  0
    1.9398    1.3103   -2.6046 O   0  0  0  0  0  0  0  0  0  0  0  0
   -0.0374    1.1645    0.5781 C   0  0  0  0  0  0  0  0  0  0  0  0
   -0.9816    1.8416    0.1544 O   0  0  0  0  0  0  0  0  0  0  0  0
    0.8235    1.6462    1.4801 N   0  0  0  0  0  0  0  0  0  0  0  0
    1.6183    1.0435    1.7020 H   0  0  0  0  0  0  0  0  0  0  0  0
    0.7895    2.9929    2.0404 C   0  0  0  0  0  0  0  0  0  0  0  0
   -0.2344    3.2522    2.3130 H   0  0  0  0  0  0  0  0  0  0  0  0
    1.4265    3.0377    2.9233 H   0  0  0  0  0  0  0  0  0  0  0  0
    1.1511    3.7014    1.2950 H   0  0  0  0  0  0  0  0  0  0  0  0
  5  6  2  0  0  0  0
  5  7  1  0  0  0  0
  2  3  1  0  0  0  0
  2  4  1  0  0  0  0
  2  5  1  0  0  0  0
  1  2  1  0  0  0  0
 17 18  2  0  0  0  0
 17 19  1  0  0  0  0
 14 15  1  0  0  0  0
 14 16  2  0  0  0  0
 11 12  1  0  0  0  0
 11 13  1  0  0  0  0
 11 14  1  0  0  0  0
  9 10  1  0  0  0  0
  9 11  1  0  0  0  0
  9 17  1  0  0  0  0
  7  8  1  0  0  0  0
  7  9  1  0  0  0  0
 21 22  1  0  0  0  0
 21 23  1  0  0  0  0
 21 24  1  0  0  0  0
 19 20  1  0  0  0  0
 19 21  1  0  0  0  0
M  CHG  1  15  -1
M  END
$$$$
default_name
  -OEChem-02102213163D

 24 23  0     1  0  0  0  0  0999 V2000
   -2.8347   -3.7166    0.8034 H   0  0  0  0  0  0  0  0  0  0  0  0
   -2.7728   -2.7096    0.3954 C   0  0  0  0  0  0  0  0  0  0  0  0
   -3.4267   -2.0426    0.9524 H   0  0  0  0  0  0  0  0  0  0  0  0
   -3.0538   -2.7186   -0.6556 H   0  0  0  0  0  0  0  0  0  0  0  0
   -1.3498   -2.2206    0.5184 C   0  0  0  0  0  0  0  0  0  0  0  0
   -0.4997   -2.9426    1.0194 O   0  0  0  0  0  0  0  0  0  0  0  0
   -1.1198   -0.9926    0.0674 N   0  0  0  0  0  0  0  0  0  0  0  0
   -1.8978   -0.4486   -0.2716 H   0  0  0  0  0  0  0  0  0  0  0  0
    0.1693   -0.2866    0.0854 C   0  0  1  0  0  0  0  0  0  0  0  0
    0.8425   -0.7905    0.7811 H   0  0  0  0  0  0  0  0  0  0  0  0
    0.7993   -0.3404   -1.3233 C   0  0  0  0  0  0  0  0  0  0  0  0
    1.1892   -1.3453   -1.4945 H   0  0  0  0  0  0  0  0  0  0  0  0
    0.0193   -0.1550   -2.0650 H   0  0  0  0  0  0  0  0  0  0  0  0
    1.9537    0.6497   -1.5437 C   0  0  0  0  0  0  0  0  0  0  0  0
    2.9668    0.5615   -0.8105 O   0  5  0  0  0  0  0  0  0  0  0  0
    1.8024    1.5071   -2.4404 O   0  0  0  0  0  0  0  0  0  0  0  0
   -0.0374    1.1645    0.5781 C   0  0  0  0  0  0  0  0  0  0  0  0
   -0.9816    1.8416    0.1544 O   0  0  0  0  0  0  0  0  0  0  0  0
    0.8235    1.6462    1.4801 N   0  0  0  0  0  0  0  0  0  0  0  0
    1.6183    1.0435    1.7020 H   0  0  0  0  0  0  0  0  0  0  0  0
    0.7895    2.9929    2.0404 C   0  0  0  0  0  0  0  0  0  0  0  0
   -0.2344    3.2522    2.3130 H   0  0  0  0  0  0  0  0  0  0  0  0
    1.4265    3.0377    2.9233 H   0  0  0  0  0  0  0  0  0  0  0  0
    1.1511    3.7014    1.2950 H   0  0  0  0  0  0  0  0  0  0  0  0
  5  6  2  0  0  0  0
  5  7  1  0  0  0  0
  2  3  1  0  0  0  0
  2  4  1  0  0  0  0
  2  5  1  0  0  0  0
  1  2  1  0  0  0  0
 17 18  2  0  0  0  0
 17 19  1  0  0  0  0
 14 15  1  0  0  0  0
 14 16  2  0  0  0  0
 11 12  1  0  0  0  0
 11 13  1  0  0  0  0
 11 14  1  0  0  0  0
  9 10  1  0  0  0  0
  9 11  1  0  0  0  0
  9 17  1  0  0  0  0
  7  8  1  0  0  0  0
  7  9  1  0  0  0  0
 21 22  1  0  0  0  0
 21 23  1  0  0  0  0
 21 24  1  0  0  0  0
 19 20  1  0  0  0  0
 19 21  1  0  0  0  0
M  CHG  1  15  -1
M  END
$$$$
default_name
  -OEChem-02102213163D

 24 23  0     1  0  0  0  0  0999 V2000
   -2.8347   -3.7166    0.8034 H   0  0  0  0  0  0  0  0  0  0  0  0
   -2.7728   -2.7096    0.3954 C   0  0  0  0  0  0  0  0  0  0  0  0
   -3.4267   -2.0426    0.9524 H   0  0  0  0  0  0  0  0  0  0  0  0
   -3.0538   -2.7186   -0.6556 H   0  0  0  0  0  0  0  0  0  0  0  0
   -1.3498   -2.2206    0.5184 C   0  0  0  0  0  0  0  0  0  0  0  0
   -0.4997   -2.9426    1.0194 O   0  0  0  0  0  0  0  0  0  0  0  0
   -1.1198   -0.9926    0.0674 N   0  0  0  0  0  0  0  0  0  0  0  0
   -1.8978   -0.4486   -0.2716 H   0  0  0  0  0  0  0  0  0  0  0  0
    0.1693   -0.2866    0.0854 C   0  0  1  0  0  0  0  0  0  0  0  0
    0.8425   -0.7905    0.7811 H   0  0  0  0  0  0  0  0  0  0  0  0
    0.7993   -0.3404   -1.3233 C   0  0  0  0  0  0  0  0  0  0  0  0
    1.1892   -1.3453   -1.4945 H   0  0  0  0  0  0  0  0  0  0  0  0
    0.0193   -0.1550   -2.0650 H   0  0  0  0  0  0  0  0  0  0  0  0
    1.9537    0.6497   -1.5437 C   0  0  0  0  0  0  0  0  0  0  0  0
    3.0666    0.3975   -1.0245 O   0  5  0  0  0  0  0  0  0  0  0  0
    1.7044    1.6703   -2.2207 O   0  0  0  0  0  0  0  0  0  0  0  0
   -0.0374    1.1645    0.5781 C   0  0  0  0  0  0  0  0  0  0  0  0
   -0.9816    1.8416    0.1544 O   0  0  0  0  0  0  0  0  0  0  0  0
    0.8235    1.6462    1.4801 N   0  0  0  0  0  0  0  0  0  0  0  0
    1.6183    1.0435    1.7020 H   0  0  0  0  0  0  0  0  0  0  0  0
    0.7895    2.9929    2.0404 C   0  0  0  0  0  0  0  0  0  0  0  0
   -0.2344    3.2522    2.3130 H   0  0  0  0  0  0  0  0  0  0  0  0
    1.4265    3.0377    2.9233 H   0  0  0  0  0  0  0  0  0  0  0  0
    1.1511    3.7014    1.2950 H   0  0  0  0  0  0  0  0  0  0  0  0
  5  6  2  0  0  0  0
  5  7  1  0  0  0  0
  2  3  1  0  0  0  0
  2  4  1  0  0  0  0
  2  5  1  0  0  0  0
  1  2  1  0  0  0  0
 17 18  2  0  0  0  0
 17 19  1  0  0  0  0
 14 15  1  0  0  0  0
 14 16  2  0  0  0  0
 11 12  1  0  0  0  0
 11 13  1  0  0  0  0
 11 14  1  0  0  0  0
  9 10  1  0  0  0  0
  9 11  1  0  0  0  0
  9 17  1  0  0  0  0
  7  8  1  0  0  0  0
  7  9  1  0  0  0  0
 21 22  1  0  0  0  0
 21 23  1  0  0  0  0
 21 24  1  0  0  0  0
 19 20  1  0  0  0  0
 19 21  1  0  0  0  0
M  CHG  1  15  -1
M  END
$$$$
default_name
  -OEChem-02102213163D

 24 23  0     1  0  0  0  0  0999 V2000
   -2.8347   -3.7166    0.8034 H   0  0  0  0  0  0  0  0  0  0  0  0
   -2.7728   -2.7096    0.3954 C   0  0  0  0  0  0  0  0  0  0  0  0
   -3.4267   -2.0426    0.9524 H   0  0  0  0  0  0  0  0  0  0  0  0
   -3.0538   -2.7186   -0.6556 H   0  0  0  0  0  0  0  0  0  0  0  0
   -1.3498   -2.2206    0.5184 C   0  0  0  0  0  0  0  0  0  0  0  0
   -0.4997   -2.9426    1.0194 O   0  0  0  0  0  0  0  0  0  0  0  0
   -1.1198   -0.9926    0.0674 N   0  0  0  0  0  0  0  0  0  0  0  0
   -1.8978   -0.4486   -0.2716 H   0  0  0  0  0  0  0  0  0  0  0  0
    0.1693   -0.2866    0.0854 C   0  0  1  0  0  0  0  0  0  0  0  0
    0.8425   -0.7905    0.7811 H   0  0  0  0  0  0  0  0  0  0  0  0
    0.7993   -0.3404   -1.3233 C   0  0  0  0  0  0  0  0  0  0  0  0
    1.1892   -1.3453   -1.4945 H   0  0  0  0  0  0  0  0  0  0  0  0
    0.0193   -0.1550   -2.0650 H   0  0  0  0  0  0  0  0  0  0  0  0
    1.9537    0.6497   -1.5437 C   0  0  0  0  0  0  0  0  0  0  0  0
    3.1212    0.2769   -1.2797 O   0  5  0  0  0  0  0  0  0  0  0  0
    1.6524    1.7889   -1.9604 O   0  0  0  0  0  0  0  0  0  0  0  0
   -0.0374    1.1645    0.5781 C   0  0  0  0  0  0  0  0  0  0  0  0
   -0.9816    1.8416    0.1544 O   0  0  0  0  0  0  0  0  0  0  0  0
    0.8235    1.6462    1.4801 N   0  0  0  0  0  0  0  0  0  0  0  0
    1.6183    1.0435    1.7020 H   0  0  0  0  0  0  0  0  0  0  0  0
    0.7895    2.9929    2.0404 C   0  0  0  0  0  0  0  0  0  0  0  0
   -0.2344    3.2522    2.3130 H   0  0  0  0  0  0  0  0  0  0  0  0
    1.4265    3.0377    2.9233 H   0  0  0  0  0  0  0  0  0  0  0  0
    1.1511    3.7014    1.2950 H   0  0  0  0  0  0  0  0  0  0  0  0
  5  6  2  0  0  0  0
  5  7  1  0  0  0  0
  2  3  1  0  0  0  0
  2  4  1  0  0  0  0
  2  5  1  0  0  0  0
  1  2  1  0  0  0  0
 17 18  2  0  0  0  0
 17 19  1  0  0  0  0
 14 15  1  0  0  0  0
 14 16  2  0  0  0  0
 11 12  1  0  0  0  0
 11 13  1  0  0  0  0
 11 14  1  0  0  0  0
  9 10  1  0  0  0  0
  9 11  1  0  0  0  0
  9 17  1  0  0  0  0
  7  8  1  0  0  0  0
  7  9  1  0  0  0  0
 21 22  1  0  0  0  0
 21 23  1  0  0  0  0
 21 24  1  0  0  0  0
 19 20  1  0  0  0  0
 19 21  1  0  0  0  0
M  CHG  1  15  -1
M  END
$$$$
default_name
  -OEChem-02102213163D

 24 23  0     1  0  0  0  0  0999 V2000
   -2.8347   -3.7166    0.8034 H   0  0  0  0  0  0  0  0  0  0  0  0
   -2.7728   -2.7096    0.3954 C   0  0  0  0  0  0  0  0  0  0  0  0
   -3.4267   -2.0426    0.9524 H   0  0  0  0  0  0  0  0  0  0  0  0
   -3.0538   -2.7186   -0.6556 H   0  0  0  0  0  0  0  0  0  0  0  0
   -1.3498   -2.2206    0.5184 C   0  0  0  0  0  0  0  0  0  0  0  0
   -0.4997   -2.9426    1.0194 O   0  0  0  0  0  0  0  0  0  0  0  0
   -1.1198   -0.9926    0.0674 N   0  0  0  0  0  0  0  0  0  0  0  0
   -1.8978   -0.4486   -0.2716 H   0  0  0  0  0  0  0  0  0  0  0  0
    0.1693   -0.2866    0.0854 C   0  0  1  0  0  0  0  0  0  0  0  0
    0.8425   -0.7905    0.7811 H   0  0  0  0  0  0  0  0  0  0  0  0
    0.7993   -0.3404   -1.3233 C   0  0  0  0  0  0  0  0  0  0  0  0
    1.1892   -1.3453   -1.4945 H   0  0  0  0  0  0  0  0  0  0  0  0
    0.0193   -0.1550   -2.0650 H   0  0  0  0  0  0  0  0  0  0  0  0
    1.9537    0.6497   -1.5437 C   0  0  0  0  0  0  0  0  0  0  0  0
    3.1270    0.2081   -1.5588 O   0  5  0  0  0  0  0  0  0  0  0  0
    1.6500    1.8547   -1.6772 O   0  0  0  0  0  0  0  0  0  0  0  0
   -0.0374    1.1645    0.5781 C   0  0  0  0  0  0  0  0  0  0  0  0
   -0.9816    1.8416    0.1544 O   0  0  0  0  0  0  0  0  0  0  0  0
    0.8235    1.6462    1.4801 N   0  0  0  0  0  0  0  0  0  0  0  0
    1.6183    1.0435    1.7020 H   0  0  0  0  0  0  0  0  0  0  0  0
    0.7895    2.9929    2.0404 C   0  0  0  0  0  0  0  0  0  0  0  0
   -0.2344    3.2522    2.3130 H   0  0  0  0  0  0  0  0  0  0  0  0
    1.4265    3.0377    2.9233 H   0  0  0  0  0  0  0  0  0  0  0  0
    1.1511    3.7014    1.2950 H   0  0  0  0  0  0  0  0  0  0  0  0
  5  6  2  0  0  0  0
  5  7  1  0  0  0  0
  2  3  1  0  0  0  0
  2  4  1  0  0  0  0
  2  5  1  0  0  0  0
  1  2  1  0  0  0  0
 17 18  2  0  0  0  0
 17 19  1  0  0  0  0
 14 15  1  0  0  0  0
 14 16  2  0  0  0  0
 11 12  1  0  0  0  0
 11 13  1  0  0  0  0
 11 14  1  0  0  0  0
  9 10  1  0  0  0  0
  9 11  1  0  0  0  0
  9 17  1  0  0  0  0
  7  8  1  0  0  0  0
  7  9  1  0  0  0  0
 21 22  1  0  0  0  0
 21 23  1  0  0  0  0
 21 24  1  0  0  0  0
 19 20  1  0  0  0  0
 19 21  1  0  0  0  0
M  CHG  1  15  -1
M  END
$$$$
default_name
  -OEChem-02102213163D

 24 23  0     1  0  0  0  0  0999 V2000
   -2.8347   -3.7166    0.8034 H   0  0  0  0  0  0  0  0  0  0  0  0
   -2.7728   -2.7096    0.3954 C   0  0  0  0  0  0  0  0  0  0  0  0
   -3.4267   -2.0426    0.9524 H   0  0  0  0  0  0  0  0  0  0  0  0
   -3.0538   -2.7186   -0.6556 H   0  0  0  0  0  0  0  0  0  0  0  0
   -1.3498   -2.2206    0.5184 C   0  0  0  0  0  0  0  0  0  0  0  0
   -0.4997   -2.9426    1.0194 O   0  0  0  0  0  0  0  0  0  0  0  0
   -1.1198   -0.9926    0.0674 N   0  0  0  0  0  0  0  0  0  0  0  0
   -1.8978   -0.4486   -0.2716 H   0  0  0  0  0  0  0  0  0  0  0  0
    0.1693   -0.2866    0.0854 C   0  0  1  0  0  0  0  0  0  0  0  0
    0.8425   -0.7905    0.7811 H   0  0  0  0  0  0  0  0  0  0  0  0
    0.7993   -0.3404   -1.3233 C   0  0  0  0  0  0  0  0  0  0  0  0
    1.1892   -1.3453   -1.4945 H   0  0  0  0  0  0  0  0  0  0  0  0
    0.0193   -0.1550   -2.0650 H   0  0  0  0  0  0  0  0  0  0  0  0
    1.9537    0.6497   -1.5437 C   0  0  0  0  0  0  0  0  0  0  0  0
    3.0834    0.1957   -1.8427 O   0  5  0  0  0  0  0  0  0  0  0  0
    1.6973    1.8633   -1.3905 O   0  0  0  0  0  0  0  0  0  0  0  0
   -0.0374    1.1645    0.5781 C   0  0  0  0  0  0  0  0  0  0  0  0
   -0.9816    1.8416    0.1544 O   0  0  0  0  0  0  0  0  0  0  0  0
    0.8235    1.6462    1.4801 N   0  0  0  0  0  0  0  0  0  0  0  0
    1.6183    1.0435    1.7020 H   0  0  0  0  0  0  0  0  0  0  0  0
    0.7895    2.9929    2.0404 C   0  0  0  0  0  0  0  0  0  0  0  0
   -0.2344    3.2522    2.3130 H   0  0  0  0  0  0  0  0  0  0  0  0
    1.4265    3.0377    2.9233 H   0  0  0  0  0  0  0  0  0  0  0  0
    1.1511    3.7014    1.2950 H   0  0  0  0  0  0  0  0  0  0  0  0
  5  6  2  0  0  0  0
  5  7  1  0  0  0  0
  2  3  1  0  0  0  0
  2  4  1  0  0  0  0
  2  5  1  0  0  0  0
  1  2  1  0  0  0  0
 17 18  2  0  0  0  0
 17 19  1  0  0  0  0
 14 15  1  0  0  0  0
 14 16  2  0  0  0  0
 11 12  1  0  0  0  0
 11 13  1  0  0  0  0
 11 14  1  0  0  0  0
  9 10  1  0  0  0  0
  9 11  1  0  0  0  0
  9 17  1  0  0  0  0
  7  8  1  0  0  0  0
  7  9  1  0  0  0  0
 21 22  1  0  0  0  0
 21 23  1  0  0  0  0
 21 24  1  0  0  0  0
 19 20  1  0  0  0  0
 19 21  1  0  0  0  0
M  CHG  1  15  -1
M  END
$$$$
default_name
  -OEChem-02102213163D

 24 23  0     1  0  0  0  0  0999 V2000
   -2.8347   -3.7166    0.8034 H   0  0  0  0  0  0  0  0  0  0  0  0
   -2.7728   -2.7096    0.3954 C   0  0  0  0  0  0  0  0  0  0  0  0
   -3.4267   -2.0426    0.9524 H   0  0  0  0  0  0  0  0  0  0  0  0
   -3.0538   -2.7186   -0.6556 H   0  0  0  0  0  0  0  0  0  0  0  0
   -1.3498   -2.2206    0.5184 C   0  0  0  0  0  0  0  0  0  0  0  0
   -0.4997   -2.9426    1.0194 O   0  0  0  0  0  0  0  0  0  0  0  0
   -1.1198   -0.9926    0.0674 N   0  0  0  0  0  0  0  0  0  0  0  0
   -1.8978   -0.4486   -0.2716 H   0  0  0  0  0  0  0  0  0  0  0  0
    0.1693   -0.2866    0.0854 C   0  0  1  0  0  0  0  0  0  0  0  0
    0.8425   -0.7905    0.7811 H   0  0  0  0  0  0  0  0  0  0  0  0
    0.7993   -0.3404   -1.3233 C   0  0  0  0  0  0  0  0  0  0  0  0
    1.1892   -1.3453   -1.4945 H   0  0  0  0  0  0  0  0  0  0  0  0
    0.0193   -0.1550   -2.0650 H   0  0  0  0  0  0  0  0  0  0  0  0
    1.9537    0.6497   -1.5437 C   0  0  0  0  0  0  0  0  0  0  0  0
    2.9935    0.2406   -2.1121 O   0  5  0  0  0  0  0  0  0  0  0  0
    1.7912    1.8142   -1.1197 O   0  0  0  0  0  0  0  0  0  0  0  0
   -0.0374    1.1645    0.5781 C   0  0  0  0  0  0  0  0  0  0  0  0
   -0.9816    1.8416    0.1544 O   0  0  0  0  0  0  0  0  0  0  0  0
    0.8235    1.6462    1.4801 N   0  0  0  0  0  0  0  0  0  0  0  0
    1.6183    1.0435    1.7020 H   0  0  0  0  0  0  0  0  0  0  0  0
    0.7895    2.9929    2.0404 C   0  0  0  0  0  0  0  0  0  0  0  0
   -0.2344    3.2522    2.3130 H   0  0  0  0  0  0  0  0  0  0  0  0
    1.4265    3.0377    2.9233 H   0  0  0  0  0  0  0  0  0  0  0  0
    1.1511    3.7014    1.2950 H   0  0  0  0  0  0  0  0  0  0  0  0
  5  6  2  0  0  0  0
  5  7  1  0  0  0  0
  2  3  1  0  0  0  0
  2  4  1  0  0  0  0
  2  5  1  0  0  0  0
  1  2  1  0  0  0  0
 17 18  2  0  0  0  0
 17 19  1  0  0  0  0
 14 15  1  0  0  0  0
 14 16  2  0  0  0  0
 11 12  1  0  0  0  0
 11 13  1  0  0  0  0
 11 14  1  0  0  0  0
  9 10  1  0  0  0  0
  9 11  1  0  0  0  0
  9 17  1  0  0  0  0
  7  8  1  0  0  0  0
  7  9  1  0  0  0  0
 21 22  1  0  0  0  0
 21 23  1  0  0  0  0
 21 24  1  0  0  0  0
 19 20  1  0  0  0  0
 19 21  1  0  0  0  0
M  CHG  1  15  -1
M  END
$$$$
default_name
  -OEChem-02102213163D

 24 23  0     1  0  0  0  0  0999 V2000
   -2.8347   -3.7166    0.8034 H   0  0  0  0  0  0  0  0  0  0  0  0
   -2.7728   -2.7096    0.3954 C   0  0  0  0  0  0  0  0  0  0  0  0
   -3.4267   -2.0426    0.9524 H   0  0  0  0  0  0  0  0  0  0  0  0
   -3.0538   -2.7186   -0.6556 H   0  0  0  0  0  0  0  0  0  0  0  0
   -1.3498   -2.2206    0.5184 C   0  0  0  0  0  0  0  0  0  0  0  0
   -0.4997   -2.9426    1.0194 O   0  0  0  0  0  0  0  0  0  0  0  0
   -1.1198   -0.9926    0.0674 N   0  0  0  0  0  0  0  0  0  0  0  0
   -1.8978   -0.4486   -0.2716 H   0  0  0  0  0  0  0  0  0  0  0  0
    0.1693   -0.2866    0.0854 C   0  0  1  0  0  0  0  0  0  0  0  0
    0.8425   -0.7905    0.7811 H   0  0  0  0  0  0  0  0  0  0  0  0
    0.7993   -0.3404   -1.3233 C   0  0  0  0  0  0  0  0  0  0  0  0
    1.1892   -1.3453   -1.4945 H   0  0  0  0  0  0  0  0  0  0  0  0
    0.0193   -0.1550   -2.0650 H   0  0  0  0  0  0  0  0  0  0  0  0
    1.9537    0.6497   -1.5437 C   0  0  0  0  0  0  0  0  0  0  0  0
    2.8635    0.3396   -2.3486 O   0  5  0  0  0  0  0  0  0  0  0  0
    1.9251    1.7106   -0.8834 O   0  0  0  0  0  0  0  0  0  0  0  0
   -0.0374    1.1645    0.5781 C   0  0  0  0  0  0  0  0  0  0  0  0
   -0.9816    1.8416    0.1544 O   0  0  0  0  0  0  0  0  0  0  0  0
    0.8235    1.6462    1.4801 N   0  0  0  0  0  0  0  0  0  0  0  0
    1.6183    1.0435    1.7020 H   0  0  0  0  0  0  0  0  0  0  0  0
    0.7895    2.9929    2.0404 C   0  0  0  0  0  0  0  0  0  0  0  0
   -0.2344    3.2522    2.3130 H   0  0  0  0  0  0  0  0  0  0  0  0
    1.4265    3.0377    2.9233 H   0  0  0  0  0  0  0  0  0  0  0  0
    1.1511    3.7014    1.2950 H   0  0  0  0  0  0  0  0  0  0  0  0
  5  6  2  0  0  0  0
  5  7  1  0  0  0  0
  2  3  1  0  0  0  0
  2  4  1  0  0  0  0
  2  5  1  0  0  0  0
  1  2  1  0  0  0  0
 17 18  2  0  0  0  0
 17 19  1  0  0  0  0
 14 15  1  0  0  0  0
 14 16  2  0  0  0  0
 11 12  1  0  0  0  0
 11 13  1  0  0  0  0
 11 14  1  0  0  0  0
  9 10  1  0  0  0  0
  9 11  1  0  0  0  0
  9 17  1  0  0  0  0
  7  8  1  0  0  0  0
  7  9  1  0  0  0  0
 21 22  1  0  0  0  0
 21 23  1  0  0  0  0
 21 24  1  0  0  0  0
 19 20  1  0  0  0  0
 19 21  1  0  0  0  0
M  CHG  1  15  -1
M  END
$$$$
default_name
  -OEChem-02102213163D

 24 23  0     1  0  0  0  0  0999 V2000
   -2.8347   -3.7166    0.8034 H   0  0  0  0  0  0  0  0  0  0  0  0
   -2.7728   -2.7096    0.3954 C   0  0  0  0  0  0  0  0  0  0  0  0
   -3.4267   -2.0426    0.9524 H   0  0  0  0  0  0  0  0  0  0  0  0
   -3.0538   -2.7186   -0.6556 H   0  0  0  0  0  0  0  0  0  0  0  0
   -1.3498   -2.2206    0.5184 C   0  0  0  0  0  0  0  0  0  0  0  0
   -0.4997   -2.9426    1.0194 O   0  0  0  0  0  0  0  0  0  0  0  0
   -1.1198   -0.9926    0.0674 N   0  0  0  0  0  0  0  0  0  0  0  0
   -1.8978   -0.4486   -0.2716 H   0  0  0  0  0  0  0  0  0  0  0  0
    0.1693   -0.2866    0.0854 C   0  0  1  0  0  0  0  0  0  0  0  0
    0.8425   -0.7905    0.7811 H   0  0  0  0  0  0  0  0  0  0  0  0
    0.7993   -0.3404   -1.3233 C   0  0  0  0  0  0  0  0  0  0  0  0
    1.1892   -1.3453   -1.4945 H   0  0  0  0  0  0  0  0  0  0  0  0
    0.0193   -0.1550   -2.0650 H   0  0  0  0  0  0  0  0  0  0  0  0
    1.9537    0.6497   -1.5437 C   0  0  0  0  0  0  0  0  0  0  0  0
    2.7021    0.4860   -2.5360 O   0  5  0  0  0  0  0  0  0  0  0  0
    2.0901    1.5596   -0.6977 O   0  0  0  0  0  0  0  0  0  0  0  0
   -0.0374    1.1645    0.5781 C   0  0  0  0  0  0  0  0  0  0  0  0
   -0.9816    1.8416    0.1544 O   0  0  0  0  0  0  0  0  0  0  0  0
    0.8235    1.6462    1.4801 N   0  0  0  0  0  0  0  0  0  0  0  0
    1.6183    1.0435    1.7020 H   0  0  0  0  0  0  0  0  0  0  0  0
    0.7895    2.9929    2.0404 C   0  0  0  0  0  0  0  0  0  0  0  0
   -0.2344    3.2522    2.3130 H   0  0  0  0  0  0  0  0  0  0  0  0
    1.4265    3.0377    2.9233 H   0  0  0  0  0  0  0  0  0  0  0  0
    1.1511    3.7014    1.2950 H   0  0  0  0  0  0  0  0  0  0  0  0
  5  6  2  0  0  0  0
  5  7  1  0  0  0  0
  2  3  1  0  0  0  0
  2  4  1  0  0  0  0
  2  5  1  0  0  0  0
  1  2  1  0  0  0  0
 17 18  2  0  0  0  0
 17 19  1  0  0  0  0
 14 15  1  0  0  0  0
 14 16  2  0  0  0  0
 11 12  1  0  0  0  0
 11 13  1  0  0  0  0
 11 14  1  0  0  0  0
  9 10  1  0  0  0  0
  9 11  1  0  0  0  0
  9 17  1  0  0  0  0
  7  8  1  0  0  0  0
  7  9  1  0  0  0  0
 21 22  1  0  0  0  0
 21 23  1  0  0  0  0
 21 24  1  0  0  0  0
 19 20  1  0  0  0  0
 19 21  1  0  0  0  0
M  CHG  1  15  -1
M  END
$$$$
